@<TRIPOS>MOLECULE
CHEMBL270866_29
64   69    1
SMALL
USER_CHARGES


@<TRIPOS>ATOM
      1 C1          1.2422   53.7157   23.2183 C.3       1 UNK         0.0000 
      2 N2          2.5679   53.9190   23.7843 N.pl3     1 UNK         0.0000 
      3 C3          2.8475   53.8494   25.1309 C.ar      1 UNK         0.0000 
      4 C4          1.9959   53.5678   26.2050 C.ar      1 UNK         0.0000 
      5 C5          2.5054   53.7032   27.4963 C.ar      1 UNK         0.0000 
      6 C6          3.8623   54.0022   27.6743 C.ar      1 UNK         0.0000 
      7 C7          4.7160   54.2113   26.6217 C.ar      1 UNK         0.0000 
      8 C8          4.2226   54.1641   25.3093 C.ar      1 UNK         0.0000 
      9 C9          4.7794   54.3808   24.0344 C.ar      1 UNK         0.0000 
     10 C10         3.7193   54.2656   23.1000 C.ar      1 UNK         0.0000 
     11 C11         3.9204   54.4947   21.7437 C.ar      1 UNK         0.0000 
     12 C12         5.2198   54.7199   21.2982 C.ar      1 UNK         0.0000 
     13 C13         6.2746   54.8965   22.2038 C.ar      1 UNK         0.0000 
     14 C14         6.0669   54.7078   23.5689 C.ar      1 UNK         0.0000 
     15 O15         7.5232   55.2811   21.8002 O.3       1 UNK         0.0000 
     16 S16         5.4074   54.7438   19.4745 S.3       1 UNK         0.0000 
     17 O17         6.8243   55.2150   19.1476 O.2       1 UNK         0.0000 
     18 C18         5.3895   52.8969   19.1977 C.3       1 UNK         0.0000 
     19 C19         4.1468   52.1594   19.7595 C.3       1 UNK         0.0000 
     20 C20         2.8325   52.5535   19.0675 C.3       1 UNK         0.0000 
     21 N21         2.6340   51.6596   17.8273 N.4       1 UNK         0.0000 
     22 C22         1.6832   52.2387   16.7665 C.3       1 UNK         0.0000 
     23 C23         1.3530   51.0261   15.8991 C.3       1 UNK         0.0000 
     24 C24         1.3598   49.8178   16.8418 C.3       1 UNK         0.0000 
     25 C25         2.0454   50.2651   18.1404 C.3       1 UNK         0.0000 
     26 C26         6.0611   54.5091   27.1772 C.2       1 UNK         0.0000 
     27 O27         7.1044   54.7758   26.5907 O.2       1 UNK         0.0000 
     28 N28         5.9046   54.4712   28.5075 N.am      1 UNK         0.0000 
     29 C29         4.6597   54.1763   28.9153 C.2       1 UNK         0.0000 
     30 O30         4.2811   54.0957   30.0812 O.2       1 UNK         0.0000 
     31 C31         1.5757   53.5367   28.6392 C.ar      1 UNK         0.0000 
     32 C32         0.9493   52.2987   28.8312 C.ar      1 UNK         0.0000 
     33 C33         0.0970   52.0966   29.9111 C.ar      1 UNK         0.0000 
     34 C34        -0.0952   53.1148   30.8358 C.ar      1 UNK         0.0000 
     35 C35         0.4809   54.3649   30.6383 C.ar      1 UNK         0.0000 
     36 C36         1.2895   54.5929   29.5270 C.ar      1 UNK         0.0000 
     37 Cl37        1.8869   56.2006   29.2739 Cl        1 UNK         0.0000 
     38 H38         0.8656   52.7380   23.5220 H         1 UNK         0.0000 
     39 H39         0.5822   54.4949   23.6048 H         1 UNK         0.0000 
     40 H40         1.2642   53.7607   22.1293 H         1 UNK         0.0000 
     41 H41         0.9564   53.3179   26.0480 H         1 UNK         0.0000 
     42 H42         3.1059   54.4193   21.0440 H         1 UNK         0.0000 
     43 H43         6.8922   54.8347   24.2462 H         1 UNK         0.0000 
     44 H44         8.1719   55.3019   22.5145 H         1 UNK         0.0000 
     45 H45         6.2912   52.4694   19.6228 H         1 UNK         0.0000 
     46 H46         5.4659   52.7244   18.1239 H         1 UNK         0.0000 
     47 H47         4.0622   52.2539   20.8365 H         1 UNK         0.0000 
     48 H48         4.3013   51.0870   19.6817 H         1 UNK         0.0000 
     49 H49         2.8440   53.5863   18.7142 H         1 UNK         0.0000 
     50 H50         1.9534   52.4160   19.6970 H         1 UNK         0.0000 
     51 H51         2.1885   53.0594   16.2516 H         1 UNK         0.0000 
     52 H52         0.8183   52.6307   17.3073 H         1 UNK         0.0000 
     53 H53         2.1192   50.9068   15.1292 H         1 UNK         0.0000 
     54 H54         0.3940   51.1393   15.3899 H         1 UNK         0.0000 
     55 H55         0.3433   49.4771   17.0526 H         1 UNK         0.0000 
     56 H56         1.8934   48.9768   16.3939 H         1 UNK         0.0000 
     57 H57         1.3225   50.3843   18.9503 H         1 UNK         0.0000 
     58 H58         2.8636   49.6262   18.4813 H         1 UNK         0.0000 
     59 H59         6.6526   54.7073   29.1462 H         1 UNK         0.0000 
     60 H60         1.1228   51.4855   28.1389 H         1 UNK         0.0000 
     61 H61        -0.4152   51.1536   30.0403 H         1 UNK         0.0000 
     62 H62        -0.7376   52.9410   31.6815 H         1 UNK         0.0000 
     63 H63         0.2901   55.1625   31.3400 H         1 UNK         0.0000 
     64 H64         3.5467   51.5072   17.4030 H         1 UNK         0.0000 
@<TRIPOS>BOND
     1    1    2 1    
     2    1   38 1    
     3    1   39 1    
     4    1   40 1    
     5    2   10 ar   
     6    2    3 ar   
     7    3    8 ar   
     8    3    4 ar   
     9    4    5 ar   
    10    4   41 1    
    11    5    6 ar   
    12    5   31 1    
    13    6   29 1    
    14    6    7 ar   
    15    7    8 ar   
    16    7   26 1    
    17    8    9 ar   
    18    9   14 ar   
    19    9   10 ar   
    20   10   11 ar   
    21   11   12 ar   
    22   11   42 1    
    23   12   13 ar   
    24   12   16 1    
    25   13   14 ar   
    26   13   15 1    
    27   14   43 1    
    28   15   44 1    
    29   16   17 2    
    30   16   18 1    
    31   18   19 1    
    32   18   45 1    
    33   18   46 1    
    34   19   20 1    
    35   19   47 1    
    36   19   48 1    
    37   20   21 1    
    38   20   49 1    
    39   20   50 1    
    40   21   25 1    
    41   21   22 1    
    42   21   64 1    
    43   22   23 1    
    44   22   51 1    
    45   22   52 1    
    46   23   24 1    
    47   23   53 1    
    48   23   54 1    
    49   24   25 1    
    50   24   55 1    
    51   24   56 1    
    52   25   57 1    
    53   25   58 1    
    54   26   27 2    
    55   26   28 am   BACKBONE|DICT|INTERRES
    56   28   29 am   BACKBONE|DICT|INTERRES
    57   28   59 1    
    58   29   30 2    
    59   31   36 ar   
    60   31   32 ar   
    61   32   33 ar   
    62   32   60 1    
    63   33   34 ar   
    64   33   61 1    
    65   34   35 ar   
    66   34   62 1    
    67   35   36 ar   
    68   35   63 1    
    69   36   37 1    
@<TRIPOS>SUBSTRUCTURE
     1 UNK         1 GROUP             0       ****    0 ROOT    
