@<TRIPOS>MOLECULE
CHEMBL474111_117
62   67    1
SMALL
USER_CHARGES


@<TRIPOS>ATOM
      1 C1          0.1152   51.8677   29.4363 C.ar      1 UNK         0.0000 
      2 C2         -0.1083   52.7889   30.4524 C.ar      1 UNK         0.0000 
      3 C3          0.4471   54.0629   30.3710 C.ar      1 UNK         0.0000 
      4 C4          1.2635   54.4058   29.2932 C.ar      1 UNK         0.0000 
      5 C5          1.5689   53.4470   28.3035 C.ar      1 UNK         0.0000 
      6 C6          0.9613   52.1876   28.3800 C.ar      1 UNK         0.0000 
      7 C7          2.5214   53.7005   27.1871 C.ar      1 UNK         0.0000 
      8 C8          2.0736   53.5510   25.8659 C.ar      1 UNK         0.0000 
      9 C9          2.9786   53.7841   24.8179 C.ar      1 UNK         0.0000 
     10 C10         4.3253   54.1713   25.0600 C.ar      1 UNK         0.0000 
     11 C11         4.9466   54.3670   23.8050 C.ar      1 UNK         0.0000 
     12 C12         6.2296   54.7906   23.4068 C.ar      1 UNK         0.0000 
     13 C13         6.5260   54.8914   22.0499 C.ar      1 UNK         0.0000 
     14 C14         5.5915   54.5157   21.0759 C.ar      1 UNK         0.0000 
     15 C15         4.3043   54.0964   21.4427 C.ar      1 UNK         0.0000 
     16 C16         3.9912   54.0402   22.8064 C.ar      1 UNK         0.0000 
     17 N17         2.8108   53.6859   23.4444 N.pl3     1 UNK         0.0000 
     18 C18         1.5918   53.2212   22.7739 C.3       1 UNK         0.0000 
     19 C19         1.5873   51.6996   22.5339 C.3       1 UNK         0.0000 
     20 O20         1.5044   50.9888   23.7514 O.3       1 UNK         0.0000 
     21 O21         5.9940   54.5649   19.7558 O.3       1 UNK         0.0000 
     22 C22         5.3662   53.7091   18.8015 C.3       1 UNK         0.0000 
     23 C23         6.3197   53.4493   17.6206 C.3       1 UNK         0.0000 
     24 C24         6.6669   54.6854   16.7557 C.3       1 UNK         0.0000 
     25 N25         7.3985   55.7071   17.4994 N.pl3     1 UNK         0.0000 
     26 C26         6.9950   57.0059   17.7145 C.ar      1 UNK         0.0000 
     27 C27         7.9642   57.6684   18.4510 C.ar      1 UNK         0.0000 
     28 C28         8.9914   56.7537   18.6981 C.ar      1 UNK         0.0000 
     29 C29         8.6273   55.5575   18.1017 C.ar      1 UNK         0.0000 
     30 O30         7.7826   55.3140   21.6816 O.3       1 UNK         0.0000 
     31 C31         4.7468   54.2660   26.3982 C.ar      1 UNK         0.0000 
     32 C32         3.8649   54.0219   27.4214 C.ar      1 UNK         0.0000 
     33 C33         4.6355   54.1445   28.6956 C.2       1 UNK         0.0000 
     34 O34         4.2503   53.9803   29.8512 O.2       1 UNK         0.0000 
     35 N35         5.8795   54.4964   28.3335 N.am      1 UNK         0.0000 
     36 C36         6.0583   54.5899   27.0081 C.2       1 UNK         0.0000 
     37 O37         7.1044   54.8971   26.4582 O.2       1 UNK         0.0000 
     38 Cl38        1.8605   56.0315   29.2261 Cl        1 UNK         0.0000 
     39 H39        -0.3547   50.8970   29.4818 H         1 UNK         0.0000 
     40 H40        -0.7445   52.5122   31.2809 H         1 UNK         0.0000 
     41 H41         0.2358   54.7869   31.1435 H         1 UNK         0.0000 
     42 H42         1.1560   51.4396   27.6254 H         1 UNK         0.0000 
     43 H43         1.0544   53.2562   25.6640 H         1 UNK         0.0000 
     44 H44         6.9841   55.0609   24.1250 H         1 UNK         0.0000 
     45 H45         3.5719   53.8398   20.6923 H         1 UNK         0.0000 
     46 H46         0.6935   53.5738   23.2780 H         1 UNK         0.0000 
     47 H47         1.5675   53.6967   21.7961 H         1 UNK         0.0000 
     48 H48         0.7902   51.4035   21.8507 H         1 UNK         0.0000 
     49 H49         2.5255   51.4007   22.0625 H         1 UNK         0.0000 
     50 H50         1.6242   50.0495   23.5798 H         1 UNK         0.0000 
     51 H51         4.4330   54.1560   18.4533 H         1 UNK         0.0000 
     52 H52         5.1176   52.7449   19.2518 H         1 UNK         0.0000 
     53 H53         5.8637   52.6939   16.9774 H         1 UNK         0.0000 
     54 H54         7.2343   52.9878   17.9952 H         1 UNK         0.0000 
     55 H55         5.7547   55.1366   16.3586 H         1 UNK         0.0000 
     56 H56         7.2784   54.3954   15.9002 H         1 UNK         0.0000 
     57 H57         6.0510   57.3546   17.3226 H         1 UNK         0.0000 
     58 H58         7.9299   58.6993   18.7684 H         1 UNK         0.0000 
     59 H59         9.9011   56.9378   19.2522 H         1 UNK         0.0000 
     60 H60         9.1387   54.6068   18.0615 H         1 UNK         0.0000 
     61 H61         8.4098   55.3576   22.4147 H         1 UNK         0.0000 
     62 H62         6.6111   54.7075   28.9959 H         1 UNK         0.0000 
@<TRIPOS>BOND
     1    1    6 ar   
     2    1    2 ar   
     3    1   39 1    
     4    2    3 ar   
     5    2   40 1    
     6    3    4 ar   
     7    3   41 1    
     8    4    5 ar   
     9    4   38 1    
    10    5    6 ar   
    11    5    7 1    
    12    6   42 1    
    13    7   32 ar   
    14    7    8 ar   
    15    8    9 ar   
    16    8   43 1    
    17    9   17 ar   
    18    9   10 ar   
    19   10   11 ar   
    20   10   31 ar   
    21   11   16 ar   
    22   11   12 ar   
    23   12   13 ar   
    24   12   44 1    
    25   13   14 ar   
    26   13   30 1    
    27   14   15 ar   
    28   14   21 1    
    29   15   16 ar   
    30   15   45 1    
    31   16   17 ar   
    32   17   18 1    
    33   18   19 1    
    34   18   46 1    
    35   18   47 1    
    36   19   20 1    
    37   19   48 1    
    38   19   49 1    
    39   20   50 1    
    40   21   22 1    
    41   22   23 1    
    42   22   51 1    
    43   22   52 1    
    44   23   24 1    
    45   23   53 1    
    46   23   54 1    
    47   24   25 1    
    48   24   55 1    
    49   24   56 1    
    50   25   29 ar   
    51   25   26 ar   
    52   26   27 ar   
    53   26   57 1    
    54   27   28 ar   
    55   27   58 1    
    56   28   29 ar   
    57   28   59 1    
    58   29   60 1    
    59   30   61 1    
    60   31   36 1    
    61   31   32 ar   
    62   32   33 1    
    63   33   34 2    
    64   33   35 am   BACKBONE|DICT|INTERRES
    65   35   36 am   BACKBONE|DICT|INTERRES
    66   35   62 1    
    67   36   37 2    
@<TRIPOS>SUBSTRUCTURE
     1 UNK         1 GROUP             0       ****    0 ROOT    
