@<TRIPOS>MOLECULE
CHEMBL486661_130
60   65    1
SMALL
USER_CHARGES


@<TRIPOS>ATOM
      1 C1          0.0880   51.8465   29.3204 C.ar      1 UNK         0.0000 
      2 C2         -0.2070   52.8083   30.2803 C.ar      1 UNK         0.0000 
      3 C3          0.3092   54.0955   30.1563 C.ar      1 UNK         0.0000 
      4 C4          1.1544   54.4137   29.0925 C.ar      1 UNK         0.0000 
      5 C5          1.5310   53.4185   28.1679 C.ar      1 UNK         0.0000 
      6 C6          0.9671   52.1428   28.2847 C.ar      1 UNK         0.0000 
      7 C7          2.5152   53.6652   27.0807 C.ar      1 UNK         0.0000 
      8 C8          2.0916   53.5488   25.7535 C.ar      1 UNK         0.0000 
      9 C9          3.0204   53.7927   24.7234 C.ar      1 UNK         0.0000 
     10 C10         4.3724   54.1328   25.0031 C.ar      1 UNK         0.0000 
     11 C11         5.0242   54.3306   23.7630 C.ar      1 UNK         0.0000 
     12 C12         6.3373   54.6939   23.3996 C.ar      1 UNK         0.0000 
     13 C13         6.6432   54.9043   22.0568 C.ar      1 UNK         0.0000 
     14 C14         5.6772   54.7255   21.0756 C.ar      1 UNK         0.0000 
     15 C15         4.3780   54.3262   21.3830 C.ar      1 UNK         0.0000 
     16 C16         4.0573   54.1327   22.7353 C.ar      1 UNK         0.0000 
     17 N17         2.8596   53.7734   23.3449 N.pl3     1 UNK         0.0000 
     18 C18         1.5870   53.5074   22.6648 C.3       1 UNK         0.0000 
     19 C19         1.6540   52.4167   21.5723 C.3       1 UNK         0.0000 
     20 C20         2.5192   51.1838   21.9247 C.3       1 UNK         0.0000 
     21 N21         2.3192   49.9951   20.9507 N.4       1 UNK         0.0000 
     22 C22         2.4906   50.3759   19.4592 C.3       1 UNK         0.0000 
     23 C23         2.2851   49.1203   18.5931 C.3       1 UNK         0.0000 
     24 O24         1.0414   48.4850   18.8863 O.3       1 UNK         0.0000 
     25 C25         0.8816   48.0697   20.2369 C.3       1 UNK         0.0000 
     26 C26         0.9857   49.2586   21.2082 C.3       1 UNK         0.0000 
     27 O27         7.9031   55.2983   21.6817 O.3       1 UNK         0.0000 
     28 C28         4.7619   54.2167   26.3541 C.ar      1 UNK         0.0000 
     29 C29         3.8509   53.9818   27.3528 C.ar      1 UNK         0.0000 
     30 C30         4.5747   54.1263   28.6507 C.2       1 UNK         0.0000 
     31 O31         4.1468   53.9821   29.7932 O.2       1 UNK         0.0000 
     32 N32         5.8300   54.4763   28.3249 N.am      1 UNK         0.0000 
     33 C33         6.0498   54.5619   27.0038 C.2       1 UNK         0.0000 
     34 O34         7.1044   54.8910   26.4814 O.2       1 UNK         0.0000 
     35 Cl35        1.6960   56.0542   28.9412 Cl        1 UNK         0.0000 
     36 H36        -0.3527   50.8661   29.3977 H         1 UNK         0.0000 
     37 H37        -0.8622   52.5561   31.1031 H         1 UNK         0.0000 
     38 H38         0.0444   54.8503   30.8825 H         1 UNK         0.0000 
     39 H39         1.2209   51.3669   27.5765 H         1 UNK         0.0000 
     40 H40         1.0637   53.2958   25.5446 H         1 UNK         0.0000 
     41 H41         7.1063   54.8471   24.1366 H         1 UNK         0.0000 
     42 H42         5.9401   54.9001   20.0414 H         1 UNK         0.0000 
     43 H43         3.6542   54.2186   20.5912 H         1 UNK         0.0000 
     44 H44         1.2451   54.4550   22.2560 H         1 UNK         0.0000 
     45 H45         0.8462   53.2060   23.4029 H         1 UNK         0.0000 
     46 H46         2.0198   52.8663   20.6509 H         1 UNK         0.0000 
     47 H47         0.6334   52.1171   21.3419 H         1 UNK         0.0000 
     48 H48         2.3048   50.7911   22.9208 H         1 UNK         0.0000 
     49 H49         3.5860   51.4092   21.8740 H         1 UNK         0.0000 
     50 H50         3.5027   50.7633   19.3337 H         1 UNK         0.0000 
     51 H51         1.7659   51.1486   19.2053 H         1 UNK         0.0000 
     52 H52         2.2972   49.3947   17.5387 H         1 UNK         0.0000 
     53 H53         3.1046   48.4173   18.7508 H         1 UNK         0.0000 
     54 H54        -0.0806   47.5677   20.3450 H         1 UNK         0.0000 
     55 H55         1.6569   47.3403   20.4784 H         1 UNK         0.0000 
     56 H56         0.1647   49.9623   21.0769 H         1 UNK         0.0000 
     57 H57         1.0113   48.9035   22.2413 H         1 UNK         0.0000 
     58 H58         8.5397   55.2992   22.4116 H         1 UNK         0.0000 
     59 H59         6.5377   54.7050   29.0091 H         1 UNK         0.0000 
     60 H60         3.0494   49.3225   21.1462 H         1 UNK         0.0000 
@<TRIPOS>BOND
     1    1    6 ar   
     2    1    2 ar   
     3    1   36 1    
     4    2    3 ar   
     5    2   37 1    
     6    3    4 ar   
     7    3   38 1    
     8    4    5 ar   
     9    4   35 1    
    10    5    6 ar   
    11    5    7 1    
    12    6   39 1    
    13    7   29 ar   
    14    7    8 ar   
    15    8    9 ar   
    16    8   40 1    
    17    9   17 ar   
    18    9   10 ar   
    19   10   11 ar   
    20   10   28 ar   
    21   11   16 ar   
    22   11   12 ar   
    23   12   13 ar   
    24   12   41 1    
    25   13   14 ar   
    26   13   27 1    
    27   14   15 ar   
    28   14   42 1    
    29   15   16 ar   
    30   15   43 1    
    31   16   17 ar   
    32   17   18 1    
    33   18   19 1    
    34   18   44 1    
    35   18   45 1    
    36   19   20 1    
    37   19   46 1    
    38   19   47 1    
    39   20   21 1    
    40   20   48 1    
    41   20   49 1    
    42   21   26 1    
    43   21   22 1    
    44   21   60 1    
    45   22   23 1    
    46   22   50 1    
    47   22   51 1    
    48   23   24 1    
    49   23   52 1    
    50   23   53 1    
    51   24   25 1    
    52   25   26 1    
    53   25   54 1    
    54   25   55 1    
    55   26   56 1    
    56   26   57 1    
    57   27   58 1    
    58   28   33 1    
    59   28   29 ar   
    60   29   30 1    
    61   30   31 2    
    62   30   32 am   BACKBONE|DICT|INTERRES
    63   32   33 am   BACKBONE|DICT|INTERRES
    64   32   59 1    
    65   33   34 2    
@<TRIPOS>SUBSTRUCTURE
     1 UNK         1 GROUP             0       ****    0 ROOT    
