CHEMBL452829_80
                    3D
 Schrodinger Suite 2024-2.
 53 58  0  0  1  0            999 V2000
   -0.1863   52.9383   30.4731 C   0  0  0  0  0  0
    0.0294   51.9524   29.5248 C   0  0  0  0  0  0
    0.8927   52.1837   28.4605 C   0  0  0  0  0  0
    1.5450   53.4263   28.3209 C   0  0  0  0  0  0
    1.2359   54.4494   29.2430 C   0  0  0  0  0  0
    0.3987   54.1900   30.3275 C   0  0  0  0  0  0
    1.8302   56.0689   29.0591 Cl  0  0  0  0  0  0
    2.5267   53.6498   27.2184 C   0  0  0  0  0  0
    2.0883   53.5360   25.8958 C   0  0  0  0  0  0
    3.0029   53.7699   24.8583 C   0  0  0  0  0  0
    4.3568   54.1180   25.1056 C   0  0  0  0  0  0
    4.9826   54.3183   23.8496 C   0  0  0  0  0  0
    6.2839   54.6949   23.4493 C   0  0  0  0  0  0
    6.5492   54.8966   22.0945 C   0  0  0  0  0  0
    5.5619   54.6836   21.1398 C   0  0  0  0  0  0
    4.2782   54.2688   21.4855 C   0  0  0  0  0  0
    3.9941   54.0970   22.8479 C   0  0  0  0  0  0
    2.8124   53.7462   23.4898 N   0  0  0  0  0  0
    1.5341   53.4340   22.8541 C   0  0  0  0  0  0
    1.3896   51.9541   22.4320 C   0  0  0  0  0  0
    2.3530   51.4827   21.3128 C   0  0  0  0  0  0
    1.9185   50.2507   20.6552 N   0  0  0  0  0  0
    1.0448   49.2893   21.1012 C   0  0  0  0  0  0
    0.9662   48.3510   20.0823 C   0  0  0  0  0  0
    1.7527   48.6583   19.0702 N   0  0  0  0  0  0
    2.3231   49.7844   19.4267 C   0  0  0  0  0  0
    7.7957   55.2982   21.6818 O   0  0  0  0  0  0
    4.7656   54.2050   26.4503 C   0  0  0  0  0  0
    3.8704   53.9659   27.4649 C   0  0  0  0  0  0
    4.6167   54.1201   28.7484 C   0  0  0  0  0  0
    4.2044   53.9866   29.8983 O   0  0  0  0  0  0
    5.8661   54.4724   28.3991 N   0  0  0  0  0  0
    6.0629   54.5590   27.0737 C   0  0  0  0  0  0
    7.1042   54.8951   26.5279 O   0  0  0  0  0  0
    1.1038   50.8913   27.3354 Cl  0  0  0  0  0  0
   -0.8664   52.7377   31.2829 H   0  0  0  0  0  0
   -0.4743   50.9994   29.6225 H   0  0  0  0  0  0
    0.1819   54.9691   31.0439 H   0  0  0  0  0  0
    1.0589   53.2834   25.6909 H   0  0  0  0  0  0
    7.0680   54.8669   24.1655 H   0  0  0  0  0  0
    5.7960   54.8433   20.0970 H   0  0  0  0  0  0
    3.5291   54.1346   20.7195 H   0  0  0  0  0  0
    1.4295   54.0970   22.0096 H   0  0  0  0  0  0
    0.7222   53.7186   23.5232 H   0  0  0  0  0  0
    0.3606   51.8216   22.0934 H   0  0  0  0  0  0
    1.5006   51.3106   23.3075 H   0  0  0  0  0  0
    3.3666   51.3408   21.6912 H   0  0  0  0  0  0
    2.4042   52.2401   20.5301 H   0  0  0  0  0  0
    0.5648   49.3583   22.0660 H   0  0  0  0  0  0
    0.3626   47.4548   20.0782 H   0  0  0  0  0  0
    3.0490   50.3344   18.8416 H   0  0  0  0  0  0
    8.4526   55.2966   22.3919 H   0  0  0  0  0  0
    6.5845   54.7071   29.0700 H   0  0  0  0  0  0
  1  6  2  0  0  0
  1  2  1  0  0  0
  1 36  1  0  0  0
  2  3  2  0  0  0
  2 37  1  0  0  0
  3  4  1  0  0  0
  3 35  1  0  0  0
  4  5  2  0  0  0
  4  8  1  0  0  0
  5  6  1  0  0  0
  5  7  1  0  0  0
  6 38  1  0  0  0
  8 29  2  0  0  0
  8  9  1  0  0  0
  9 10  2  0  0  0
  9 39  1  0  0  0
 10 18  1  0  0  0
 10 11  1  0  0  0
 11 12  1  0  0  0
 11 28  2  0  0  0
 12 17  2  0  0  0
 12 13  1  0  0  0
 13 14  2  0  0  0
 13 40  1  0  0  0
 14 15  1  0  0  0
 14 27  1  0  0  0
 15 16  2  0  0  0
 15 41  1  0  0  0
 16 17  1  0  0  0
 16 42  1  0  0  0
 17 18  1  0  0  0
 18 19  1  0  0  0
 19 20  1  0  0  0
 19 43  1  0  0  0
 19 44  1  0  0  0
 20 21  1  0  0  0
 20 45  1  0  0  0
 20 46  1  0  0  0
 21 22  1  0  0  0
 21 47  1  0  0  0
 21 48  1  0  0  0
 22 26  1  0  0  0
 22 23  1  0  0  0
 23 24  2  0  0  0
 23 49  1  0  0  0
 24 25  1  0  0  0
 24 50  1  0  0  0
 25 26  2  0  0  0
 26 51  1  0  0  0
 27 52  1  0  0  0
 28 33  1  0  0  0
 28 29  1  0  0  0
 29 30  1  0  0  0
 30 31  2  0  0  0
 30 32  1  0  0  0
 32 33  1  0  0  0
 32 53  1  0  0  0
 33 34  2  0  0  0
M  END
> <i_i_glide_confnum>
51

> <i_i_glide_lignum>
81

> <i_i_glide_posenum>
7

> <i_i_glide_rotatable_bonds>
6

> <i_m_Source_File_Index>
113

> <b_m_subgroup_collapsed>
0

> <r_i_docking_score>
-11.5014

> <r_i_glide_ecoul>
-13.3136

> <r_i_glide_eff_state_penalty>
0

> <r_i_glide_einternal>
2.55514

> <r_i_glide_emodel>
-114.304

> <r_i_glide_energy>
-68.4728

> <r_i_glide_erotb>
0.224245

> <r_i_glide_esite>
-0.0728686

> <r_i_glide_evdw>
-55.1592

> <r_i_glide_gscore>
-11.5014

> <r_i_glide_hbond>
-0.906982

> <r_i_glide_ligand_efficiency>
-0.328611

> <r_i_glide_ligand_efficiency_ln>
-2.52481

> <r_i_glide_ligand_efficiency_sa>
-1.07491

> <r_i_glide_lipo>
-3.99613

> <r_i_glide_metal>
0

> <r_i_glide_rewards>
-1.99465

> <s_i_glide_gridfile>
wee1_glide-grid

> <s_m_Source_File>
wee1_actives_glide_SP.sdf

> <s_m_Source_Path>
/Users/zhangxujun/Desktop

> <s_m_entry_id>
251

> <s_m_entry_name>
wee1_actives_glide_SP.113

> <s_m_subgroup_title>
wee1_actives_glide_SP

> <s_m_subgroupid>
wee1_actives_glide_SP


$$$$
