@<TRIPOS>MOLECULE
CHEMBL255427_136
63   68    1
SMALL
USER_CHARGES


@<TRIPOS>ATOM
      1 C1          1.3144   53.7001   23.1130 C.3       1 UNK         0.0000 
      2 N2          2.6118   53.9765   23.7175 N.pl3     1 UNK         0.0000 
      3 C3          2.8723   53.9381   25.0699 C.ar      1 UNK         0.0000 
      4 C4          2.0013   53.6955   26.1373 C.ar      1 UNK         0.0000 
      5 C5          2.4962   53.7900   27.4406 C.ar      1 UNK         0.0000 
      6 C6          3.8581   54.0666   27.6320 C.ar      1 UNK         0.0000 
      7 C7          4.7223   54.2732   26.5831 C.ar      1 UNK         0.0000 
      8 C8          4.2498   54.2247   25.2609 C.ar      1 UNK         0.0000 
      9 C9          4.8263   54.4138   23.9836 C.ar      1 UNK         0.0000 
     10 C10         3.7766   54.2888   23.0415 C.ar      1 UNK         0.0000 
     11 C11         3.9858   54.4901   21.6822 C.ar      1 UNK         0.0000 
     12 C12         5.2846   54.7277   21.2239 C.ar      1 UNK         0.0000 
     13 C13         6.3262   54.8972   22.1456 C.ar      1 UNK         0.0000 
     14 C14         6.1206   54.7183   23.5163 C.ar      1 UNK         0.0000 
     15 O15         7.5686   55.2963   21.7148 O.3       1 UNK         0.0000 
     16 O16         5.5774   54.8229   19.8726 O.3       1 UNK         0.0000 
     17 C17         4.5928   54.5338   18.8681 C.3       1 UNK         0.0000 
     18 C18         4.2925   53.0302   18.6319 C.3       1 UNK         0.0000 
     19 C19         3.4174   52.3232   19.6905 C.3       1 UNK         0.0000 
     20 N20         3.1044   50.8780   19.2799 N.4       1 UNK         0.0000 
     21 C21         2.1209   50.7330   18.1019 C.3       1 UNK         0.0000 
     22 C22         1.5260   49.3284   18.2513 C.3       1 UNK         0.0000 
     23 C23         1.9368   48.8071   19.6326 C.3       1 UNK         0.0000 
     24 C24         2.4980   50.0065   20.3921 C.3       1 UNK         0.0000 
     25 C25         6.0618   54.5623   27.1499 C.2       1 UNK         0.0000 
     26 O26         7.1044   54.8341   26.5658 O.2       1 UNK         0.0000 
     27 N27         5.9043   54.4966   28.4811 N.am      1 UNK         0.0000 
     28 C28         4.6595   54.2038   28.8816 C.2       1 UNK         0.0000 
     29 O29         4.2956   54.0969   30.0503 O.2       1 UNK         0.0000 
     30 C30         1.5514   53.6230   28.5810 C.ar      1 UNK         0.0000 
     31 C31         1.4476   54.6422   29.5389 C.ar      1 UNK         0.0000 
     32 C32         0.6402   54.4917   30.6605 C.ar      1 UNK         0.0000 
     33 C33        -0.0955   53.3234   30.8258 C.ar      1 UNK         0.0000 
     34 C34        -0.0633   52.3290   29.8561 C.ar      1 UNK         0.0000 
     35 C35         0.7474   52.4758   28.7333 C.ar      1 UNK         0.0000 
     36 Cl36        0.7223   51.2136   27.5543 Cl        1 UNK         0.0000 
     37 H37         0.5304   54.2025   23.6809 H         1 UNK         0.0000 
     38 H38         1.2808   54.0547   22.0841 H         1 UNK         0.0000 
     39 H39         1.1375   52.6238   23.1255 H         1 UNK         0.0000 
     40 H40         0.9603   53.4759   25.9625 H         1 UNK         0.0000 
     41 H41         3.1500   54.4659   21.0123 H         1 UNK         0.0000 
     42 H42         6.9456   54.8522   24.1946 H         1 UNK         0.0000 
     43 H43         8.2350   55.3102   22.4127 H         1 UNK         0.0000 
     44 H44         5.0119   54.9306   17.9422 H         1 UNK         0.0000 
     45 H45         3.6801   55.1123   19.0158 H         1 UNK         0.0000 
     46 H46         5.2394   52.4989   18.5336 H         1 UNK         0.0000 
     47 H47         3.8068   52.9415   17.6608 H         1 UNK         0.0000 
     48 H48         2.4481   52.7999   19.8544 H         1 UNK         0.0000 
     49 H49         3.9555   52.1921   20.6293 H         1 UNK         0.0000 
     50 H50         2.6853   50.8968   17.1809 H         1 UNK         0.0000 
     51 H51         1.3649   51.5105   18.2169 H         1 UNK         0.0000 
     52 H52         1.8983   48.6739   17.4612 H         1 UNK         0.0000 
     53 H53         0.4407   49.3674   18.1513 H         1 UNK         0.0000 
     54 H54         1.0983   48.3554   20.1628 H         1 UNK         0.0000 
     55 H55         2.7065   48.0409   19.5355 H         1 UNK         0.0000 
     56 H56         1.7227   50.6121   20.8643 H         1 UNK         0.0000 
     57 H57         3.2659   49.7839   21.1336 H         1 UNK         0.0000 
     58 H58         6.6558   54.7097   29.1226 H         1 UNK         0.0000 
     59 H59         2.0264   55.5492   29.4321 H         1 UNK         0.0000 
     60 H60         0.5976   55.2743   31.4043 H         1 UNK         0.0000 
     61 H61        -0.7151   53.1922   31.6962 H         1 UNK         0.0000 
     62 H62        -0.6659   51.4391   29.9849 H         1 UNK         0.0000 
     63 H63         4.0036   50.4966   18.9544 H         1 UNK         0.0000 
@<TRIPOS>BOND
     1    1    2 1    
     2    1   37 1    
     3    1   38 1    
     4    1   39 1    
     5    2   10 ar   
     6    2    3 ar   
     7    3    8 ar   
     8    3    4 ar   
     9    4    5 ar   
    10    4   40 1    
    11    5    6 ar   
    12    5   30 1    
    13    6   28 1    
    14    6    7 ar   
    15    7    8 ar   
    16    7   25 1    
    17    8    9 ar   
    18    9   14 ar   
    19    9   10 ar   
    20   10   11 ar   
    21   11   12 ar   
    22   11   41 1    
    23   12   13 ar   
    24   12   16 1    
    25   13   14 ar   
    26   13   15 1    
    27   14   42 1    
    28   15   43 1    
    29   16   17 1    
    30   17   18 1    
    31   17   44 1    
    32   17   45 1    
    33   18   19 1    
    34   18   46 1    
    35   18   47 1    
    36   19   20 1    
    37   19   48 1    
    38   19   49 1    
    39   20   24 1    
    40   20   21 1    
    41   20   63 1    
    42   21   22 1    
    43   21   50 1    
    44   21   51 1    
    45   22   23 1    
    46   22   52 1    
    47   22   53 1    
    48   23   24 1    
    49   23   54 1    
    50   23   55 1    
    51   24   56 1    
    52   24   57 1    
    53   25   26 2    
    54   25   27 am   BACKBONE|DICT|INTERRES
    55   27   28 am   BACKBONE|DICT|INTERRES
    56   27   58 1    
    57   28   29 2    
    58   30   35 ar   
    59   30   31 ar   
    60   31   32 ar   
    61   31   59 1    
    62   32   33 ar   
    63   32   60 1    
    64   33   34 ar   
    65   33   61 1    
    66   34   35 ar   
    67   34   62 1    
    68   35   36 1    
@<TRIPOS>SUBSTRUCTURE
     1 UNK         1 GROUP             0       ****    0 ROOT    
