@<TRIPOS>MOLECULE
CHEMBL483800_84
48   52    1
SMALL
USER_CHARGES


@<TRIPOS>ATOM
      1 C1         -1.6958   47.8337   23.7368 C.ar      1 UNK         0.0000 
      2 C2         -1.3167   48.3054   22.4810 C.ar      1 UNK         0.0000 
      3 C3         -0.2575   49.2049   22.3715 C.ar      1 UNK         0.0000 
      4 C4          0.4195   49.6323   23.5200 C.ar      1 UNK         0.0000 
      5 C5          0.0255   49.1614   24.7732 C.ar      1 UNK         0.0000 
      6 C6         -1.0278   48.2569   24.8836 C.ar      1 UNK         0.0000 
      7 N7          1.4989   50.5282   23.4817 N.pl3     1 UNK         0.0000 
      8 C8          2.1362   50.9704   22.2462 C.3       1 UNK         0.0000 
      9 C9          1.5675   52.2854   21.6868 C.3       1 UNK         0.0000 
     10 C10         1.5659   53.5045   22.6432 C.3       1 UNK         0.0000 
     11 N11         2.8369   53.7381   23.3420 N.pl3     1 UNK         0.0000 
     12 C12         4.0333   54.0973   22.7364 C.ar      1 UNK         0.0000 
     13 C13         4.3478   54.2899   21.3825 C.ar      1 UNK         0.0000 
     14 C14         5.6408   54.7039   21.0743 C.ar      1 UNK         0.0000 
     15 C15         6.6059   54.9004   22.0563 C.ar      1 UNK         0.0000 
     16 C16         6.3051   54.6927   23.4012 C.ar      1 UNK         0.0000 
     17 C17         4.9979   54.3077   23.7618 C.ar      1 UNK         0.0000 
     18 C18         4.3511   54.0954   25.0022 C.ar      1 UNK         0.0000 
     19 C19         3.0061   53.6994   24.7208 C.ar      1 UNK         0.0000 
     20 C20         2.0917   53.3933   25.7489 C.ar      1 UNK         0.0000 
     21 C21         2.5304   53.5147   27.0665 C.ar      1 UNK         0.0000 
     22 C22         3.8331   53.9092   27.3437 C.ar      1 UNK         0.0000 
     23 C23         4.7428   54.1844   26.3554 C.ar      1 UNK         0.0000 
     24 C24         6.0218   54.5536   27.0236 C.2       1 UNK         0.0000 
     25 O25         7.0951   54.8750   26.5229 O.2       1 UNK         0.0000 
     26 N26         5.7602   54.4948   28.3442 N.am      1 UNK         0.0000 
     27 C27         4.4999   54.1334   28.6518 C.2       1 UNK         0.0000 
     28 O28         4.0164   54.0389   29.7779 O.2       1 UNK         0.0000 
     29 O29         7.8650   55.2980   21.6817 O.3       1 UNK         0.0000 
     30 H30        -2.5154   47.1395   23.8250 H         1 UNK         0.0000 
     31 H31        -1.8403   47.9758   21.5973 H         1 UNK         0.0000 
     32 H32         0.0215   49.5623   21.3921 H         1 UNK         0.0000 
     33 H33         0.5432   49.4768   25.6673 H         1 UNK         0.0000 
     34 H34        -1.3145   47.8938   25.8607 H         1 UNK         0.0000 
     35 H35         1.7677   50.9844   24.3414 H         1 UNK         0.0000 
     36 H36         3.1898   51.1112   22.4795 H         1 UNK         0.0000 
     37 H37         2.1184   50.1870   21.4872 H         1 UNK         0.0000 
     38 H38         2.1033   52.5330   20.7706 H         1 UNK         0.0000 
     39 H39         0.5401   52.1096   21.3650 H         1 UNK         0.0000 
     40 H40         1.3414   54.4128   22.0882 H         1 UNK         0.0000 
     41 H41         0.7685   53.3912   23.3755 H         1 UNK         0.0000 
     42 H42         3.6168   54.1622   20.5981 H         1 UNK         0.0000 
     43 H43         5.9022   54.8714   20.0400 H         1 UNK         0.0000 
     44 H44         7.0678   54.8594   24.1403 H         1 UNK         0.0000 
     45 H45         1.0725   53.0980   25.5470 H         1 UNK         0.0000 
     46 H46         1.8395   53.3058   27.8725 H         1 UNK         0.0000 
     47 H47         6.4483   54.7524   29.0394 H         1 UNK         0.0000 
     48 H48         8.5026   55.2964   22.4097 H         1 UNK         0.0000 
@<TRIPOS>BOND
     1    1    6 ar   
     2    1    2 ar   
     3    1   30 1    
     4    2    3 ar   
     5    2   31 1    
     6    3    4 ar   
     7    3   32 1    
     8    4    5 ar   
     9    4    7 1    
    10    5    6 ar   
    11    5   33 1    
    12    6   34 1    
    13    7    8 1    
    14    7   35 1    
    15    8    9 1    
    16    8   36 1    
    17    8   37 1    
    18    9   10 1    
    19    9   38 1    
    20    9   39 1    
    21   10   11 1    
    22   10   40 1    
    23   10   41 1    
    24   11   19 ar   
    25   11   12 ar   
    26   12   17 ar   
    27   12   13 ar   
    28   13   14 ar   
    29   13   42 1    
    30   14   15 ar   
    31   14   43 1    
    32   15   16 ar   
    33   15   29 1    
    34   16   17 ar   
    35   16   44 1    
    36   17   18 ar   
    37   18   23 ar   
    38   18   19 ar   
    39   19   20 ar   
    40   20   21 ar   
    41   20   45 1    
    42   21   22 ar   
    43   21   46 1    
    44   22   27 1    
    45   22   23 ar   
    46   23   24 1    
    47   24   25 2    
    48   24   26 am   BACKBONE|DICT|INTERRES
    49   26   27 am   BACKBONE|DICT|INTERRES
    50   26   47 1    
    51   27   28 2    
    52   29   48 1    
@<TRIPOS>SUBSTRUCTURE
     1 UNK         1 GROUP             0       ****    0 ROOT    
