@<TRIPOS>MOLECULE
CHEMBL379346_64
47   52    1
SMALL
USER_CHARGES


@<TRIPOS>ATOM
      1 C1         -0.8222   50.0328   25.0905 C.ar      1 UNK         0.0000 
      2 C2          0.3040   49.6962   25.8363 C.ar      1 UNK         0.0000 
      3 C3          0.7044   50.5235   26.8817 C.ar      1 UNK         0.0000 
      4 C4          0.0023   51.6880   27.1803 C.ar      1 UNK         0.0000 
      5 C5         -1.1405   52.0039   26.4361 C.ar      1 UNK         0.0000 
      6 C6         -1.5500   51.1826   25.3882 C.ar      1 UNK         0.0000 
      7 C7          0.4173   52.5742   28.2977 C.ar      1 UNK         0.0000 
      8 C8         -0.2903   52.4258   29.4972 C.ar      1 UNK         0.0000 
      9 C9         -0.0953   53.2984   30.5609 C.ar      1 UNK         0.0000 
     10 C10         0.7586   54.3807   30.4118 C.ar      1 UNK         0.0000 
     11 C11         1.4961   54.5173   29.2396 C.ar      1 UNK         0.0000 
     12 C12         1.4244   53.5741   28.1987 C.ar      1 UNK         0.0000 
     13 C13         2.4045   53.6984   27.0541 C.ar      1 UNK         0.0000 
     14 C14         1.9441   53.5999   25.7295 C.ar      1 UNK         0.0000 
     15 C15         2.8485   53.7836   24.6776 C.ar      1 UNK         0.0000 
     16 C16         4.2133   54.1069   24.8906 C.ar      1 UNK         0.0000 
     17 C17         4.8065   54.2975   23.6169 C.ar      1 UNK         0.0000 
     18 C18         6.0839   54.6971   23.1752 C.ar      1 UNK         0.0000 
     19 C19         6.3043   54.8632   21.8090 C.ar      1 UNK         0.0000 
     20 C20         5.3218   54.5398   20.8784 C.ar      1 UNK         0.0000 
     21 C21         4.0601   54.0969   21.2698 C.ar      1 UNK         0.0000 
     22 C22         3.8082   54.0221   22.6427 C.ar      1 UNK         0.0000 
     23 N23         2.6470   53.7139   23.3156 N.pl3     1 UNK         0.0000 
     24 H24         1.7707   53.4885   22.8681 H         1 UNK         0.0000 
     25 O25         7.5172   55.3193   21.3704 O.3       1 UNK         0.0000 
     26 C26         4.6618   54.1854   26.2210 C.ar      1 UNK         0.0000 
     27 C27         3.7827   53.9603   27.2610 C.ar      1 UNK         0.0000 
     28 C28         4.6032   54.0510   28.5137 C.2       1 UNK         0.0000 
     29 O29         4.2680   53.8704   29.6816 O.2       1 UNK         0.0000 
     30 N30         5.8431   54.3918   28.1254 N.am      1 UNK         0.0000 
     31 C31         5.9997   54.4968   26.7990 C.2       1 UNK         0.0000 
     32 O32         7.0478   54.7984   26.2340 O.2       1 UNK         0.0000 
     33 H33        -1.1408   49.3882   24.2848 H         1 UNK         0.0000 
     34 H34         0.8551   48.7920   25.6184 H         1 UNK         0.0000 
     35 H35         1.5707   50.2574   27.4672 H         1 UNK         0.0000 
     36 H36        -1.7085   52.8927   26.6691 H         1 UNK         0.0000 
     37 H37        -2.4316   51.4301   24.8155 H         1 UNK         0.0000 
     38 H38        -1.0147   51.6286   29.6023 H         1 UNK         0.0000 
     39 H39        -0.6340   53.1558   31.4866 H         1 UNK         0.0000 
     40 H40         0.8725   55.0960   31.2134 H         1 UNK         0.0000 
     41 H41         2.1777   55.3521   29.1677 H         1 UNK         0.0000 
     42 H42         0.9075   53.4091   25.5097 H         1 UNK         0.0000 
     43 H43         6.8802   54.9312   23.8616 H         1 UNK         0.0000 
     44 H44         5.5274   54.6437   19.8228 H         1 UNK         0.0000 
     45 H45         3.3013   53.8696   20.5347 H         1 UNK         0.0000 
     46 H46         7.6058   55.2961   20.4148 H         1 UNK         0.0000 
     47 H47         6.5908   54.5795   28.7777 H         1 UNK         0.0000 
@<TRIPOS>BOND
     1    1    6 ar   
     2    1    2 ar   
     3    1   33 1    
     4    2    3 ar   
     5    2   34 1    
     6    3    4 ar   
     7    3   35 1    
     8    4    5 ar   
     9    4    7 1    
    10    5    6 ar   
    11    5   36 1    
    12    6   37 1    
    13    7   12 ar   
    14    7    8 ar   
    15    8    9 ar   
    16    8   38 1    
    17    9   10 ar   
    18    9   39 1    
    19   10   11 ar   
    20   10   40 1    
    21   11   12 ar   
    22   11   41 1    
    23   12   13 1    
    24   13   27 ar   
    25   13   14 ar   
    26   14   15 ar   
    27   14   42 1    
    28   15   23 ar   
    29   15   16 ar   
    30   16   17 ar   
    31   16   26 ar   
    32   17   22 ar   
    33   17   18 ar   
    34   18   19 ar   
    35   18   43 1    
    36   19   20 ar   
    37   19   25 1    
    38   20   21 ar   
    39   20   44 1    
    40   21   22 ar   
    41   21   45 1    
    42   22   23 ar   
    43   23   24 1    
    44   25   46 1    
    45   26   31 1    
    46   26   27 ar   
    47   27   28 1    
    48   28   29 2    
    49   28   30 am   BACKBONE|DICT|INTERRES
    50   30   31 am   BACKBONE|DICT|INTERRES
    51   30   47 1    
    52   31   32 2    
@<TRIPOS>SUBSTRUCTURE
     1 UNK         1 GROUP             0       ****    0 ROOT    
