@<TRIPOS>MOLECULE
CHEMBL530112_122
55   60    1
SMALL
USER_CHARGES


@<TRIPOS>ATOM
      1 C1          0.0900   51.8672   29.4922 C.ar      1 UNK         0.0000 
      2 C2         -0.1639   52.8176   30.4731 C.ar      1 UNK         0.0000 
      3 C3          0.4010   54.0862   30.3846 C.ar      1 UNK         0.0000 
      4 C4          1.2529   54.4008   29.3254 C.ar      1 UNK         0.0000 
      5 C5          1.5794   53.4187   28.3663 C.ar      1 UNK         0.0000 
      6 C6          0.9703   52.1604   28.4566 C.ar      1 UNK         0.0000 
      7 C7          2.5429   53.6564   27.2582 C.ar      1 UNK         0.0000 
      8 C8          2.0887   53.5312   25.9402 C.ar      1 UNK         0.0000 
      9 C9          2.9899   53.7762   24.8921 C.ar      1 UNK         0.0000 
     10 C10         4.3493   54.1155   25.1278 C.ar      1 UNK         0.0000 
     11 C11         4.9680   54.3211   23.8686 C.ar      1 UNK         0.0000 
     12 C12         6.2647   54.7023   23.4581 C.ar      1 UNK         0.0000 
     13 C13         6.5220   54.8967   22.1009 C.ar      1 UNK         0.0000 
     14 C14         5.5347   54.6562   21.1518 C.ar      1 UNK         0.0000 
     15 C15         4.2552   54.2343   21.5076 C.ar      1 UNK         0.0000 
     16 C16         3.9760   54.0966   22.8749 C.ar      1 UNK         0.0000 
     17 N17         2.7890   53.7831   23.5228 N.pl3     1 UNK         0.0000 
     18 C18         1.5132   53.5411   22.8579 C.3       1 UNK         0.0000 
     19 C19         1.3960   52.1178   22.2720 C.3       1 UNK         0.0000 
     20 C20         1.1793   51.0008   23.3253 C.3       1 UNK         0.0000 
     21 C21         0.5564   49.7177   22.7362 C.2       1 UNK         0.0000 
     22 O22         0.7106   49.4149   21.5511 O.2       1 UNK         0.0000 
     23 N23        -0.2466   48.9098   23.5926 N.pl3     1 UNK         0.0000 
     24 C24        -0.3746   48.9479   24.9608 C.ar      1 UNK         0.0000 
     25 C25        -1.2916   47.9579   25.2817 C.ar      1 UNK         0.0000 
     26 N26        -1.7269   47.3185   24.2127 N.2       1 UNK         0.0000 
     27 C27        -1.1035   47.8979   23.2151 C.ar      1 UNK         0.0000 
     28 O28         7.7650   55.2982   21.6818 O.3       1 UNK         0.0000 
     29 C29         4.7711   54.2040   26.4676 C.ar      1 UNK         0.0000 
     30 C30         3.8873   53.9710   27.4913 C.ar      1 UNK         0.0000 
     31 C31         4.6474   54.1206   28.7669 C.2       1 UNK         0.0000 
     32 O32         4.2493   53.9828   29.9212 O.2       1 UNK         0.0000 
     33 N33         5.8931   54.4726   28.4045 N.am      1 UNK         0.0000 
     34 C34         6.0729   54.5588   27.0771 C.2       1 UNK         0.0000 
     35 O35         7.1044   54.8963   26.5181 O.2       1 UNK         0.0000 
     36 Cl36        1.8580   56.0229   29.2371 Cl        1 UNK         0.0000 
     37 H37        -0.3836   50.8967   29.5458 H         1 UNK         0.0000 
     38 H38        -0.8350   52.5738   31.2817 H         1 UNK         0.0000 
     39 H39         0.1688   54.8286   31.1344 H         1 UNK         0.0000 
     40 H40         1.1848   51.3951   27.7243 H         1 UNK         0.0000 
     41 H41         1.0566   53.2816   25.7476 H         1 UNK         0.0000 
     42 H42         7.0534   54.8822   24.1669 H         1 UNK         0.0000 
     43 H43         5.7671   54.7959   20.1064 H         1 UNK         0.0000 
     44 H44         3.5044   54.0660   20.7489 H         1 UNK         0.0000 
     45 H45         1.4130   54.2922   22.0817 H         1 UNK         0.0000 
     46 H46         0.6985   53.7466   23.5525 H         1 UNK         0.0000 
     47 H47         2.2710   51.8902   21.6591 H         1 UNK         0.0000 
     48 H48         0.5557   52.1330   21.5741 H         1 UNK         0.0000 
     49 H49         0.5060   51.3831   24.0926 H         1 UNK         0.0000 
     50 H50         2.1191   50.7487   23.8159 H         1 UNK         0.0000 
     51 H51         0.1861   49.6324   25.5807 H         1 UNK         0.0000 
     52 H52        -1.6188   47.6969   26.2794 H         1 UNK         0.0000 
     53 H53        -1.2119   47.6450   22.1697 H         1 UNK         0.0000 
     54 H54         8.4266   55.2987   22.3875 H         1 UNK         0.0000 
     55 H55         6.6174   54.7093   29.0675 H         1 UNK         0.0000 
@<TRIPOS>BOND
     1    1    6 ar   
     2    1    2 ar   
     3    1   37 1    
     4    2    3 ar   
     5    2   38 1    
     6    3    4 ar   
     7    3   39 1    
     8    4    5 ar   
     9    4   36 1    
    10    5    6 ar   
    11    5    7 1    
    12    6   40 1    
    13    7   30 ar   
    14    7    8 ar   
    15    8    9 ar   
    16    8   41 1    
    17    9   17 ar   
    18    9   10 ar   
    19   10   11 ar   
    20   10   29 ar   
    21   11   16 ar   
    22   11   12 ar   
    23   12   13 ar   
    24   12   42 1    
    25   13   14 ar   
    26   13   28 1    
    27   14   15 ar   
    28   14   43 1    
    29   15   16 ar   
    30   15   44 1    
    31   16   17 ar   
    32   17   18 1    
    33   18   19 1    
    34   18   45 1    
    35   18   46 1    
    36   19   20 1    
    37   19   47 1    
    38   19   48 1    
    39   20   21 1    
    40   20   49 1    
    41   20   50 1    
    42   21   22 2    
    43   21   23 1    
    44   23   27 ar   
    45   23   24 ar   
    46   24   25 ar   
    47   24   51 1    
    48   25   26 ar   
    49   25   52 1    
    50   26   27 ar   
    51   27   53 1    
    52   28   54 1    
    53   29   34 1    
    54   29   30 ar   
    55   30   31 1    
    56   31   32 2    
    57   31   33 am   BACKBONE|DICT|INTERRES
    58   33   34 am   BACKBONE|DICT|INTERRES
    59   33   55 1    
    60   34   35 2    
@<TRIPOS>SUBSTRUCTURE
     1 UNK         1 GROUP             0       ****    0 ROOT    
