CHEMBL521200_63
                    3D
 Schrodinger Suite 2024-2.
 50 55  0  0  1  0            999 V2000
    0.0900   51.8676   29.3582 C   0  0  0  0  0  0
   -0.2007   52.8348   30.3116 C   0  0  0  0  0  0
    0.3079   54.1217   30.1720 C   0  0  0  0  0  0
    1.1487   54.4338   29.1014 C   0  0  0  0  0  0
    1.5253   53.4312   28.1838 C   0  0  0  0  0  0
    0.9612   52.1562   28.3130 C   0  0  0  0  0  0
    2.5127   53.6692   27.0967 C   0  0  0  0  0  0
    2.1031   53.5219   25.7655 C   0  0  0  0  0  0
    3.0348   53.7749   24.7448 C   0  0  0  0  0  0
    4.3762   54.1549   25.0238 C   0  0  0  0  0  0
    5.0293   54.3605   23.7837 C   0  0  0  0  0  0
    6.3329   54.7511   23.4146 C   0  0  0  0  0  0
    6.6447   54.9062   22.0644 C   0  0  0  0  0  0
    5.6923   54.6546   21.0828 C   0  0  0  0  0  0
    4.4049   54.2252   21.3985 C   0  0  0  0  0  0
    4.0801   54.0968   22.7573 C   0  0  0  0  0  0
    2.8935   53.7141   23.3681 N   0  0  0  0  0  0
    1.6891   53.2617   22.6756 C   0  0  0  0  0  0
    1.6563   51.7252   22.5608 C   0  0  0  0  0  0
    3.0809   50.9090   21.7639 S   0  0  0  0  0  0
    2.2541   49.8387   20.6300 N   0  0  0  0  0  0
    2.4042   49.8330   19.2704 C   0  0  0  0  0  0
    1.5776   48.8148   18.8302 C   0  0  0  0  0  0
    0.9630   48.2528   19.8528 N   0  0  0  0  0  0
    1.3856   48.8967   21.0033 N   0  0  0  0  0  0
    7.9025   55.3025   21.6817 O   0  0  0  0  0  0
    4.7581   54.2418   26.3756 C   0  0  0  0  0  0
    3.8457   54.0002   27.3717 C   0  0  0  0  0  0
    4.5667   54.1540   28.6700 C   0  0  0  0  0  0
    4.1360   54.0206   29.8135 O   0  0  0  0  0  0
    5.8250   54.4967   28.3456 N   0  0  0  0  0  0
    6.0473   54.5810   27.0234 C   0  0  0  0  0  0
    7.1043   54.8967   26.4985 O   0  0  0  0  0  0
    1.6838   56.0744   28.9376 Cl  0  0  0  0  0  0
   -0.3508   50.8891   29.4447 H   0  0  0  0  0  0
   -0.8500   52.5925   31.1428 H   0  0  0  0  0  0
    0.0460   54.8822   30.8931 H   0  0  0  0  0  0
    1.2099   51.3743   27.6087 H   0  0  0  0  0  0
    1.0858   53.2379   25.5391 H   0  0  0  0  0  0
    7.0918   54.9542   24.1488 H   0  0  0  0  0  0
    5.9619   54.7783   20.0443 H   0  0  0  0  0  0
    3.6891   54.0226   20.6132 H   0  0  0  0  0  0
    1.6956   53.6969   21.6812 H   0  0  0  0  0  0
    0.8114   53.6519   23.1917 H   0  0  0  0  0  0
    0.7758   51.4890   21.9616 H   0  0  0  0  0  0
    1.4252   51.2618   23.5215 H   0  0  0  0  0  0
    3.0912   50.4979   18.7601 H   0  0  0  0  0  0
    1.4441   48.4889   17.8082 H   0  0  0  0  0  0
    8.5401   55.2993   22.4101 H   0  0  0  0  0  0
    6.5333   54.7239   29.0297 H   0  0  0  0  0  0
  1  6  2  0  0  0
  1  2  1  0  0  0
  1 35  1  0  0  0
  2  3  2  0  0  0
  2 36  1  0  0  0
  3  4  1  0  0  0
  3 37  1  0  0  0
  4  5  2  0  0  0
  4 34  1  0  0  0
  5  6  1  0  0  0
  5  7  1  0  0  0
  6 38  1  0  0  0
  7 28  2  0  0  0
  7  8  1  0  0  0
  8  9  2  0  0  0
  8 39  1  0  0  0
  9 17  1  0  0  0
  9 10  1  0  0  0
 10 11  1  0  0  0
 10 27  2  0  0  0
 11 16  2  0  0  0
 11 12  1  0  0  0
 12 13  2  0  0  0
 12 40  1  0  0  0
 13 14  1  0  0  0
 13 26  1  0  0  0
 14 15  2  0  0  0
 14 41  1  0  0  0
 15 16  1  0  0  0
 15 42  1  0  0  0
 16 17  1  0  0  0
 17 18  1  0  0  0
 18 19  1  0  0  0
 18 43  1  0  0  0
 18 44  1  0  0  0
 19 20  1  0  0  0
 19 45  1  0  0  0
 19 46  1  0  0  0
 20 21  1  0  0  0
 21 25  1  0  0  0
 21 22  1  0  0  0
 22 23  2  0  0  0
 22 47  1  0  0  0
 23 24  1  0  0  0
 23 48  1  0  0  0
 24 25  2  0  0  0
 26 49  1  0  0  0
 27 32  1  0  0  0
 27 28  1  0  0  0
 28 29  1  0  0  0
 29 30  2  0  0  0
 29 31  1  0  0  0
 31 32  1  0  0  0
 31 50  1  0  0  0
 32 33  2  0  0  0
M  END
> <i_i_glide_confnum>
8

> <i_i_glide_lignum>
64

> <i_i_glide_posenum>
387

> <i_i_glide_rotatable_bonds>
6

> <i_m_Source_File_Index>
18

> <b_m_subgroup_collapsed>
0

> <r_i_docking_score>
-11.6378

> <r_i_glide_ecoul>
-15.254

> <r_i_glide_eff_state_penalty>
0

> <r_i_glide_einternal>
2.75875

> <r_i_glide_emodel>
-118.12

> <r_i_glide_energy>
-70.0618

> <r_i_glide_erotb>
0.237346

> <r_i_glide_esite>
-0.018408

> <r_i_glide_evdw>
-54.8078

> <r_i_glide_gscore>
-11.6378

> <r_i_glide_hbond>
-0.891372

> <r_i_glide_ligand_efficiency>
-0.342288

> <r_i_glide_ligand_efficiency_ln>
-2.57111

> <r_i_glide_ligand_efficiency_sa>
-1.10888

> <r_i_glide_lipo>
-3.861

> <r_i_glide_metal>
0

> <r_i_glide_rewards>
-2.07587

> <s_i_glide_gridfile>
wee1_glide-grid

> <s_m_Source_File>
wee1_actives_glide_SP.sdf

> <s_m_Source_Path>
/Users/zhangxujun/Desktop

> <s_m_entry_id>
156

> <s_m_entry_name>
wee1_actives_glide_SP.18

> <s_m_subgroup_title>
wee1_actives_glide_SP

> <s_m_subgroupid>
wee1_actives_glide_SP


$$$$
