@<TRIPOS>MOLECULE
CHEMBL256480_15
60   65    1
SMALL
USER_CHARGES


@<TRIPOS>ATOM
      1 C1          0.1306   51.8759   29.4480 C.ar      1 UNK         0.0000 
      2 C2         -0.1044   52.8177   30.4435 C.ar      1 UNK         0.0000 
      3 C3          0.4332   54.0964   30.3356 C.ar      1 UNK         0.0000 
      4 C4          1.2455   54.4269   29.2505 C.ar      1 UNK         0.0000 
      5 C5          1.5615   53.4518   28.2801 C.ar      1 UNK         0.0000 
      6 C6          0.9706   52.1861   28.3833 C.ar      1 UNK         0.0000 
      7 C7          2.5219   53.6966   27.1691 C.ar      1 UNK         0.0000 
      8 C8          2.0831   53.5645   25.8421 C.ar      1 UNK         0.0000 
      9 C9          3.0031   53.8043   24.8111 C.ar      1 UNK         0.0000 
     10 C10         4.3563   54.1584   25.0631 C.ar      1 UNK         0.0000 
     11 C11         4.9918   54.3502   23.8098 C.ar      1 UNK         0.0000 
     12 C12         6.2891   54.7270   23.4088 C.ar      1 UNK         0.0000 
     13 C13         6.5612   54.8967   22.0515 C.ar      1 UNK         0.0000 
     14 C14         5.5878   54.6415   21.0748 C.ar      1 UNK         0.0000 
     15 C15         4.3036   54.2113   21.4475 C.ar      1 UNK         0.0000 
     16 C16         4.0207   54.0967   22.8089 C.ar      1 UNK         0.0000 
     17 N17         2.8427   53.7624   23.4427 N.pl3     1 UNK         0.0000 
     18 H18         1.9819   53.5358   22.9659 H         1 UNK         0.0000 
     19 O19         5.9478   54.8426   19.7534 O.3       1 UNK         0.0000 
     20 C20         5.1685   54.2441   18.7201 C.3       1 UNK         0.0000 
     21 C21         5.8248   54.5251   17.3596 C.3       1 UNK         0.0000 
     22 C22         5.8055   56.0073   16.9165 C.3       1 UNK         0.0000 
     23 N23         4.4648   56.6058   16.8445 N.3       1 UNK         0.0000 
     24 C24         3.5426   55.8799   15.9578 C.3       1 UNK         0.0000 
     25 C25         2.1726   56.5826   15.8535 C.3       1 UNK         0.0000 
     26 O26         2.3336   57.9325   15.4336 O.3       1 UNK         0.0000 
     27 C27         3.1725   58.6890   16.3030 C.3       1 UNK         0.0000 
     28 C28         4.5589   58.0264   16.4692 C.3       1 UNK         0.0000 
     29 O29         7.8245   55.2972   21.6817 O.3       1 UNK         0.0000 
     30 C30         4.7605   54.2471   26.4066 C.ar      1 UNK         0.0000 
     31 C31         3.8647   54.0126   27.4192 C.ar      1 UNK         0.0000 
     32 C32         4.6175   54.1469   28.7034 C.2       1 UNK         0.0000 
     33 O33         4.2151   53.9938   29.8546 O.2       1 UNK         0.0000 
     34 N34         5.8668   54.4959   28.3543 N.am      1 UNK         0.0000 
     35 C35         6.0600   54.5834   27.0297 C.2       1 UNK         0.0000 
     36 O36         7.1044   54.8967   26.4818 O.2       1 UNK         0.0000 
     37 Cl37        1.8305   56.0555   29.1541 Cl        1 UNK         0.0000 
     38 H38        -0.3218   50.8967   29.5148 H         1 UNK         0.0000 
     39 H39        -0.7351   52.5603   31.2817 H         1 UNK         0.0000 
     40 H40         0.2157   54.8338   31.0944 H         1 UNK         0.0000 
     41 H41         1.1780   51.4247   27.6443 H         1 UNK         0.0000 
     42 H42         1.0590   53.2968   25.6267 H         1 UNK         0.0000 
     43 H43         7.0669   54.9235   24.1255 H         1 UNK         0.0000 
     44 H44         3.5305   54.0206   20.7189 H         1 UNK         0.0000 
     45 H45         4.1481   54.6300   18.7205 H         1 UNK         0.0000 
     46 H46         5.1135   53.1651   18.8796 H         1 UNK         0.0000 
     47 H47         5.3903   53.8927   16.5856 H         1 UNK         0.0000 
     48 H48         6.8637   54.1983   17.4108 H         1 UNK         0.0000 
     49 H49         6.3058   56.1029   15.9509 H         1 UNK         0.0000 
     50 H50         6.3932   56.5828   17.6344 H         1 UNK         0.0000 
     51 H51         3.3935   54.8625   16.3189 H         1 UNK         0.0000 
     52 H52         3.9866   55.7865   14.9651 H         1 UNK         0.0000 
     53 H53         1.5294   56.0613   15.1446 H         1 UNK         0.0000 
     54 H54         1.6743   56.5535   16.8248 H         1 UNK         0.0000 
     55 H55         3.2743   59.6967   15.9015 H         1 UNK         0.0000 
     56 H56         2.7044   58.7799   17.2817 H         1 UNK         0.0000 
     57 H57         5.1153   58.1257   15.5355 H         1 UNK         0.0000 
     58 H58         5.1396   58.5677   17.2184 H         1 UNK         0.0000 
     59 H59         8.4579   55.2989   22.4118 H         1 UNK         0.0000 
     60 H60         6.5896   54.7170   29.0249 H         1 UNK         0.0000 
@<TRIPOS>BOND
     1    1    6 ar   
     2    1    2 ar   
     3    1   38 1    
     4    2    3 ar   
     5    2   39 1    
     6    3    4 ar   
     7    3   40 1    
     8    4    5 ar   
     9    4   37 1    
    10    5    6 ar   
    11    5    7 1    
    12    6   41 1    
    13    7   31 ar   
    14    7    8 ar   
    15    8    9 ar   
    16    8   42 1    
    17    9   17 ar   
    18    9   10 ar   
    19   10   11 ar   
    20   10   30 ar   
    21   11   16 ar   
    22   11   12 ar   
    23   12   13 ar   
    24   12   43 1    
    25   13   14 ar   
    26   13   29 1    
    27   14   15 ar   
    28   14   19 1    
    29   15   16 ar   
    30   15   44 1    
    31   16   17 ar   
    32   17   18 1    
    33   19   20 1    
    34   20   21 1    
    35   20   45 1    
    36   20   46 1    
    37   21   22 1    
    38   21   47 1    
    39   21   48 1    
    40   22   23 1    
    41   22   49 1    
    42   22   50 1    
    43   23   28 1    
    44   23   24 1    
    45   24   25 1    
    46   24   51 1    
    47   24   52 1    
    48   25   26 1    
    49   25   53 1    
    50   25   54 1    
    51   26   27 1    
    52   27   28 1    
    53   27   55 1    
    54   27   56 1    
    55   28   57 1    
    56   28   58 1    
    57   29   59 1    
    58   30   35 1    
    59   30   31 ar   
    60   31   32 1    
    61   32   33 2    
    62   32   34 am   BACKBONE|DICT|INTERRES
    63   34   35 am   BACKBONE|DICT|INTERRES
    64   34   60 1    
    65   35   36 2    
@<TRIPOS>SUBSTRUCTURE
     1 UNK         1 GROUP             0       ****    0 ROOT    
