CHEMBL214172_62
                    3D
 Schrodinger Suite 2024-2.
 36 40  0  0  1  0            999 V2000
    0.4877   53.8983   30.2197 C   0  0  0  0  0  0
    1.3453   54.2162   29.1652 C   0  0  0  0  0  0
    1.6237   53.2668   28.1712 C   0  0  0  0  0  0
    0.9794   52.0254   28.2706 C   0  0  0  0  0  0
    0.1336   51.7009   29.2812 N   0  0  0  0  0  0
   -0.0919   52.6286   30.2434 C   0  0  0  0  0  0
    2.5574   53.5550   27.0482 C   0  0  0  0  0  0
    2.0808   53.4176   25.7357 C   0  0  0  0  0  0
    2.9556   53.6969   24.6765 C   0  0  0  0  0  0
    4.3040   54.0976   24.8826 C   0  0  0  0  0  0
    4.8859   54.3048   23.6048 C   0  0  0  0  0  0
    6.1491   54.7380   23.1554 C   0  0  0  0  0  0
    6.3604   54.8967   21.7857 C   0  0  0  0  0  0
    5.3756   54.5614   20.8623 C   0  0  0  0  0  0
    4.1253   54.0966   21.2621 C   0  0  0  0  0  0
    3.8882   54.0021   22.6361 C   0  0  0  0  0  0
    2.7452   53.6419   23.3156 N   0  0  0  0  0  0
    1.8769   53.3805   22.8715 H   0  0  0  0  0  0
    7.5576   55.3815   21.3343 O   0  0  0  0  0  0
    4.7522   54.2037   26.2139 C   0  0  0  0  0  0
    3.8919   53.9395   27.2559 C   0  0  0  0  0  0
    4.6712   54.1322   28.5160 C   0  0  0  0  0  0
    4.3043   54.0128   29.6832 O   0  0  0  0  0  0
    5.9043   54.4969   28.1265 N   0  0  0  0  0  0
    6.0687   54.5717   26.7967 C   0  0  0  0  0  0
    7.1044   54.8966   26.2257 O   0  0  0  0  0  0
    0.2833   54.6141   31.0021 H   0  0  0  0  0  0
    1.8069   55.1930   29.1319 H   0  0  0  0  0  0
    1.1433   51.2492   27.5363 H   0  0  0  0  0  0
   -0.7518   52.3334   31.0488 H   0  0  0  0  0  0
    1.0589   53.1166   25.5508 H   0  0  0  0  0  0
    6.9429   54.9920   23.8393 H   0  0  0  0  0  0
    5.5691   54.6726   19.8054 H   0  0  0  0  0  0
    3.3648   53.8558   20.5320 H   0  0  0  0  0  0
    7.6547   55.3144   20.3821 H   0  0  0  0  0  0
    6.6365   54.7373   28.7810 H   0  0  0  0  0  0
  1  6  2  0  0  0
  1  2  1  0  0  0
  1 27  1  0  0  0
  2  3  2  0  0  0
  2 28  1  0  0  0
  3  4  1  0  0  0
  3  7  1  0  0  0
  4  5  2  0  0  0
  4 29  1  0  0  0
  5  6  1  0  0  0
  6 30  1  0  0  0
  7 21  2  0  0  0
  7  8  1  0  0  0
  8  9  2  0  0  0
  8 31  1  0  0  0
  9 17  1  0  0  0
  9 10  1  0  0  0
 10 11  1  0  0  0
 10 20  2  0  0  0
 11 16  2  0  0  0
 11 12  1  0  0  0
 12 13  2  0  0  0
 12 32  1  0  0  0
 13 14  1  0  0  0
 13 19  1  0  0  0
 14 15  2  0  0  0
 14 33  1  0  0  0
 15 16  1  0  0  0
 15 34  1  0  0  0
 16 17  1  0  0  0
 17 18  1  0  0  0
 19 35  1  0  0  0
 20 25  1  0  0  0
 20 21  1  0  0  0
 21 22  1  0  0  0
 22 23  2  0  0  0
 22 24  1  0  0  0
 24 25  1  0  0  0
 24 36  1  0  0  0
 25 26  2  0  0  0
M  END
> <i_i_glide_confnum>
1

> <i_i_glide_lignum>
63

> <i_i_glide_posenum>
130

> <i_i_glide_rotatable_bonds>
2

> <i_m_Source_File_Index>
43

> <b_m_subgroup_collapsed>
0

> <r_i_docking_score>
-9.99575

> <r_i_glide_ecoul>
-8.93025

> <r_i_glide_eff_state_penalty>
0

> <r_i_glide_einternal>
1.31734

> <r_i_glide_emodel>
-86.7

> <r_i_glide_energy>
-52.8832

> <r_i_glide_erotb>
0.121308

> <r_i_glide_esite>
0

> <r_i_glide_evdw>
-43.9529

> <r_i_glide_gscore>
-9.99575

> <r_i_glide_hbond>
-0.575894

> <r_i_glide_ligand_efficiency>
-0.39983

> <r_i_glide_ligand_efficiency_ln>
-2.36929

> <r_i_glide_ligand_efficiency_sa>
-1.16911

> <r_i_glide_lipo>
-3.12098

> <r_i_glide_metal>
0

> <r_i_glide_rewards>
-2.883

> <s_i_glide_gridfile>
wee1_glide-grid

> <s_m_Source_File>
wee1_actives_glide_SP.sdf

> <s_m_Source_Path>
/Users/zhangxujun/Desktop

> <s_m_entry_id>
181

> <s_m_entry_name>
wee1_actives_glide_SP.43

> <s_m_subgroup_title>
wee1_actives_glide_SP

> <s_m_subgroupid>
wee1_actives_glide_SP


$$$$
