@<TRIPOS>MOLECULE
CHEMBL508294_96
51   56    1
SMALL
USER_CHARGES


@<TRIPOS>ATOM
      1 C1         -0.0954   53.2397   30.8229 C.ar      1 UNK         0.0000 
      2 C2          0.4890   54.4758   30.5769 C.ar      1 UNK         0.0000 
      3 C3          1.2964   54.6566   29.4569 C.ar      1 UNK         0.0000 
      4 C4          1.5792   53.5705   28.6030 C.ar      1 UNK         0.0000 
      5 C5          0.9503   52.3341   28.8490 C.ar      1 UNK         0.0000 
      6 C6          0.0976   52.1865   29.9389 C.ar      1 UNK         0.0000 
      7 Cl7         1.2111   50.9544   27.8329 Cl        1 UNK         0.0000 
      8 C8          2.5142   53.7213   27.4566 C.ar      1 UNK         0.0000 
      9 C9          2.0219   53.5330   26.1650 C.ar      1 UNK         0.0000 
     10 C10         2.8937   53.7005   25.0802 C.ar      1 UNK         0.0000 
     11 C11         4.2444   54.0925   25.2573 C.ar      1 UNK         0.0000 
     12 C12         4.7977   54.2520   23.9728 C.ar      1 UNK         0.0000 
     13 C13         6.0713   54.6579   23.5310 C.ar      1 UNK         0.0000 
     14 C14         6.2955   54.8266   22.1704 C.ar      1 UNK         0.0000 
     15 C15         5.2969   54.5409   21.2494 C.ar      1 UNK         0.0000 
     16 C16         4.0348   54.0943   21.6404 C.ar      1 UNK         0.0000 
     17 C17         3.7793   53.9441   23.0136 C.ar      1 UNK         0.0000 
     18 N18         2.6490   53.5242   23.7283 N.pl3     1 UNK         0.0000 
     19 C19         1.3206   53.0279   23.3068 C.3       1 UNK         0.0000 
     20 C20         1.0251   52.7913   21.8167 C.3       1 UNK         0.0000 
     21 N21         1.6871   51.6488   21.1951 N.pl3     1 UNK         0.0000 
     22 C22         1.6914   50.3365   21.6571 C.ar      1 UNK         0.0000 
     23 C23         2.3110   49.5387   20.7003 C.ar      1 UNK         0.0000 
     24 N24         2.7163   50.3702   19.6684 N.pl3     1 UNK         0.0000 
     25 C25         2.3106   51.6519   19.9593 C.ar      1 UNK         0.0000 
     26 O26         7.5050   55.2972   21.7316 O.3       1 UNK         0.0000 
     27 C27         4.7225   54.2173   26.5769 C.ar      1 UNK         0.0000 
     28 C28         3.8677   54.0249   27.6338 C.ar      1 UNK         0.0000 
     29 C29         4.6610   54.1947   28.8809 C.2       1 UNK         0.0000 
     30 O30         4.2851   54.0970   30.0472 O.2       1 UNK         0.0000 
     31 N31         5.9041   54.4967   28.4748 N.am      1 UNK         0.0000 
     32 C32         6.0604   54.5359   27.1407 C.2       1 UNK         0.0000 
     33 O33         7.1044   54.8006   26.5555 O.2       1 UNK         0.0000 
     34 Cl34        1.9034   56.2520   29.1529 Cl        1 UNK         0.0000 
     35 H35        -0.7313   53.0994   31.6815 H         1 UNK         0.0000 
     36 H36         0.3045   55.2996   31.2509 H         1 UNK         0.0000 
     37 H37        -0.4143   51.2510   30.1052 H         1 UNK         0.0000 
     38 H38         0.9859   53.2637   26.0196 H         1 UNK         0.0000 
     39 H39         6.8608   54.8978   24.2213 H         1 UNK         0.0000 
     40 H40         5.5001   54.6828   20.1972 H         1 UNK         0.0000 
     41 H41         3.2973   53.9193   20.8818 H         1 UNK         0.0000 
     42 H42         0.5981   53.7626   23.6669 H         1 UNK         0.0000 
     43 H43         1.1138   52.1155   23.8682 H         1 UNK         0.0000 
     44 H44         1.2468   53.6966   21.2818 H         1 UNK         0.0000 
     45 H45        -0.0449   52.6271   21.6856 H         1 UNK         0.0000 
     46 H46         1.2420   50.0843   22.6084 H         1 UNK         0.0000 
     47 H47         2.5382   48.4810   20.6731 H         1 UNK         0.0000 
     48 H48         2.4555   52.5134   19.3211 H         1 UNK         0.0000 
     49 H49         8.1783   55.3378   22.4218 H         1 UNK         0.0000 
     50 H50         6.6527   54.7297   29.1140 H         1 UNK         0.0000 
     51 H51         3.2447   50.0960   18.8386 H         1 UNK         0.0000 
@<TRIPOS>BOND
     1    1    6 ar   
     2    1    2 ar   
     3    1   35 1    
     4    2    3 ar   
     5    2   36 1    
     6    3    4 ar   
     7    3   34 1    
     8    4    5 ar   
     9    4    8 1    
    10    5    6 ar   
    11    5    7 1    
    12    6   37 1    
    13    8   28 ar   
    14    8    9 ar   
    15    9   10 ar   
    16    9   38 1    
    17   10   18 ar   
    18   10   11 ar   
    19   11   12 ar   
    20   11   27 ar   
    21   12   17 ar   
    22   12   13 ar   
    23   13   14 ar   
    24   13   39 1    
    25   14   15 ar   
    26   14   26 1    
    27   15   16 ar   
    28   15   40 1    
    29   16   17 ar   
    30   16   41 1    
    31   17   18 ar   
    32   18   19 1    
    33   19   20 1    
    34   19   42 1    
    35   19   43 1    
    36   20   21 1    
    37   20   44 1    
    38   20   45 1    
    39   21   25 ar   
    40   21   22 ar   
    41   22   23 ar   
    42   22   46 1    
    43   23   24 ar   
    44   23   47 1    
    45   24   25 ar   
    46   24   51 1    
    47   25   48 1    
    48   26   49 1    
    49   27   32 1    
    50   27   28 ar   
    51   28   29 1    
    52   29   30 2    
    53   29   31 am   BACKBONE|DICT|INTERRES
    54   31   32 am   BACKBONE|DICT|INTERRES
    55   31   50 1    
    56   32   33 2    
@<TRIPOS>SUBSTRUCTURE
     1 UNK         1 GROUP             0       ****    0 ROOT    
