CHEMBL520049_99
                    3D
 Schrodinger Suite 2024-2.
 51 55  0  0  1  0            999 V2000
    5.5066   54.5999   21.1976 C   0  0  0  0  0  0
    4.2303   54.1775   21.5640 C   0  0  0  0  0  0
    3.9451   54.0964   22.9340 C   0  0  0  0  0  0
    4.9383   54.3578   23.9223 C   0  0  0  0  0  0
    6.2340   54.7337   23.5037 C   0  0  0  0  0  0
    6.4874   54.8918   22.1396 C   0  0  0  0  0  0
    7.7200   55.3059   21.7012 O   0  0  0  0  0  0
    4.3220   54.1838   25.1865 C   0  0  0  0  0  0
    2.9523   53.8761   24.9552 C   0  0  0  0  0  0
    2.7516   53.8274   23.5904 N   0  0  0  0  0  0
    1.4630   53.5788   22.9512 C   0  0  0  0  0  0
    1.2310   52.0925   22.5783 C   0  0  0  0  0  0
    0.9642   51.1179   23.7582 C   0  0  0  0  0  0
   -0.3133   51.3919   24.5894 C   0  0  0  0  0  0
   -1.1155   52.2407   24.1890 O   0  0  0  0  0  0
   -0.5651   50.6313   25.6909 N   0  0  0  0  0  0
   -1.6293   51.0223   26.6305 C   0  0  0  0  0  0
   -0.9506   51.8990   27.7141 C   0  0  0  0  0  0
    0.1952   51.2733   28.3046 O   0  0  0  0  0  0
    1.1259   50.6655   27.3965 C   0  0  0  0  0  0
    0.4505   49.7819   26.3317 C   0  0  0  0  0  0
    2.0386   53.6975   26.0039 C   0  0  0  0  0  0
    2.5077   53.8133   27.3110 C   0  0  0  0  0  0
    3.8464   54.0768   27.5459 C   0  0  0  0  0  0
    4.7437   54.2697   26.5282 C   0  0  0  0  0  0
    6.0495   54.5708   27.1545 C   0  0  0  0  0  0
    7.1041   54.8591   26.6073 O   0  0  0  0  0  0
    5.8392   54.4965   28.4820 N   0  0  0  0  0  0
    4.5696   54.2108   28.8304 C   0  0  0  0  0  0
    4.1202   54.1005   29.9702 O   0  0  0  0  0  0
    5.7382   54.7068   20.1478 H   0  0  0  0  0  0
    3.4831   53.9789   20.8092 H   0  0  0  0  0  0
    7.0145   54.9475   24.2141 H   0  0  0  0  0  0
    8.3897   55.3257   22.3981 H   0  0  0  0  0  0
    1.4109   54.2166   22.0816 H   0  0  0  0  0  0
    0.6755   53.9581   23.6013 H   0  0  0  0  0  0
    2.0891   51.7343   22.0071 H   0  0  0  0  0  0
    0.3924   52.0359   21.8822 H   0  0  0  0  0  0
    1.8322   51.1400   24.4145 H   0  0  0  0  0  0
    0.8872   50.1044   23.3634 H   0  0  0  0  0  0
   -1.9820   50.0964   27.0807 H   0  0  0  0  0  0
   -2.5033   51.4561   26.1416 H   0  0  0  0  0  0
   -0.6592   52.8569   27.2842 H   0  0  0  0  0  0
   -1.6748   52.0969   28.5034 H   0  0  0  0  0  0
    1.6543   51.4450   26.8811 H   0  0  0  0  0  0
    1.9047   50.0991   27.9143 H   0  0  0  0  0  0
    1.1057   49.2387   25.6491 H   0  0  0  0  0  0
   -0.0973   48.9873   26.8382 H   0  0  0  0  0  0
    1.0004   53.4845   25.8188 H   0  0  0  0  0  0
    1.8201   53.6737   28.1340 H   0  0  0  0  0  0
    6.5635   54.7058   29.1555 H   0  0  0  0  0  0
  1  6  2  0  0  0
  1  2  1  0  0  0
  1 31  1  0  0  0
  2  3  2  0  0  0
  2 32  1  0  0  0
  3 10  1  0  0  0
  3  4  1  0  0  0
  4  5  2  0  0  0
  4  8  1  0  0  0
  5  6  1  0  0  0
  5 33  1  0  0  0
  6  7  1  0  0  0
  7 34  1  0  0  0
  8 25  2  0  0  0
  8  9  1  0  0  0
  9 10  1  0  0  0
  9 22  2  0  0  0
 10 11  1  0  0  0
 11 12  1  0  0  0
 11 35  1  0  0  0
 11 36  1  0  0  0
 12 13  1  0  0  0
 12 37  1  0  0  0
 12 38  1  0  0  0
 13 14  1  0  0  0
 13 39  1  0  0  0
 13 40  1  0  0  0
 14 15  2  0  0  0
 14 16  1  0  0  0
 16 21  1  0  0  0
 16 17  1  0  0  0
 17 18  1  0  0  0
 17 41  1  0  0  0
 17 42  1  0  0  0
 18 19  1  0  0  0
 18 43  1  0  0  0
 18 44  1  0  0  0
 19 20  1  0  0  0
 20 21  1  0  0  0
 20 45  1  0  0  0
 20 46  1  0  0  0
 21 47  1  0  0  0
 21 48  1  0  0  0
 22 23  1  0  0  0
 22 49  1  0  0  0
 23 24  2  0  0  0
 23 50  1  0  0  0
 24 29  1  0  0  0
 24 25  1  0  0  0
 25 26  1  0  0  0
 26 27  2  0  0  0
 26 28  1  0  0  0
 28 29  1  0  0  0
 28 51  1  0  0  0
 29 30  2  0  0  0
M  END
> <i_i_glide_confnum>
21

> <i_i_glide_lignum>
100

> <i_i_glide_posenum>
171

> <i_i_glide_rotatable_bonds>
6

> <i_m_Source_File_Index>
83

> <b_m_subgroup_collapsed>
0

> <r_i_docking_score>
-10.3919

> <r_i_glide_ecoul>
-14.395

> <r_i_glide_eff_state_penalty>
0

> <r_i_glide_einternal>
1.94664

> <r_i_glide_emodel>
-91.8489

> <r_i_glide_energy>
-56.4079

> <r_i_glide_erotb>
0.474043

> <r_i_glide_esite>
-0.0388901

> <r_i_glide_evdw>
-42.0129

> <r_i_glide_gscore>
-10.3919

> <r_i_glide_hbond>
-0.957791

> <r_i_glide_ligand_efficiency>
-0.346397

> <r_i_glide_ligand_efficiency_ln>
-2.36116

> <r_i_glide_ligand_efficiency_sa>
-1.07634

> <r_i_glide_lipo>
-2.89857

> <r_i_glide_metal>
0

> <r_i_glide_rewards>
-2.71082

> <s_i_glide_gridfile>
wee1_glide-grid

> <s_m_Source_File>
wee1_actives_glide_SP.sdf

> <s_m_Source_Path>
/Users/zhangxujun/Desktop

> <s_m_entry_id>
221

> <s_m_entry_name>
wee1_actives_glide_SP.83

> <s_m_subgroup_title>
wee1_actives_glide_SP

> <s_m_subgroupid>
wee1_actives_glide_SP


$$$$
