CHEMBL257857_41
                    3D
 Schrodinger Suite 2024-2.
 64 69  0  0  1  0            999 V2000
    1.4250   53.3848   22.9114 C   0  0  0  0  0  0
    2.7085   53.7112   23.5136 N   0  0  0  0  0  0
    2.9325   53.7563   24.8759 C   0  0  0  0  0  0
    2.0537   53.5249   25.9419 C   0  0  0  0  0  0
    2.5372   53.6685   27.2464 C   0  0  0  0  0  0
    3.8837   53.9902   27.4514 C   0  0  0  0  0  0
    4.7479   54.2180   26.4081 C   0  0  0  0  0  0
    4.2922   54.1131   25.0780 C   0  0  0  0  0  0
    4.8717   54.3038   23.8020 C   0  0  0  0  0  0
    3.8587   54.0776   22.8376 C   0  0  0  0  0  0
    4.0913   54.2401   21.4680 C   0  0  0  0  0  0
    5.3520   54.6780   21.0511 C   0  0  0  0  0  0
    6.3641   54.9021   21.9966 C   0  0  0  0  0  0
    6.1478   54.6839   23.3544 C   0  0  0  0  0  0
    7.5045   55.3408   21.6741 O   0  5  0  0  0  0
    5.5564   54.9433   19.2690 S   0  0  0  0  0  0
    6.9024   55.4403   18.9756 O   0  0  0  0  0  0
    4.3902   55.6963   18.7965 O   0  0  0  0  0  0
    5.4369   53.2026   18.5475 C   0  0  0  0  0  0
    3.9875   52.8250   18.1585 C   0  0  0  0  0  0
    3.5539   53.1912   16.7277 C   0  0  0  0  0  0
    4.0111   52.0967   15.7337 N   0  3  0  0  0  0
    5.4693   52.2228   15.2325 C   0  0  0  0  0  0
    5.4675   51.6249   13.8171 C   0  0  0  0  0  0
    4.0393   51.1594   13.5396 C   0  0  0  0  0  0
    3.1704   52.0166   14.4494 C   0  0  0  0  0  0
    6.0688   54.5728   26.9893 C   0  0  0  0  0  0
    7.1043   54.8964   26.4184 O   0  0  0  0  0  0
    5.9045   54.4964   28.3195 N   0  0  0  0  0  0
    4.6693   54.1494   28.7092 C   0  0  0  0  0  0
    4.3005   54.0145   29.8724 O   0  0  0  0  0  0
    1.5986   53.4268   28.3743 C   0  0  0  0  0  0
    0.9888   52.1691   28.4644 C   0  0  0  0  0  0
    0.1094   51.8758   29.4971 C   0  0  0  0  0  0
   -0.1416   52.8276   30.4787 C   0  0  0  0  0  0
    0.4305   54.0941   30.3964 C   0  0  0  0  0  0
    1.2828   54.4074   29.3395 C   0  0  0  0  0  0
    1.8931   56.0281   29.2496 Cl  0  0  0  0  0  0
    1.4925   53.3523   21.8225 H   0  0  0  0  0  0
    1.0947   52.4089   23.2703 H   0  0  0  0  0  0
    0.7039   54.1431   23.2155 H   0  0  0  0  0  0
    1.0211   53.2594   25.7672 H   0  0  0  0  0  0
    3.2968   54.0968   20.7567 H   0  0  0  0  0  0
    6.9521   54.8739   24.0462 H   0  0  0  0  0  0
    5.8577   52.5141   19.2794 H   0  0  0  0  0  0
    6.1023   53.2016   17.6889 H   0  0  0  0  0  0
    3.2687   53.2636   18.8451 H   0  0  0  0  0  0
    3.8616   51.7519   18.2965 H   0  0  0  0  0  0
    3.9074   54.1655   16.3838 H   0  0  0  0  0  0
    2.4646   53.1753   16.6660 H   0  0  0  0  0  0
    6.1077   51.6978   15.9462 H   0  0  0  0  0  0
    5.7238   53.2838   15.2055 H   0  0  0  0  0  0
    6.1773   50.7981   13.7334 H   0  0  0  0  0  0
    5.7734   52.3828   13.0905 H   0  0  0  0  0  0
    3.7708   51.2669   12.4883 H   0  0  0  0  0  0
    3.9236   50.1063   13.8047 H   0  0  0  0  0  0
    3.0424   53.0399   14.0906 H   0  0  0  0  0  0
    2.1959   51.5945   14.6998 H   0  0  0  0  0  0
    6.6428   54.7276   28.9708 H   0  0  0  0  0  0
    1.2008   51.4076   27.7276 H   0  0  0  0  0  0
   -0.3665   50.9054   29.5496 H   0  0  0  0  0  0
   -0.8212   52.5847   31.2817 H   0  0  0  0  0  0
    0.2011   54.8356   31.1467 H   0  0  0  0  0  0
    3.9075   51.1931   16.1994 H   0  0  0  0  0  0
  1  2  1  0  0  0
  1 39  1  0  0  0
  1 40  1  0  0  0
  1 41  1  0  0  0
  2 10  1  0  0  0
  2  3  1  0  0  0
  3  8  2  0  0  0
  3  4  1  0  0  0
  4  5  2  0  0  0
  4 42  1  0  0  0
  5  6  1  0  0  0
  5 32  1  0  0  0
  6 30  1  0  0  0
  6  7  2  0  0  0
  7  8  1  0  0  0
  7 27  1  0  0  0
  8  9  1  0  0  0
  9 14  2  0  0  0
  9 10  1  0  0  0
 10 11  2  0  0  0
 11 12  1  0  0  0
 11 43  1  0  0  0
 12 13  2  0  0  0
 12 16  1  0  0  0
 13 14  1  0  0  0
 13 15  1  0  0  0
 14 44  1  0  0  0
 16 17  2  0  0  0
 16 18  2  0  0  0
 16 19  1  0  0  0
 19 20  1  0  0  0
 19 45  1  0  0  0
 19 46  1  0  0  0
 20 21  1  0  0  0
 20 47  1  0  0  0
 20 48  1  0  0  0
 21 22  1  0  0  0
 21 49  1  0  0  0
 21 50  1  0  0  0
 22 26  1  0  0  0
 22 23  1  0  0  0
 22 64  1  0  0  0
 23 24  1  0  0  0
 23 51  1  0  0  0
 23 52  1  0  0  0
 24 25  1  0  0  0
 24 53  1  0  0  0
 24 54  1  0  0  0
 25 26  1  0  0  0
 25 55  1  0  0  0
 25 56  1  0  0  0
 26 57  1  0  0  0
 26 58  1  0  0  0
 27 28  2  0  0  0
 27 29  1  0  0  0
 29 30  1  0  0  0
 29 59  1  0  0  0
 30 31  2  0  0  0
 32 37  2  0  0  0
 32 33  1  0  0  0
 33 34  2  0  0  0
 33 60  1  0  0  0
 34 35  1  0  0  0
 34 61  1  0  0  0
 35 36  2  0  0  0
 35 62  1  0  0  0
 36 37  1  0  0  0
 36 63  1  0  0  0
 37 38  1  0  0  0
M  CHG  2  15  -1  22   1
M  END
> <i_i_glide_confnum>
93

> <i_i_glide_lignum>
42

> <i_i_glide_posenum>
320

> <i_i_glide_rotatable_bonds>
6

> <i_m_Source_File_Index>
110

> <b_m_subgroup_collapsed>
0

> <r_i_docking_score>
-10.6751

> <r_i_glide_ecoul>
-10.1929

> <r_i_glide_eff_state_penalty>
0

> <r_i_glide_einternal>
6.0735

> <r_i_glide_emodel>
-109.748

> <r_i_glide_energy>
-63.6098

> <r_i_glide_erotb>
0.188634

> <r_i_glide_esite>
-0.0767823

> <r_i_glide_evdw>
-53.417

> <r_i_glide_gscore>
-10.6751

> <r_i_glide_hbond>
-0.822811

> <r_i_glide_ligand_efficiency>
-0.280924

> <r_i_glide_ligand_efficiency_ln>
-2.30187

> <r_i_glide_ligand_efficiency_sa>
-0.944461

> <r_i_glide_lipo>
-3.70274

> <r_i_glide_metal>
0

> <r_i_glide_rewards>
-2.06165

> <s_i_glide_gridfile>
wee1_glide-grid

> <s_m_Source_File>
wee1_actives_glide_SP.sdf

> <s_m_Source_Path>
/Users/zhangxujun/Desktop

> <s_m_entry_id>
248

> <s_m_entry_name>
wee1_actives_glide_SP.110

> <s_m_subgroup_title>
wee1_actives_glide_SP

> <s_m_subgroupid>
wee1_actives_glide_SP


$$$$
