CHEMBL453347_54
                    3D
 Schrodinger Suite 2024-2.
 64 69  0  0  1  0            999 V2000
   -2.3093   46.5141   23.8228 C   0  0  0  0  0  0
   -1.5133   47.7134   23.5888 N   0  0  0  0  0  0
   -0.3968   47.7771   24.5449 C   0  0  0  0  0  0
    0.4875   49.0138   24.2930 C   0  0  0  0  0  0
   -0.4108   50.2624   24.3880 N   0  3  0  0  0  0
   -1.5788   50.1850   23.3788 C   0  0  0  0  0  0
   -2.3797   48.8975   23.6608 C   0  0  0  0  0  0
    0.3808   51.5866   24.3397 C   0  0  0  0  0  0
    1.0515   51.9356   22.9897 C   0  0  0  0  0  0
    1.4865   53.4250   22.8764 C   0  0  0  0  0  0
    2.7584   53.7536   23.5392 N   0  0  0  0  0  0
    3.9446   54.0715   22.8842 C   0  0  0  0  0  0
    4.2376   54.1609   21.5145 C   0  0  0  0  0  0
    5.5098   54.6016   21.1537 C   0  0  0  0  0  0
    6.4859   54.8957   22.1003 C   0  0  0  0  0  0
    6.2250   54.7348   23.4592 C   0  0  0  0  0  0
    4.9323   54.3478   23.8733 C   0  0  0  0  0  0
    4.3226   54.1692   25.1369 C   0  0  0  0  0  0
    2.9570   53.8515   24.9105 C   0  0  0  0  0  0
    2.0584   53.6966   25.9755 C   0  0  0  0  0  0
    2.5329   53.7602   27.2869 C   0  0  0  0  0  0
    3.8808   54.0510   27.5094 C   0  0  0  0  0  0
    4.7564   54.2637   26.4742 C   0  0  0  0  0  0
    6.0716   54.5847   27.0710 C   0  0  0  0  0  0
    7.1044   54.8967   26.5012 O   0  0  0  0  0  0
    5.9046   54.4967   28.3999 N   0  0  0  0  0  0
    4.6523   54.1975   28.7780 C   0  0  0  0  0  0
    4.2621   54.0963   29.9383 O   0  0  0  0  0  0
    1.5812   53.4824   28.3906 C   0  0  0  0  0  0
    1.3459   54.4232   29.4002 C   0  0  0  0  0  0
    0.4918   54.1181   30.4548 C   0  0  0  0  0  0
   -0.1456   52.8819   30.4793 C   0  0  0  0  0  0
    0.0386   51.9580   29.4584 C   0  0  0  0  0  0
    0.9114   52.2544   28.4209 C   0  0  0  0  0  0
    7.7257   55.3090   21.6818 O   0  0  0  0  0  0
   -1.6960   45.6252   23.6878 H   0  0  0  0  0  0
   -3.1340   46.4496   23.1105 H   0  0  0  0  0  0
   -2.7266   46.4965   24.8320 H   0  0  0  0  0  0
   -0.8116   47.8331   25.5555 H   0  0  0  0  0  0
    0.2349   46.8966   24.4827 H   0  0  0  0  0  0
    0.9818   49.0099   23.3194 H   0  0  0  0  0  0
    1.2238   49.0966   25.0943 H   0  0  0  0  0  0
   -1.1748   50.2039   22.3657 H   0  0  0  0  0  0
   -2.2029   51.0614   23.5623 H   0  0  0  0  0  0
   -3.2022   48.8210   22.9471 H   0  0  0  0  0  0
   -2.7954   48.9511   24.6705 H   0  0  0  0  0  0
   -0.3670   52.3276   24.6273 H   0  0  0  0  0  0
    1.1043   51.4685   25.1444 H   0  0  0  0  0  0
    1.9087   51.2844   22.8119 H   0  0  0  0  0  0
    0.3635   51.7401   22.1694 H   0  0  0  0  0  0
    1.5605   53.6966   21.8241 H   0  0  0  0  0  0
    0.7210   54.0876   23.2829 H   0  0  0  0  0  0
    3.5044   53.9482   20.7502 H   0  0  0  0  0  0
    5.7462   54.7112   20.1051 H   0  0  0  0  0  0
    7.0059   54.9535   24.1649 H   0  0  0  0  0  0
    1.0096   53.5412   25.8115 H   0  0  0  0  0  0
    6.6423   54.7171   29.0553 H   0  0  0  0  0  0
    1.8446   55.3820   29.3809 H   0  0  0  0  0  0
    0.3222   54.8337   31.2463 H   0  0  0  0  0  0
   -0.8221   52.6358   31.2816 H   0  0  0  0  0  0
   -0.4804   51.0093   29.4844 H   0  0  0  0  0  0
    1.0783   51.5175   27.6491 H   0  0  0  0  0  0
    8.3878   55.3308   22.3863 H   0  0  0  0  0  0
   -0.8300   50.2263   25.3096 H   0  0  0  0  0  0
  1  2  1  0  0  0
  1 36  1  0  0  0
  1 37  1  0  0  0
  1 38  1  0  0  0
  2  7  1  0  0  0
  2  3  1  0  0  0
  3  4  1  0  0  0
  3 39  1  0  0  0
  3 40  1  0  0  0
  4  5  1  0  0  0
  4 41  1  0  0  0
  4 42  1  0  0  0
  5  6  1  0  0  0
  5  8  1  0  0  0
  5 64  1  0  0  0
  6  7  1  0  0  0
  6 43  1  0  0  0
  6 44  1  0  0  0
  7 45  1  0  0  0
  7 46  1  0  0  0
  8  9  1  0  0  0
  8 47  1  0  0  0
  8 48  1  0  0  0
  9 10  1  0  0  0
  9 49  1  0  0  0
  9 50  1  0  0  0
 10 11  1  0  0  0
 10 51  1  0  0  0
 10 52  1  0  0  0
 11 19  1  0  0  0
 11 12  1  0  0  0
 12 17  2  0  0  0
 12 13  1  0  0  0
 13 14  2  0  0  0
 13 53  1  0  0  0
 14 15  1  0  0  0
 14 54  1  0  0  0
 15 16  2  0  0  0
 15 35  1  0  0  0
 16 17  1  0  0  0
 16 55  1  0  0  0
 17 18  1  0  0  0
 18 23  2  0  0  0
 18 19  1  0  0  0
 19 20  2  0  0  0
 20 21  1  0  0  0
 20 56  1  0  0  0
 21 22  2  0  0  0
 21 29  1  0  0  0
 22 27  1  0  0  0
 22 23  1  0  0  0
 23 24  1  0  0  0
 24 25  2  0  0  0
 24 26  1  0  0  0
 26 27  1  0  0  0
 26 57  1  0  0  0
 27 28  2  0  0  0
 29 34  2  0  0  0
 29 30  1  0  0  0
 30 31  2  0  0  0
 30 58  1  0  0  0
 31 32  1  0  0  0
 31 59  1  0  0  0
 32 33  2  0  0  0
 32 60  1  0  0  0
 33 34  1  0  0  0
 33 61  1  0  0  0
 34 62  1  0  0  0
 35 63  1  0  0  0
M  CHG  1   5   1
M  END
> <i_i_glide_confnum>
96

> <i_i_glide_lignum>
55

> <i_i_glide_posenum>
331

> <i_i_glide_rotatable_bonds>
6

> <i_m_Source_File_Index>
134

> <b_m_subgroup_collapsed>
0

> <r_i_docking_score>
-11.1102

> <r_i_glide_ecoul>
-13.6306

> <r_i_glide_eff_state_penalty>
0

> <r_i_glide_einternal>
3.94304

> <r_i_glide_emodel>
-112.318

> <r_i_glide_energy>
-65.1167

> <r_i_glide_erotb>
0.320636

> <r_i_glide_esite>
-0.00874795

> <r_i_glide_evdw>
-51.486

> <r_i_glide_gscore>
-11.1102

> <r_i_glide_hbond>
-0.918666

> <r_i_glide_ligand_efficiency>
-0.317435

> <r_i_glide_ligand_efficiency_ln>
-2.43894

> <r_i_glide_ligand_efficiency_sa>
-1.03835

> <r_i_glide_lipo>
-3.68651

> <r_i_glide_metal>
0

> <r_i_glide_rewards>
-2.19805

> <s_i_glide_gridfile>
wee1_glide-grid

> <s_m_Source_File>
wee1_actives_glide_SP.sdf

> <s_m_Source_Path>
/Users/zhangxujun/Desktop

> <s_m_entry_id>
272

> <s_m_entry_name>
wee1_actives_glide_SP.134

> <s_m_subgroup_title>
wee1_actives_glide_SP

> <s_m_subgroupid>
wee1_actives_glide_SP


$$$$
