CHEMBL255565_44
                    3D
 Schrodinger Suite 2024-2.
 69 74  0  0  1  0            999 V2000
    0.1046   51.8687   29.4831 C   0  0  0  0  0  0
   -0.1459   52.8211   30.4636 C   0  0  0  0  0  0
    0.4145   54.0908   30.3620 C   0  0  0  0  0  0
    1.2551   54.4043   29.2941 C   0  0  0  0  0  0
    1.5805   53.4186   28.3371 C   0  0  0  0  0  0
    0.9759   52.1595   28.4387 C   0  0  0  0  0  0
    2.5394   53.6521   27.2229 C   0  0  0  0  0  0
    2.0920   53.4925   25.9045 C   0  0  0  0  0  0
    2.9912   53.7387   24.8548 C   0  0  0  0  0  0
    4.3425   54.1154   25.0915 C   0  0  0  0  0  0
    4.9593   54.3124   23.8316 C   0  0  0  0  0  0
    6.2529   54.6910   23.4158 C   0  0  0  0  0  0
    6.5067   54.8966   22.0592 C   0  0  0  0  0  0
    5.5036   54.6903   21.1028 C   0  0  0  0  0  0
    4.2371   54.2413   21.4838 C   0  0  0  0  0  0
    3.9711   54.0697   22.8438 C   0  0  0  0  0  0
    2.8032   53.6795   23.4842 N   0  0  0  0  0  0
    1.5708   53.2439   22.8202 C   0  0  0  0  0  0
    1.5609   51.7341   22.5121 C   0  0  0  0  0  0
    1.5047   50.9717   23.6994 O   0  0  0  0  0  0
    5.7349   54.9470   19.6117 C   0  0  0  0  0  0
    6.3140   53.7194   18.8810 C   0  0  0  0  0  0
    6.1661   53.7088   17.3461 C   0  0  0  0  0  0
    4.7383   53.7281   16.7563 C   0  0  0  0  0  0
    3.9044   52.4968   17.1952 N   0  3  0  0  0  0
    2.8657   52.0684   16.1426 C   0  0  0  0  0  0
    1.8991   51.2008   16.9365 C   0  0  0  0  0  0
    1.7878   51.8869   18.2933 C   0  0  0  0  0  0
    3.0894   52.6744   18.4943 C   0  0  0  0  0  0
    7.7643   55.3002   21.6817 O   0  0  0  0  0  0
    4.7633   54.2165   26.4307 C   0  0  0  0  0  0
    3.8812   53.9835   27.4552 C   0  0  0  0  0  0
    4.6415   54.1441   28.7304 C   0  0  0  0  0  0
    4.2466   54.0115   29.8865 O   0  0  0  0  0  0
    5.8855   54.4964   28.3662 N   0  0  0  0  0  0
    6.0675   54.5725   27.0380 C   0  0  0  0  0  0
    7.1044   54.8971   26.4793 O   0  0  0  0  0  0
    1.8480   56.0291   29.1910 Cl  0  0  0  0  0  0
   -0.3650   50.8972   29.5435 H   0  0  0  0  0  0
   -0.8095   52.5801   31.2812 H   0  0  0  0  0  0
    0.1830   54.8366   31.1089 H   0  0  0  0  0  0
    1.1854   51.3919   27.7066 H   0  0  0  0  0  0
    1.0700   53.2045   25.7054 H   0  0  0  0  0  0
    7.0416   54.8676   24.1253 H   0  0  0  0  0  0
    3.4642   54.0944   20.7496 H   0  0  0  0  0  0
    0.6809   53.5738   23.3565 H   0  0  0  0  0  0
    1.5264   53.7625   21.8669 H   0  0  0  0  0  0
    0.7450   51.4716   21.8368 H   0  0  0  0  0  0
    2.4861   51.4551   22.0038 H   0  0  0  0  0  0
    1.6160   50.0397   23.4884 H   0  0  0  0  0  0
    6.3919   55.8088   19.4789 H   0  0  0  0  0  0
    4.7865   55.2446   19.1643 H   0  0  0  0  0  0
    5.9026   52.7944   19.2841 H   0  0  0  0  0  0
    7.3787   53.6966   19.1104 H   0  0  0  0  0  0
    6.6805   52.8258   16.9610 H   0  0  0  0  0  0
    6.7138   54.5589   16.9359 H   0  0  0  0  0  0
    4.8096   53.6541   15.6693 H   0  0  0  0  0  0
    4.1632   54.6247   16.9912 H   0  0  0  0  0  0
    3.3878   51.5559   15.3323 H   0  0  0  0  0  0
    2.4040   52.9811   15.7610 H   0  0  0  0  0  0
    2.3043   50.1933   17.0478 H   0  0  0  0  0  0
    0.9297   51.1091   16.4452 H   0  0  0  0  0  0
    0.9330   52.5675   18.3182 H   0  0  0  0  0  0
    1.6418   51.1534   19.0904 H   0  0  0  0  0  0
    2.8773   53.7368   18.6230 H   0  0  0  0  0  0
    3.7043   52.2754   19.3026 H   0  0  0  0  0  0
    8.4056   55.2980   22.4058 H   0  0  0  0  0  0
    6.6114   54.7373   29.0279 H   0  0  0  0  0  0
    4.5214   51.6892   17.3275 H   0  0  0  0  0  0
  1  6  2  0  0  0
  1  2  1  0  0  0
  1 39  1  0  0  0
  2  3  2  0  0  0
  2 40  1  0  0  0
  3  4  1  0  0  0
  3 41  1  0  0  0
  4  5  2  0  0  0
  4 38  1  0  0  0
  5  6  1  0  0  0
  5  7  1  0  0  0
  6 42  1  0  0  0
  7 32  2  0  0  0
  7  8  1  0  0  0
  8  9  2  0  0  0
  8 43  1  0  0  0
  9 17  1  0  0  0
  9 10  1  0  0  0
 10 11  1  0  0  0
 10 31  2  0  0  0
 11 16  2  0  0  0
 11 12  1  0  0  0
 12 13  2  0  0  0
 12 44  1  0  0  0
 13 14  1  0  0  0
 13 30  1  0  0  0
 14 15  2  0  0  0
 14 21  1  0  0  0
 15 16  1  0  0  0
 15 45  1  0  0  0
 16 17  1  0  0  0
 17 18  1  0  0  0
 18 19  1  0  0  0
 18 46  1  0  0  0
 18 47  1  0  0  0
 19 20  1  0  0  0
 19 48  1  0  0  0
 19 49  1  0  0  0
 20 50  1  0  0  0
 21 22  1  0  0  0
 21 51  1  0  0  0
 21 52  1  0  0  0
 22 23  1  0  0  0
 22 53  1  0  0  0
 22 54  1  0  0  0
 23 24  1  0  0  0
 23 55  1  0  0  0
 23 56  1  0  0  0
 24 25  1  0  0  0
 24 57  1  0  0  0
 24 58  1  0  0  0
 25 29  1  0  0  0
 25 26  1  0  0  0
 25 69  1  0  0  0
 26 27  1  0  0  0
 26 59  1  0  0  0
 26 60  1  0  0  0
 27 28  1  0  0  0
 27 61  1  0  0  0
 27 62  1  0  0  0
 28 29  1  0  0  0
 28 63  1  0  0  0
 28 64  1  0  0  0
 29 65  1  0  0  0
 29 66  1  0  0  0
 30 67  1  0  0  0
 31 36  1  0  0  0
 31 32  1  0  0  0
 32 33  1  0  0  0
 33 34  2  0  0  0
 33 35  1  0  0  0
 35 36  1  0  0  0
 35 68  1  0  0  0
 36 37  2  0  0  0
M  CHG  1  25   1
M  END
> <i_i_glide_confnum>
190

> <i_i_glide_lignum>
45

> <i_i_glide_posenum>
268

> <i_i_glide_rotatable_bonds>
10

> <i_m_Source_File_Index>
130

> <b_m_subgroup_collapsed>
0

> <r_i_docking_score>
-12.1259

> <r_i_glide_ecoul>
-17.3665

> <r_i_glide_eff_state_penalty>
0

> <r_i_glide_einternal>
5.31742

> <r_i_glide_emodel>
-128.572

> <r_i_glide_energy>
-72.2722

> <r_i_glide_erotb>
0.355775

> <r_i_glide_esite>
-0.077687

> <r_i_glide_evdw>
-54.9057

> <r_i_glide_gscore>
-12.1259

> <r_i_glide_hbond>
-1.09908

> <r_i_glide_ligand_efficiency>
-0.319101

> <r_i_glide_ligand_efficiency_ln>
-2.61469

> <r_i_glide_ligand_efficiency_sa>
-1.07281

> <r_i_glide_lipo>
-3.97551

> <r_i_glide_metal>
0

> <r_i_glide_rewards>
-1.97909

> <s_i_glide_gridfile>
wee1_glide-grid

> <s_m_Source_File>
wee1_actives_glide_SP.sdf

> <s_m_Source_Path>
/Users/zhangxujun/Desktop

> <s_m_entry_id>
268

> <s_m_entry_name>
wee1_actives_glide_SP.130

> <s_m_subgroup_title>
wee1_actives_glide_SP

> <s_m_subgroupid>
wee1_actives_glide_SP


$$$$
