@<TRIPOS>MOLECULE
CHEMBL378347_7
36   40    1
SMALL
USER_CHARGES


@<TRIPOS>ATOM
      1 C1         -0.4919   52.0065   30.0556 C.ar      1 UNK         0.0000 
      2 C2         -0.5643   51.9584   28.6636 C.ar      1 UNK         0.0000 
      3 C3          0.5373   52.4426   27.9493 C.ar      1 UNK         0.0000 
      4 C4          1.6847   52.9717   28.5954 C.ar      1 UNK         0.0000 
      5 C5          1.7220   52.9738   30.0010 C.ar      1 UNK         0.0000 
      6 C6          0.6346   52.4883   30.7157 C.ar      1 UNK         0.0000 
      7 O7          0.7043   52.4027   32.0815 O.3       1 UNK         0.0000 
      8 C8          2.5919   53.3785   27.5859 C.ar      1 UNK         0.0000 
      9 C9          2.0106   53.0597   26.3380 C.ar      1 UNK         0.0000 
     10 N10         0.7753   52.4964   26.5917 N.pl3     1 UNK         0.0000 
     11 H11         0.1372   52.1610   25.8846 H         1 UNK         0.0000 
     12 C12         2.6693   53.2969   25.1257 C.ar      1 UNK         0.0000 
     13 C13         3.9530   53.8830   25.1378 C.ar      1 UNK         0.0000 
     14 C14         4.5251   54.2222   26.3911 C.ar      1 UNK         0.0000 
     15 C15         3.8627   53.9743   27.5771 C.ar      1 UNK         0.0000 
     16 C16         4.7054   54.4601   28.6937 C.2       1 UNK         0.0000 
     17 O17         4.4459   54.4966   29.8887 O.2       1 UNK         0.0000 
     18 N18         5.8353   54.8960   28.1255 N.am      1 UNK         0.0000 
     19 C19         5.8152   54.8964   26.7859 C.2       1 UNK         0.0000 
     20 O20         6.7036   55.4065   26.1061 O.2       1 UNK         0.0000 
     21 C21         4.6370   54.0969   23.8108 C.ar      1 UNK         0.0000 
     22 C22         6.0340   54.0974   23.6754 C.ar      1 UNK         0.0000 
     23 C23         6.6193   54.4953   22.4783 C.ar      1 UNK         0.0000 
     24 N24         5.9038   54.6765   21.3434 N.ar      1 UNK         0.0000 
     25 C25         4.5620   54.5000   21.4196 C.ar      1 UNK         0.0000 
     26 C26         3.8976   54.2775   22.6251 C.ar      1 UNK         0.0000 
     27 H27        -1.2994   51.5909   30.6398 H         1 UNK         0.0000 
     28 H28        -1.4270   51.5304   28.1719 H         1 UNK         0.0000 
     29 H29         2.5851   53.2989   30.5462 H         1 UNK         0.0000 
     30 H30        -0.1457   52.1026   32.4739 H         1 UNK         0.0000 
     31 H31         2.2002   52.9956   24.2024 H         1 UNK         0.0000 
     32 H32         6.5924   55.3024   28.6633 H         1 UNK         0.0000 
     33 H33         6.6863   53.8046   24.4789 H         1 UNK         0.0000 
     34 H34         7.6936   54.5626   22.3901 H         1 UNK         0.0000 
     35 H35         4.0069   54.6309   20.5013 H         1 UNK         0.0000 
     36 H36         2.8185   54.2671   22.6142 H         1 UNK         0.0000 
@<TRIPOS>BOND
     1    1    6 ar   
     2    1    2 ar   
     3    1   27 1    
     4    2    3 ar   
     5    2   28 1    
     6    3   10 ar   
     7    3    4 ar   
     8    4    5 ar   
     9    4    8 ar   
    10    5    6 ar   
    11    5   29 1    
    12    6    7 1    
    13    7   30 1    
    14    8   15 ar   
    15    8    9 ar   
    16    9   10 ar   
    17    9   12 ar   
    18   10   11 1    
    19   12   13 ar   
    20   12   31 1    
    21   13   14 ar   
    22   13   21 1    
    23   14   19 1    
    24   14   15 ar   
    25   15   16 1    
    26   16   17 2    
    27   16   18 am   BACKBONE|DICT|INTERRES
    28   18   19 am   BACKBONE|DICT|INTERRES
    29   18   32 1    
    30   19   20 2    
    31   21   26 ar   
    32   21   22 ar   
    33   22   23 ar   
    34   22   33 1    
    35   23   24 ar   
    36   23   34 1    
    37   24   25 ar   
    38   25   26 ar   
    39   25   35 1    
    40   26   36 1    
@<TRIPOS>SUBSTRUCTURE
     1 UNK         1 GROUP             0       ****    0 ROOT    
