@<TRIPOS>MOLECULE
CHEMBL472208_4
50   55    1
SMALL
USER_CHARGES


@<TRIPOS>ATOM
      1 C1          0.0956   51.8719   29.4597 C.ar      1 UNK         0.0000 
      2 C2         -0.1491   52.8045   30.4623 C.ar      1 UNK         0.0000 
      3 C3          0.4081   54.0784   30.3808 C.ar      1 UNK         0.0000 
      4 C4          1.2455   54.4119   29.3159 C.ar      1 UNK         0.0000 
      5 C5          1.5651   53.4457   28.3376 C.ar      1 UNK         0.0000 
      6 C6          0.9584   52.1861   28.4162 C.ar      1 UNK         0.0000 
      7 C7          2.5226   53.7008   27.2257 C.ar      1 UNK         0.0000 
      8 C8          2.0693   53.5816   25.9054 C.ar      1 UNK         0.0000 
      9 C9          2.9754   53.8172   24.8559 C.ar      1 UNK         0.0000 
     10 C10         4.3310   54.1632   25.0960 C.ar      1 UNK         0.0000 
     11 C11         4.9505   54.3512   23.8371 C.ar      1 UNK         0.0000 
     12 C12         6.2508   54.7286   23.4380 C.ar      1 UNK         0.0000 
     13 C13         6.5248   54.8965   22.0819 C.ar      1 UNK         0.0000 
     14 C14         5.5519   54.6340   21.1235 C.ar      1 UNK         0.0000 
     15 C15         4.2692   54.2099   21.4700 C.ar      1 UNK         0.0000 
     16 C16         3.9689   54.0971   22.8365 C.ar      1 UNK         0.0000 
     17 N17         2.7812   53.7795   23.4830 N.pl3     1 UNK         0.0000 
     18 C18         1.4987   53.4833   22.8465 C.3       1 UNK         0.0000 
     19 C19         1.0743   52.0167   23.0590 C.3       1 UNK         0.0000 
     20 S20        -0.7769   51.9136   23.1271 S.3       1 UNK         0.0000 
     21 O21        -1.2935   52.0963   21.6966 O.2       1 UNK         0.0000 
     22 C22        -0.8543   50.1120   23.4957 C.ar      1 UNK         0.0000 
     23 N23        -0.4560   49.6191   24.6438 N.ar      1 UNK         0.0000 
     24 C24        -0.6930   48.3451   24.4833 C.ar      1 UNK         0.0000 
     25 N25        -1.1968   48.0135   23.3271 N.2       1 UNK         0.0000 
     26 N26        -1.3048   49.2108   22.6586 N.ar      1 UNK         0.0000 
     27 O27         7.7747   55.2978   21.6817 O.3       1 UNK         0.0000 
     28 C28         4.7518   54.2510   26.4370 C.ar      1 UNK         0.0000 
     29 C29         3.8671   54.0183   27.4605 C.ar      1 UNK         0.0000 
     30 C30         4.6312   54.1545   28.7372 C.2       1 UNK         0.0000 
     31 O31         4.2396   54.0118   29.8932 O.2       1 UNK         0.0000 
     32 N32         5.8785   54.4966   28.3747 N.am      1 UNK         0.0000 
     33 C33         6.0622   54.5830   27.0485 C.2       1 UNK         0.0000 
     34 O34         7.1044   54.8969   26.4939 O.2       1 UNK         0.0000 
     35 Cl35        1.8392   56.0393   29.2446 Cl        1 UNK         0.0000 
     36 H36        -0.3693   50.8967   29.5038 H         1 UNK         0.0000 
     37 H37        -0.8039   52.5449   31.2814 H         1 UNK         0.0000 
     38 H38         0.1834   54.8109   31.1415 H         1 UNK         0.0000 
     39 H39         1.1615   51.4328   27.6662 H         1 UNK         0.0000 
     40 H40         1.0401   53.3182   25.7074 H         1 UNK         0.0000 
     41 H41         7.0289   54.9276   24.1529 H         1 UNK         0.0000 
     42 H42         5.7992   54.7560   20.0794 H         1 UNK         0.0000 
     43 H43         3.5338   54.0212   20.7005 H         1 UNK         0.0000 
     44 H44         1.5541   53.6968   21.7795 H         1 UNK         0.0000 
     45 H45         0.7743   54.1746   23.2815 H         1 UNK         0.0000 
     46 H46         1.4534   51.6032   23.9933 H         1 UNK         0.0000 
     47 H47         1.4396   51.3827   22.2508 H         1 UNK         0.0000 
     48 H48        -0.4925   47.6214   25.2608 H         1 UNK         0.0000 
     49 H49         8.4248   55.2968   22.3984 H         1 UNK         0.0000 
     50 H50         6.6062   54.7216   29.0387 H         1 UNK         0.0000 
@<TRIPOS>BOND
     1    1    6 ar   
     2    1    2 ar   
     3    1   36 1    
     4    2    3 ar   
     5    2   37 1    
     6    3    4 ar   
     7    3   38 1    
     8    4    5 ar   
     9    4   35 1    
    10    5    6 ar   
    11    5    7 1    
    12    6   39 1    
    13    7   29 ar   
    14    7    8 ar   
    15    8    9 ar   
    16    8   40 1    
    17    9   17 ar   
    18    9   10 ar   
    19   10   11 ar   
    20   10   28 ar   
    21   11   16 ar   
    22   11   12 ar   
    23   12   13 ar   
    24   12   41 1    
    25   13   14 ar   
    26   13   27 1    
    27   14   15 ar   
    28   14   42 1    
    29   15   16 ar   
    30   15   43 1    
    31   16   17 ar   
    32   17   18 1    
    33   18   19 1    
    34   18   44 1    
    35   18   45 1    
    36   19   20 1    
    37   19   46 1    
    38   19   47 1    
    39   20   21 2    
    40   20   22 1    
    41   22   23 ar   
    42   22   26 ar   
    43   23   24 ar   
    44   24   48 1    
    45   24   25 ar   
    46   25   26 ar   
    47   27   49 1    
    48   28   33 1    
    49   28   29 ar   
    50   29   30 1    
    51   30   31 2    
    52   30   32 am   BACKBONE|DICT|INTERRES
    53   32   33 am   BACKBONE|DICT|INTERRES
    54   32   50 1    
    55   33   34 2    
@<TRIPOS>SUBSTRUCTURE
     1 UNK         1 GROUP             0       ****    0 ROOT    
