@<TRIPOS>MOLECULE
CHEMBL486661_129
59   64    1
SMALL
USER_CHARGES


@<TRIPOS>ATOM
      1 C1          0.1093   51.8814   29.5048 C.ar      1 UNK         0.0000 
      2 C2         -0.1854   52.8226   30.4822 C.ar      1 UNK         0.0000 
      3 C3          0.3560   54.1037   30.4120 C.ar      1 UNK         0.0000 
      4 C4          1.2169   54.4451   29.3680 C.ar      1 UNK         0.0000 
      5 C5          1.5768   53.4747   28.4111 C.ar      1 UNK         0.0000 
      6 C6          1.0001   52.1997   28.4873 C.ar      1 UNK         0.0000 
      7 C7          2.5332   53.7406   27.3085 C.ar      1 UNK         0.0000 
      8 C8          2.0702   53.6245   25.9950 C.ar      1 UNK         0.0000 
      9 C9          2.9680   53.8428   24.9409 C.ar      1 UNK         0.0000 
     10 C10         4.3268   54.1850   25.1661 C.ar      1 UNK         0.0000 
     11 C11         4.9366   54.3694   23.9001 C.ar      1 UNK         0.0000 
     12 C12         6.2283   54.7502   23.4780 C.ar      1 UNK         0.0000 
     13 C13         6.4854   54.8965   22.1147 C.ar      1 UNK         0.0000 
     14 C14         5.5044   54.6024   21.1737 C.ar      1 UNK         0.0000 
     15 C15         4.2276   54.1796   21.5423 C.ar      1 UNK         0.0000 
     16 C16         3.9455   54.0964   22.9137 C.ar      1 UNK         0.0000 
     17 N17         2.7645   53.7816   23.5742 N.pl3     1 UNK         0.0000 
     18 C18         1.4940   53.4351   22.9380 C.3       1 UNK         0.0000 
     19 C19         1.4018   51.9417   22.5469 C.3       1 UNK         0.0000 
     20 C20         1.4432   50.9376   23.7320 C.3       1 UNK         0.0000 
     21 N21         0.2828   50.0423   23.7887 N.3       1 UNK         0.0000 
     22 C22         0.2253   49.3427   25.0837 C.3       1 UNK         0.0000 
     23 C23        -0.9385   48.3263   25.1539 C.3       1 UNK         0.0000 
     24 O24        -0.8993   47.4256   24.0482 O.3       1 UNK         0.0000 
     25 C25        -0.9227   48.0976   22.7914 C.3       1 UNK         0.0000 
     26 C26         0.2605   49.0845   22.6740 C.3       1 UNK         0.0000 
     27 O27         7.7225   55.3050   21.6819 O.3       1 UNK         0.0000 
     28 C28         4.7570   54.2691   26.5036 C.ar      1 UNK         0.0000 
     29 C29         3.8788   54.0489   27.5350 C.ar      1 UNK         0.0000 
     30 C30         4.6465   54.1973   28.8059 C.2       1 UNK         0.0000 
     31 O31         4.2481   54.0948   29.9640 O.2       1 UNK         0.0000 
     32 N32         5.9015   54.4967   28.4308 N.am      1 UNK         0.0000 
     33 C33         6.0712   54.5866   27.1020 C.2       1 UNK         0.0000 
     34 O34         7.1044   54.8967   26.5325 O.2       1 UNK         0.0000 
     35 Cl35        1.7874   56.0820   29.2818 Cl        1 UNK         0.0000 
     36 H36        -0.3424   50.9008   29.5457 H         1 UNK         0.0000 
     37 H37        -0.8621   52.5606   31.2809 H         1 UNK         0.0000 
     38 H38         0.0943   54.8360   31.1603 H         1 UNK         0.0000 
     39 H39         1.2458   51.4457   27.7526 H         1 UNK         0.0000 
     40 H40         1.0382   53.3657   25.8133 H         1 UNK         0.0000 
     41 H41         7.0128   54.9691   24.1799 H         1 UNK         0.0000 
     42 H42         5.7385   54.7028   20.1234 H         1 UNK         0.0000 
     43 H43         3.4825   53.9684   20.7889 H         1 UNK         0.0000 
     44 H44         1.3680   54.0899   22.0813 H         1 UNK         0.0000 
     45 H45         0.6814   53.6994   23.6141 H         1 UNK         0.0000 
     46 H46         2.1912   51.6908   21.8365 H         1 UNK         0.0000 
     47 H47         0.4792   51.8201   21.9786 H         1 UNK         0.0000 
     48 H48         1.5048   51.4781   24.6721 H         1 UNK         0.0000 
     49 H49         2.3472   50.3297   23.6709 H         1 UNK         0.0000 
     50 H50         0.1244   50.0712   25.8896 H         1 UNK         0.0000 
     51 H51         1.1663   48.8232   25.2711 H         1 UNK         0.0000 
     52 H52        -0.8957   47.7558   26.0817 H         1 UNK         0.0000 
     53 H53        -1.8865   48.8664   25.1581 H         1 UNK         0.0000 
     54 H54        -0.8961   47.3615   21.9877 H         1 UNK         0.0000 
     55 H55        -1.8601   48.6465   22.6854 H         1 UNK         0.0000 
     56 H56         1.2034   48.5350   22.6567 H         1 UNK         0.0000 
     57 H57         0.2061   49.6121   21.7218 H         1 UNK         0.0000 
     58 H58         8.3876   55.3309   22.3833 H         1 UNK         0.0000 
     59 H59         6.6373   54.7158   29.0884 H         1 UNK         0.0000 
@<TRIPOS>BOND
     1    1    6 ar   
     2    1    2 ar   
     3    1   36 1    
     4    2    3 ar   
     5    2   37 1    
     6    3    4 ar   
     7    3   38 1    
     8    4    5 ar   
     9    4   35 1    
    10    5    6 ar   
    11    5    7 1    
    12    6   39 1    
    13    7   29 ar   
    14    7    8 ar   
    15    8    9 ar   
    16    8   40 1    
    17    9   17 ar   
    18    9   10 ar   
    19   10   11 ar   
    20   10   28 ar   
    21   11   16 ar   
    22   11   12 ar   
    23   12   13 ar   
    24   12   41 1    
    25   13   14 ar   
    26   13   27 1    
    27   14   15 ar   
    28   14   42 1    
    29   15   16 ar   
    30   15   43 1    
    31   16   17 ar   
    32   17   18 1    
    33   18   19 1    
    34   18   44 1    
    35   18   45 1    
    36   19   20 1    
    37   19   46 1    
    38   19   47 1    
    39   20   21 1    
    40   20   48 1    
    41   20   49 1    
    42   21   26 1    
    43   21   22 1    
    44   22   23 1    
    45   22   50 1    
    46   22   51 1    
    47   23   24 1    
    48   23   52 1    
    49   23   53 1    
    50   24   25 1    
    51   25   26 1    
    52   25   54 1    
    53   25   55 1    
    54   26   56 1    
    55   26   57 1    
    56   27   58 1    
    57   28   33 1    
    58   28   29 ar   
    59   29   30 1    
    60   30   31 2    
    61   30   32 am   BACKBONE|DICT|INTERRES
    62   32   33 am   BACKBONE|DICT|INTERRES
    63   32   59 1    
    64   33   34 2    
@<TRIPOS>SUBSTRUCTURE
     1 UNK         1 GROUP             0       ****    0 ROOT    
