@<TRIPOS>MOLECULE
CHEMBL607707_70
57   59    1
SMALL
USER_CHARGES


@<TRIPOS>ATOM
      1 C1          7.2775   53.3278   23.4645 C.3       1 UNK         0.0000 
      2 C2          6.6189   54.6509   23.0693 C.3       1 UNK         0.0000 
      3 O3          5.2040   54.4967   22.9514 O.3       1 UNK         0.0000 
      4 C4          4.4105   54.1591   24.0365 C.ar      1 UNK         0.0000 
      5 C5          4.7892   54.4232   25.3566 C.ar      1 UNK         0.0000 
      6 C6          3.9128   54.1622   26.4352 C.ar      1 UNK         0.0000 
      7 C7          2.6153   53.6118   26.1951 C.ar      1 UNK         0.0000 
      8 C8          2.2572   53.3457   24.8397 C.ar      1 UNK         0.0000 
      9 C9          3.1402   53.6101   23.7877 C.ar      1 UNK         0.0000 
     10 N10         2.6810   53.3539   22.4812 N.am      1 UNK         0.0000 
     11 C11         3.3355   52.6590   21.5230 C.2       1 UNK         0.0000 
     12 O12         4.4215   52.0953   21.6817 O.2       1 UNK         0.0000 
     13 C13         2.6339   52.6400   20.2628 C.2       1 UNK         0.0000 
     14 C14         3.2461   52.3340   19.1008 C.2       1 UNK         0.0000 
     15 C15         2.5584   52.3184   17.7510 C.3       1 UNK         0.0000 
     16 N16         2.3044   50.8967   17.2041 N.4       1 UNK         0.0000 
     17 C17         1.4213   50.0296   18.1256 C.3       1 UNK         0.0000 
     18 C18         1.7630   50.9244   15.7609 C.3       1 UNK         0.0000 
     19 C19         1.7415   53.4187   27.3302 C.ar      1 UNK         0.0000 
     20 C20         2.1949   53.8517   28.5937 C.ar      1 UNK         0.0000 
     21 C21         3.4883   54.3542   28.7145 C.ar      1 UNK         0.0000 
     22 N22         4.3412   54.4966   27.6788 N.ar      1 UNK         0.0000 
     23 C23         1.3643   53.8059   29.7962 C.1       1 UNK         0.0000 
     24 N24         0.7042   53.7729   30.7446 N.1       1 UNK         0.0000 
     25 N25         0.4328   52.8967   27.2111 N.pl3     1 UNK         0.0000 
     26 C26        -0.0020   51.7514   26.5370 C.ar      1 UNK         0.0000 
     27 C27         0.7040   50.5541   26.6396 C.ar      1 UNK         0.0000 
     28 C28         0.2825   49.4220   25.9419 C.ar      1 UNK         0.0000 
     29 C29        -0.8681   49.4764   25.1556 C.ar      1 UNK         0.0000 
     30 C30        -1.6020   50.6656   25.0795 C.ar      1 UNK         0.0000 
     31 C31        -1.1741   51.7959   25.7806 C.ar      1 UNK         0.0000 
     32 Cl32       -3.0320   50.7571   24.1139 Cl        1 UNK         0.0000 
     33 F33        -1.2653   48.3754   24.4748 F         1 UNK         0.0000 
     34 H34         8.3493   53.2973   23.2816 H         1 UNK         0.0000 
     35 H35         7.1377   53.1603   24.5307 H         1 UNK         0.0000 
     36 H36         6.8305   52.5188   22.8817 H         1 UNK         0.0000 
     37 H37         6.9868   54.9506   22.0877 H         1 UNK         0.0000 
     38 H38         6.8872   55.4599   23.7500 H         1 UNK         0.0000 
     39 H39         5.7473   54.8668   25.5770 H         1 UNK         0.0000 
     40 H40         1.2764   52.9534   24.6190 H         1 UNK         0.0000 
     41 H41         1.7636   53.7053   22.2556 H         1 UNK         0.0000 
     42 H42         1.5844   52.8968   20.2791 H         1 UNK         0.0000 
     43 H43         4.3035   52.0967   19.0821 H         1 UNK         0.0000 
     44 H44         3.1792   52.8270   17.0111 H         1 UNK         0.0000 
     45 H45         1.5809   52.8038   17.7846 H         1 UNK         0.0000 
     46 H46         0.4511   50.5182   18.2244 H         1 UNK         0.0000 
     47 H47         1.9331   49.9457   19.0854 H         1 UNK         0.0000 
     48 H48         1.3359   49.0463   17.6605 H         1 UNK         0.0000 
     49 H49         0.7839   51.4059   15.7700 H         1 UNK         0.0000 
     50 H50         2.4814   51.4792   15.1551 H         1 UNK         0.0000 
     51 H51         1.7036   49.8890   15.4205 H         1 UNK         0.0000 
     52 H52         3.8801   54.6795   29.6685 H         1 UNK         0.0000 
     53 H53        -0.1674   53.1324   27.9888 H         1 UNK         0.0000 
     54 H54         1.5683   50.4919   27.2816 H         1 UNK         0.0000 
     55 H55         0.8342   48.4967   26.0287 H         1 UNK         0.0000 
     56 H56        -1.7392   52.7139   25.7152 H         1 UNK         0.0000 
     57 H57         3.2067   50.4020   17.1423 H         1 UNK         0.0000 
@<TRIPOS>BOND
     1    1    2 1    
     2    1   34 1    
     3    1   35 1    
     4    1   36 1    
     5    2    3 1    
     6    2   37 1    
     7    2   38 1    
     8    3    4 1    
     9    4    9 ar   
    10    4    5 ar   
    11    5    6 ar   
    12    5   39 1    
    13    6   22 ar   
    14    6    7 ar   
    15    7    8 ar   
    16    7   19 ar   
    17    8    9 ar   
    18    8   40 1    
    19    9   10 1    
    20   10   11 am   BACKBONE|DICT|INTERRES
    21   10   41 1    
    22   11   12 2    
    23   11   13 1    
    24   13   14 2    
    25   13   42 1    
    26   14   15 1    
    27   14   43 1    
    28   15   16 1    
    29   15   44 1    
    30   15   45 1    
    31   16   17 1    
    32   16   18 1    
    33   16   57 1    
    34   17   46 1    
    35   17   47 1    
    36   17   48 1    
    37   18   49 1    
    38   18   50 1    
    39   18   51 1    
    40   19   20 ar   
    41   19   25 1    
    42   20   21 ar   
    43   20   23 1    
    44   21   22 ar   
    45   21   52 1    
    46   23   24 3    
    47   25   26 1    
    48   25   53 1    
    49   26   31 ar   
    50   26   27 ar   
    51   27   28 ar   
    52   27   54 1    
    53   28   29 ar   
    54   28   55 1    
    55   29   30 ar   
    56   29   33 1    
    57   30   31 ar   
    58   30   32 1    
    59   31   56 1    
@<TRIPOS>SUBSTRUCTURE
     1 UNK         1 GROUP             0       ****    0 ROOT    
