@<TRIPOS>MOLECULE
CHEMBL510668_115
59   64    1
SMALL
USER_CHARGES


@<TRIPOS>ATOM
      1 C1         -0.2006   52.7558   30.3304 C.ar      1 UNK         0.0000 
      2 C2         -0.0165   51.8379   29.2997 C.ar      1 UNK         0.0000 
      3 C3          0.8660   52.1284   28.2676 C.ar      1 UNK         0.0000 
      4 C4          1.5497   53.3499   28.2456 C.ar      1 UNK         0.0000 
      5 C5          1.3068   54.2920   29.2549 C.ar      1 UNK         0.0000 
      6 C6          0.4462   53.9894   30.3060 C.ar      1 UNK         0.0000 
      7 C7          2.5230   53.6276   27.1558 C.ar      1 UNK         0.0000 
      8 C8          2.0835   53.5159   25.8298 C.ar      1 UNK         0.0000 
      9 C9          2.9985   53.7382   24.7905 C.ar      1 UNK         0.0000 
     10 C10         4.3484   54.1042   25.0483 C.ar      1 UNK         0.0000 
     11 C11         4.9815   54.3078   23.7992 C.ar      1 UNK         0.0000 
     12 C12         6.2745   54.7198   23.4188 C.ar      1 UNK         0.0000 
     13 C13         6.5627   54.8970   22.0688 C.ar      1 UNK         0.0000 
     14 C14         5.6092   54.6139   21.0969 C.ar      1 UNK         0.0000 
     15 C15         4.3347   54.1527   21.4252 C.ar      1 UNK         0.0000 
     16 C16         4.0197   54.0299   22.7870 C.ar      1 UNK         0.0000 
     17 N17         2.8310   53.6696   23.4133 N.pl3     1 UNK         0.0000 
     18 C18         1.5944   53.2878   22.7200 C.3       1 UNK         0.0000 
     19 C19         1.3638   51.7545   22.6547 C.3       1 UNK         0.0000 
     20 C20         0.7313   51.1565   23.9334 C.3       1 UNK         0.0000 
     21 N21         0.2153   49.7878   23.7993 N.3       1 UNK         0.0000 
     22 C22        -0.9504   49.7109   22.9041 C.3       1 UNK         0.0000 
     23 C23        -1.5873   48.3045   22.8831 C.3       1 UNK         0.0000 
     24 O24        -1.9175   47.8734   24.1978 O.3       1 UNK         0.0000 
     25 C25        -0.7999   47.8698   25.0817 C.3       1 UNK         0.0000 
     26 C26        -0.1109   49.2516   25.1331 C.3       1 UNK         0.0000 
     27 O27         7.8061   55.3302   21.6814 O.3       1 UNK         0.0000 
     28 C28         4.7549   54.2097   26.3944 C.ar      1 UNK         0.0000 
     29 C29         3.8598   53.9744   27.4088 C.ar      1 UNK         0.0000 
     30 C30         4.6008   54.1596   28.6932 C.2       1 UNK         0.0000 
     31 O31         4.1921   54.0609   29.8481 O.2       1 UNK         0.0000 
     32 N32         5.8533   54.4967   28.3424 N.am      1 UNK         0.0000 
     33 C33         6.0541   54.5702   27.0184 C.2       1 UNK         0.0000 
     34 O34         7.1041   54.8958   26.4792 O.2       1 UNK         0.0000 
     35 H35        -0.8706   52.5109   31.1432 H         1 UNK         0.0000 
     36 H36        -0.5447   50.8968   29.3188 H         1 UNK         0.0000 
     37 H37         1.0277   51.3928   27.4921 H         1 UNK         0.0000 
     38 H38         1.8115   55.2483   29.2428 H         1 UNK         0.0000 
     39 H39         0.2843   54.7036   31.0994 H         1 UNK         0.0000 
     40 H40         1.0548   53.2684   25.6280 H         1 UNK         0.0000 
     41 H41         7.0373   54.9428   24.1428 H         1 UNK         0.0000 
     42 H42         5.8643   54.7433   20.0569 H         1 UNK         0.0000 
     43 H43         3.6134   53.9456   20.6462 H         1 UNK         0.0000 
     44 H44         1.6248   53.6967   21.7093 H         1 UNK         0.0000 
     45 H45         0.7568   53.7917   23.2040 H         1 UNK         0.0000 
     46 H46         2.3330   51.2768   22.4925 H         1 UNK         0.0000 
     47 H47         0.7834   51.5131   21.7664 H         1 UNK         0.0000 
     48 H48        -0.0492   51.8171   24.3142 H         1 UNK         0.0000 
     49 H49         1.5045   51.1441   24.7010 H         1 UNK         0.0000 
     50 H50        -0.6761   49.9922   21.8885 H         1 UNK         0.0000 
     51 H51        -1.7004   50.4357   23.2252 H         1 UNK         0.0000 
     52 H52        -2.4918   48.3102   22.2744 H         1 UNK         0.0000 
     53 H53        -0.8950   47.5972   22.4239 H         1 UNK         0.0000 
     54 H54        -1.1365   47.5883   26.0804 H         1 UNK         0.0000 
     55 H55        -0.0757   47.1237   24.7554 H         1 UNK         0.0000 
     56 H56        -0.7679   49.9460   25.6607 H         1 UNK         0.0000 
     57 H57         0.7970   49.1906   25.7356 H         1 UNK         0.0000 
     58 H58         8.4481   55.3470   22.4039 H         1 UNK         0.0000 
     59 H59         6.5711   54.7374   29.0114 H         1 UNK         0.0000 
@<TRIPOS>BOND
     1    1    6 ar   
     2    1    2 ar   
     3    1   35 1    
     4    2    3 ar   
     5    2   36 1    
     6    3    4 ar   
     7    3   37 1    
     8    4    5 ar   
     9    4    7 1    
    10    5    6 ar   
    11    5   38 1    
    12    6   39 1    
    13    7   29 ar   
    14    7    8 ar   
    15    8    9 ar   
    16    8   40 1    
    17    9   17 ar   
    18    9   10 ar   
    19   10   11 ar   
    20   10   28 ar   
    21   11   16 ar   
    22   11   12 ar   
    23   12   13 ar   
    24   12   41 1    
    25   13   14 ar   
    26   13   27 1    
    27   14   15 ar   
    28   14   42 1    
    29   15   16 ar   
    30   15   43 1    
    31   16   17 ar   
    32   17   18 1    
    33   18   19 1    
    34   18   44 1    
    35   18   45 1    
    36   19   20 1    
    37   19   46 1    
    38   19   47 1    
    39   20   21 1    
    40   20   48 1    
    41   20   49 1    
    42   21   26 1    
    43   21   22 1    
    44   22   23 1    
    45   22   50 1    
    46   22   51 1    
    47   23   24 1    
    48   23   52 1    
    49   23   53 1    
    50   24   25 1    
    51   25   26 1    
    52   25   54 1    
    53   25   55 1    
    54   26   56 1    
    55   26   57 1    
    56   27   58 1    
    57   28   33 1    
    58   28   29 ar   
    59   29   30 1    
    60   30   31 2    
    61   30   32 am   BACKBONE|DICT|INTERRES
    62   32   33 am   BACKBONE|DICT|INTERRES
    63   32   59 1    
    64   33   34 2    
@<TRIPOS>SUBSTRUCTURE
     1 UNK         1 GROUP             0       ****    0 ROOT    
