@<TRIPOS>MOLECULE
CHEMBL529897_67
51   56    1
SMALL
USER_CHARGES


@<TRIPOS>ATOM
      1 C1          0.1259   51.8760   29.5063 C.ar      1 UNK         0.0000 
      2 C2         -0.1565   52.8347   30.4716 C.ar      1 UNK         0.0000 
      3 C3          0.3750   54.1159   30.3598 C.ar      1 UNK         0.0000 
      4 C4          1.2181   54.4356   29.2950 C.ar      1 UNK         0.0000 
      5 C5          1.5776   53.4446   28.3597 C.ar      1 UNK         0.0000 
      6 C6          1.0035   52.1723   28.4693 C.ar      1 UNK         0.0000 
      7 C7          2.5384   53.6964   27.2553 C.ar      1 UNK         0.0000 
      8 C8          2.0795   53.6097   25.9378 C.ar      1 UNK         0.0000 
      9 C9          2.9757   53.8943   24.8962 C.ar      1 UNK         0.0000 
     10 C10         4.3435   54.1932   25.1318 C.ar      1 UNK         0.0000 
     11 C11         4.9641   54.3991   23.8736 C.ar      1 UNK         0.0000 
     12 C12         6.2813   54.7076   23.4615 C.ar      1 UNK         0.0000 
     13 C13         6.5397   54.9302   22.1078 C.ar      1 UNK         0.0000 
     14 C14         5.5280   54.8026   21.1655 C.ar      1 UNK         0.0000 
     15 C15         4.2243   54.4712   21.5239 C.ar      1 UNK         0.0000 
     16 C16         3.9462   54.2795   22.8851 C.ar      1 UNK         0.0000 
     17 N17         2.7497   53.9979   23.5381 N.pl3     1 UNK         0.0000 
     18 C18         1.4242   53.8916   22.9290 C.3       1 UNK         0.0000 
     19 C19         0.9742   52.4617   22.5409 C.3       1 UNK         0.0000 
     20 N20         1.7662   51.8791   21.4649 N.pl3     1 UNK         0.0000 
     21 C21         3.0779   51.4625   21.5747 C.ar      1 UNK         0.0000 
     22 C22         3.5016   50.9468   20.3777 C.ar      1 UNK         0.0000 
     23 N23         2.4421   51.0528   19.4961 N.pl3     1 UNK         0.0000 
     24 C24         1.3750   51.6246   20.1613 C.ar      1 UNK         0.0000 
     25 O25         7.7934   55.2970   21.6819 O.3       1 UNK         0.0000 
     26 C26         4.7672   54.2417   26.4716 C.ar      1 UNK         0.0000 
     27 C27         3.8822   54.0059   27.4935 C.ar      1 UNK         0.0000 
     28 C28         4.6385   54.1560   28.7707 C.2       1 UNK         0.0000 
     29 O29         4.2335   54.0315   29.9243 O.2       1 UNK         0.0000 
     30 N30         5.8897   54.4891   28.4085 N.am      1 UNK         0.0000 
     31 C31         6.0716   54.5729   27.0818 C.2       1 UNK         0.0000 
     32 O32         7.1044   54.8965   26.5199 O.2       1 UNK         0.0000 
     33 Cl33        1.7691   56.0732   29.1534 Cl        1 UNK         0.0000 
     34 H34        -0.3252   50.8967   29.5733 H         1 UNK         0.0000 
     35 H35        -0.8267   52.5881   31.2816 H         1 UNK         0.0000 
     36 H36         0.1173   54.8680   31.0914 H         1 UNK         0.0000 
     37 H37         1.2411   51.4015   27.7494 H         1 UNK         0.0000 
     38 H38         1.0449   53.3721   25.7410 H         1 UNK         0.0000 
     39 H39         7.0864   54.8109   24.1676 H         1 UNK         0.0000 
     40 H40         5.7561   54.9729   20.1230 H         1 UNK         0.0000 
     41 H41         3.4641   54.3856   20.7631 H         1 UNK         0.0000 
     42 H42         1.4109   54.5545   22.0818 H         1 UNK         0.0000 
     43 H43         0.7028   54.3267   23.6216 H         1 UNK         0.0000 
     44 H44        -0.0696   52.4752   22.2247 H         1 UNK         0.0000 
     45 H45         1.0166   51.7908   23.4012 H         1 UNK         0.0000 
     46 H46         3.6131   51.6121   22.4817 H         1 UNK         0.0000 
     47 H47         4.4591   50.5519   20.0816 H         1 UNK         0.0000 
     48 H48         0.4072   51.8440   19.7336 H         1 UNK         0.0000 
     49 H49         8.4580   55.3007   22.3855 H         1 UNK         0.0000 
     50 H50         6.6160   54.7223   29.0722 H         1 UNK         0.0000 
     51 H51         2.4705   50.7716   18.5208 H         1 UNK         0.0000 
@<TRIPOS>BOND
     1    1    6 ar   
     2    1    2 ar   
     3    1   34 1    
     4    2    3 ar   
     5    2   35 1    
     6    3    4 ar   
     7    3   36 1    
     8    4    5 ar   
     9    4   33 1    
    10    5    6 ar   
    11    5    7 1    
    12    6   37 1    
    13    7   27 ar   
    14    7    8 ar   
    15    8    9 ar   
    16    8   38 1    
    17    9   17 ar   
    18    9   10 ar   
    19   10   11 ar   
    20   10   26 ar   
    21   11   16 ar   
    22   11   12 ar   
    23   12   13 ar   
    24   12   39 1    
    25   13   14 ar   
    26   13   25 1    
    27   14   15 ar   
    28   14   40 1    
    29   15   16 ar   
    30   15   41 1    
    31   16   17 ar   
    32   17   18 1    
    33   18   19 1    
    34   18   42 1    
    35   18   43 1    
    36   19   20 1    
    37   19   44 1    
    38   19   45 1    
    39   20   24 ar   
    40   20   21 ar   
    41   21   22 ar   
    42   21   46 1    
    43   22   23 ar   
    44   22   47 1    
    45   23   24 ar   
    46   23   51 1    
    47   24   48 1    
    48   25   49 1    
    49   26   31 1    
    50   26   27 ar   
    51   27   28 1    
    52   28   29 2    
    53   28   30 am   BACKBONE|DICT|INTERRES
    54   30   31 am   BACKBONE|DICT|INTERRES
    55   30   50 1    
    56   31   32 2    
@<TRIPOS>SUBSTRUCTURE
     1 UNK         1 GROUP             0       ****    0 ROOT    
