@<TRIPOS>MOLECULE
CHEMBL362692_72
75   79    1
SMALL
USER_CHARGES


@<TRIPOS>ATOM
      1 C1          2.3453   53.5288   24.0129 C.3       1 UNK         0.0000 
      2 N2          2.9130   53.7316   25.3611 N.pl3     1 UNK         0.0000 
      3 C3          4.2859   54.1069   25.4456 C.ar      1 UNK         0.0000 
      4 C4          4.8856   54.2288   26.7058 C.ar      1 UNK         0.0000 
      5 C5          4.0364   54.0699   27.8816 C.ar      1 UNK         0.0000 
      6 C6          2.7267   53.7614   27.7474 C.ar      1 UNK         0.0000 
      7 C7          2.1233   53.4343   26.4456 C.ar      1 UNK         0.0000 
      8 O8          1.0131   52.9010   26.3519 O.2       1 UNK         0.0000 
      9 C9          1.8723   53.7756   28.9564 C.ar      1 UNK         0.0000 
     10 C10         1.4725   54.9943   29.5406 C.ar      1 UNK         0.0000 
     11 C11         0.7047   54.9970   30.7005 C.ar      1 UNK         0.0000 
     12 C12         0.3060   53.8037   31.2847 C.ar      1 UNK         0.0000 
     13 C13         0.6724   52.5963   30.7082 C.ar      1 UNK         0.0000 
     14 C14         1.4617   52.5719   29.5568 C.ar      1 UNK         0.0000 
     15 Cl15        1.9033   51.0405   28.8809 Cl        1 UNK         0.0000 
     16 Cl16        1.9062   56.5306   28.8787 Cl        1 UNK         0.0000 
     17 C17         6.2495   54.5067   26.7556 C.ar      1 UNK         0.0000 
     18 N18         6.9816   54.6743   25.6245 N.ar      1 UNK         0.0000 
     19 C19         6.3212   54.5632   24.4415 C.ar      1 UNK         0.0000 
     20 N20         4.9993   54.2955   24.3014 N.ar      1 UNK         0.0000 
     21 N21         7.1021   54.7912   23.3083 N.pl3     1 UNK         0.0000 
     22 C22         6.8047   54.9950   21.9535 C.ar      1 UNK         0.0000 
     23 C23         7.7614   55.6980   21.2235 C.ar      1 UNK         0.0000 
     24 C24         7.5757   55.9517   19.8745 C.ar      1 UNK         0.0000 
     25 C25         6.4474   55.4592   19.2176 C.ar      1 UNK         0.0000 
     26 C26         5.4829   54.7474   19.9418 C.ar      1 UNK         0.0000 
     27 C27         5.6516   54.5294   21.3090 C.ar      1 UNK         0.0000 
     28 C28         6.2208   55.7673   17.7385 C.3       1 UNK         0.0000 
     29 C29         7.4803   55.6463   16.8264 C.3       1 UNK         0.0000 
     30 C30         7.3712   56.3851   15.4683 C.3       1 UNK         0.0000 
     31 C31         7.2794   57.9118   15.5879 C.2       1 UNK         0.0000 
     32 O32         7.5746   58.5068   16.6293 O.2       1 UNK         0.0000 
     33 O33         6.7568   58.4791   14.4754 O.3       1 UNK         0.0000 
     34 C34         6.4150   59.8651   14.4535 C.3       1 UNK         0.0000 
     35 C35         5.1588   60.0664   13.5940 C.3       1 UNK         0.0000 
     36 N36         3.8923   60.0953   14.4824 N.4       1 UNK         0.0000 
     37 C37         2.6894   60.6693   13.6945 C.3       1 UNK         0.0000 
     38 C38         1.4939   60.8023   14.6550 C.3       1 UNK         0.0000 
     39 C39         1.1486   59.4730   15.3483 C.3       1 UNK         0.0000 
     40 C40         2.3787   58.8642   16.0427 C.3       1 UNK         0.0000 
     41 C41         3.5688   58.7071   15.0867 C.3       1 UNK         0.0000 
     42 H42         1.3099   53.1878   24.0112 H         1 UNK         0.0000 
     43 H43         2.3842   54.4514   23.4402 H         1 UNK         0.0000 
     44 H44         2.9336   52.7860   23.4752 H         1 UNK         0.0000 
     45 H45         4.4436   54.3022   28.8568 H         1 UNK         0.0000 
     46 H46         0.4262   55.9341   31.1549 H         1 UNK         0.0000 
     47 H47        -0.3012   53.8056   32.1762 H         1 UNK         0.0000 
     48 H48         0.3214   51.6943   31.1809 H         1 UNK         0.0000 
     49 H49         6.7635   54.6018   27.7035 H         1 UNK         0.0000 
     50 H50         8.0965   54.8967   23.5209 H         1 UNK         0.0000 
     51 H51         8.6549   56.0924   21.6910 H         1 UNK         0.0000 
     52 H52         8.3207   56.5519   19.3692 H         1 UNK         0.0000 
     53 H53         4.5928   54.3770   19.4536 H         1 UNK         0.0000 
     54 H54         4.8901   53.9838   21.8399 H         1 UNK         0.0000 
     55 H55         5.7982   56.7725   17.7046 H         1 UNK         0.0000 
     56 H56         5.4484   55.1046   17.3425 H         1 UNK         0.0000 
     57 H57         7.6905   54.5908   16.6563 H         1 UNK         0.0000 
     58 H58         8.3752   56.0229   17.3210 H         1 UNK         0.0000 
     59 H59         6.4965   56.0299   14.9203 H         1 UNK         0.0000 
     60 H60         8.2393   56.1601   14.8427 H         1 UNK         0.0000 
     61 H61         7.2513   60.3995   14.0077 H         1 UNK         0.0000 
     62 H62         6.2672   60.2904   15.4512 H         1 UNK         0.0000 
     63 H63         5.0095   59.2734   12.8595 H         1 UNK         0.0000 
     64 H64         5.1952   61.0207   13.0711 H         1 UNK         0.0000 
     65 H65         2.4858   60.0144   12.8485 H         1 UNK         0.0000 
     66 H66         2.9931   61.6551   13.3421 H         1 UNK         0.0000 
     67 H67         0.6206   61.1673   14.1074 H         1 UNK         0.0000 
     68 H68         1.7260   61.5629   15.4052 H         1 UNK         0.0000 
     69 H69         0.3488   59.6244   16.0811 H         1 UNK         0.0000 
     70 H70         0.7587   58.7666   14.6108 H         1 UNK         0.0000 
     71 H71         2.6965   59.4873   16.8791 H         1 UNK         0.0000 
     72 H72         2.1136   57.8971   16.4683 H         1 UNK         0.0000 
     73 H73         3.3689   58.0183   14.2636 H         1 UNK         0.0000 
     74 H74         4.4374   58.3704   15.6532 H         1 UNK         0.0000 
     75 H75         4.0828   60.7420   15.2570 H         1 UNK         0.0000 
@<TRIPOS>BOND
     1    1    2 1    
     2    1   42 1    
     3    1   43 1    
     4    1   44 1    
     5    2    7 ar   
     6    2    3 ar   
     7    3   20 ar   
     8    3    4 ar   
     9    4    5 ar   
    10    4   17 ar   
    11    5    6 ar   
    12    5   45 1    
    13    6    7 ar   
    14    6    9 1    
    15    7    8 2    
    16    9   14 ar   
    17    9   10 ar   
    18   10   11 ar   
    19   10   16 1    
    20   11   12 ar   
    21   11   46 1    
    22   12   13 ar   
    23   12   47 1    
    24   13   14 ar   
    25   13   48 1    
    26   14   15 1    
    27   17   18 ar   
    28   17   49 1    
    29   18   19 ar   
    30   19   20 ar   
    31   19   21 1    
    32   21   22 1    
    33   21   50 1    
    34   22   27 ar   
    35   22   23 ar   
    36   23   24 ar   
    37   23   51 1    
    38   24   25 ar   
    39   24   52 1    
    40   25   26 ar   
    41   25   28 1    
    42   26   27 ar   
    43   26   53 1    
    44   27   54 1    
    45   28   29 1    
    46   28   55 1    
    47   28   56 1    
    48   29   30 1    
    49   29   57 1    
    50   29   58 1    
    51   30   31 1    
    52   30   59 1    
    53   30   60 1    
    54   31   32 2    
    55   31   33 1    
    56   33   34 1    
    57   34   35 1    
    58   34   61 1    
    59   34   62 1    
    60   35   36 1    
    61   35   63 1    
    62   35   64 1    
    63   36   41 1    
    64   36   37 1    
    65   36   75 1    
    66   37   38 1    
    67   37   65 1    
    68   37   66 1    
    69   38   39 1    
    70   38   67 1    
    71   38   68 1    
    72   39   40 1    
    73   39   69 1    
    74   39   70 1    
    75   40   41 1    
    76   40   71 1    
    77   40   72 1    
    78   41   73 1    
    79   41   74 1    
@<TRIPOS>SUBSTRUCTURE
     1 UNK         1 GROUP             0       ****    0 ROOT    
