@<TRIPOS>MOLECULE
CHEMBL379975_47
37   41    1
SMALL
USER_CHARGES


@<TRIPOS>ATOM
      1 C1          0.0352   53.9686   30.0215 C.ar      1 UNK         0.0000 
      2 C2          0.4825   53.1700   31.0666 C.ar      1 UNK         0.0000 
      3 C3          1.6879   52.4947   30.9360 C.ar      1 UNK         0.0000 
      4 C4          2.4359   52.5986   29.7629 C.ar      1 UNK         0.0000 
      5 C5          1.9945   53.4118   28.6987 C.ar      1 UNK         0.0000 
      6 C6          0.7857   54.0950   28.8587 C.ar      1 UNK         0.0000 
      7 C7          2.7490   53.5856   27.4192 C.ar      1 UNK         0.0000 
      8 C8          2.1007   53.3059   26.2034 C.ar      1 UNK         0.0000 
      9 C9          2.8018   53.5281   25.0070 C.ar      1 UNK         0.0000 
     10 C10         4.1472   53.9891   24.9907 C.ar      1 UNK         0.0000 
     11 C11         4.5454   54.0965   23.6394 C.ar      1 UNK         0.0000 
     12 C12         5.7332   54.4995   23.0058 C.ar      1 UNK         0.0000 
     13 C13         5.7588   54.5978   21.6182 C.ar      1 UNK         0.0000 
     14 C14         4.6781   54.1727   20.8528 C.ar      1 UNK         0.0000 
     15 C15         3.5076   53.6906   21.4410 C.ar      1 UNK         0.0000 
     16 C16         3.4435   53.6967   22.8391 C.ar      1 UNK         0.0000 
     17 N17         2.4141   53.3569   23.6934 N.pl3     1 UNK         0.0000 
     18 H18         1.5071   53.0275   23.3964 H         1 UNK         0.0000 
     19 O19         6.8512   55.1496   21.0026 O.3       1 UNK         0.0000 
     20 C20         4.7749   54.2238   26.2243 C.ar      1 UNK         0.0000 
     21 C21         4.0730   54.0486   27.3913 C.ar      1 UNK         0.0000 
     22 C22         4.9673   54.4968   28.4919 C.2       1 UNK         0.0000 
     23 O23         4.7043   54.6418   29.6814 O.2       1 UNK         0.0000 
     24 N24         6.1439   54.7784   27.9177 N.am      1 UNK         0.0000 
     25 C25         6.1479   54.6677   26.5820 C.2       1 UNK         0.0000 
     26 O26         7.1037   54.9164   25.8572 O.2       1 UNK         0.0000 
     27 Cl27        3.9028   51.6986   29.6849 Cl        1 UNK         0.0000 
     28 H28        -0.8955   54.4971   30.0909 H         1 UNK         0.0000 
     29 H29        -0.0957   53.0668   31.9739 H         1 UNK         0.0000 
     30 H30         2.0323   51.8777   31.7537 H         1 UNK         0.0000 
     31 H31         0.4178   54.7431   28.0804 H         1 UNK         0.0000 
     32 H32         1.0828   52.9449   26.1935 H         1 UNK         0.0000 
     33 H33         6.5906   54.8212   23.5706 H         1 UNK         0.0000 
     34 H34         4.7366   54.2350   19.7749 H         1 UNK         0.0000 
     35 H35         2.6778   53.3714   20.8295 H         1 UNK         0.0000 
     36 H36         7.5830   55.3197   21.6014 H         1 UNK         0.0000 
     37 H37         6.9307   55.1273   28.4515 H         1 UNK         0.0000 
@<TRIPOS>BOND
     1    1    6 ar   
     2    1    2 ar   
     3    1   28 1    
     4    2    3 ar   
     5    2   29 1    
     6    3    4 ar   
     7    3   30 1    
     8    4    5 ar   
     9    4   27 1    
    10    5    6 ar   
    11    5    7 1    
    12    6   31 1    
    13    7   21 ar   
    14    7    8 ar   
    15    8    9 ar   
    16    8   32 1    
    17    9   17 ar   
    18    9   10 ar   
    19   10   11 ar   
    20   10   20 ar   
    21   11   16 ar   
    22   11   12 ar   
    23   12   13 ar   
    24   12   33 1    
    25   13   14 ar   
    26   13   19 1    
    27   14   15 ar   
    28   14   34 1    
    29   15   16 ar   
    30   15   35 1    
    31   16   17 ar   
    32   17   18 1    
    33   19   36 1    
    34   20   25 1    
    35   20   21 ar   
    36   21   22 1    
    37   22   23 2    
    38   22   24 am   BACKBONE|DICT|INTERRES
    39   24   25 am   BACKBONE|DICT|INTERRES
    40   24   37 1    
    41   25   26 2    
@<TRIPOS>SUBSTRUCTURE
     1 UNK         1 GROUP             0       ****    0 ROOT    
