@<TRIPOS>MOLECULE
CHEMBL452829_80
53   58    1
SMALL
USER_CHARGES


@<TRIPOS>ATOM
      1 C1         -0.1863   52.9383   30.4731 C.ar      1 UNK         0.0000 
      2 C2          0.0294   51.9524   29.5248 C.ar      1 UNK         0.0000 
      3 C3          0.8927   52.1837   28.4605 C.ar      1 UNK         0.0000 
      4 C4          1.5450   53.4263   28.3209 C.ar      1 UNK         0.0000 
      5 C5          1.2359   54.4494   29.2430 C.ar      1 UNK         0.0000 
      6 C6          0.3987   54.1900   30.3275 C.ar      1 UNK         0.0000 
      7 Cl7         1.8302   56.0689   29.0591 Cl        1 UNK         0.0000 
      8 C8          2.5267   53.6498   27.2184 C.ar      1 UNK         0.0000 
      9 C9          2.0883   53.5360   25.8958 C.ar      1 UNK         0.0000 
     10 C10         3.0029   53.7699   24.8583 C.ar      1 UNK         0.0000 
     11 C11         4.3568   54.1180   25.1056 C.ar      1 UNK         0.0000 
     12 C12         4.9826   54.3183   23.8496 C.ar      1 UNK         0.0000 
     13 C13         6.2839   54.6949   23.4493 C.ar      1 UNK         0.0000 
     14 C14         6.5492   54.8966   22.0945 C.ar      1 UNK         0.0000 
     15 C15         5.5619   54.6836   21.1398 C.ar      1 UNK         0.0000 
     16 C16         4.2782   54.2688   21.4855 C.ar      1 UNK         0.0000 
     17 C17         3.9941   54.0970   22.8479 C.ar      1 UNK         0.0000 
     18 N18         2.8124   53.7462   23.4898 N.pl3     1 UNK         0.0000 
     19 C19         1.5341   53.4340   22.8541 C.3       1 UNK         0.0000 
     20 C20         1.3896   51.9541   22.4320 C.3       1 UNK         0.0000 
     21 C21         2.3530   51.4827   21.3128 C.3       1 UNK         0.0000 
     22 N22         1.9185   50.2507   20.6552 N.pl3     1 UNK         0.0000 
     23 C23         1.0448   49.2893   21.1012 C.ar      1 UNK         0.0000 
     24 C24         0.9662   48.3510   20.0823 C.ar      1 UNK         0.0000 
     25 N25         1.7527   48.6583   19.0702 N.2       1 UNK         0.0000 
     26 C26         2.3231   49.7844   19.4267 C.ar      1 UNK         0.0000 
     27 O27         7.7957   55.2982   21.6818 O.3       1 UNK         0.0000 
     28 C28         4.7656   54.2050   26.4503 C.ar      1 UNK         0.0000 
     29 C29         3.8704   53.9659   27.4649 C.ar      1 UNK         0.0000 
     30 C30         4.6167   54.1201   28.7484 C.2       1 UNK         0.0000 
     31 O31         4.2044   53.9866   29.8983 O.2       1 UNK         0.0000 
     32 N32         5.8661   54.4724   28.3991 N.am      1 UNK         0.0000 
     33 C33         6.0629   54.5590   27.0737 C.2       1 UNK         0.0000 
     34 O34         7.1042   54.8951   26.5279 O.2       1 UNK         0.0000 
     35 Cl35        1.1038   50.8913   27.3354 Cl        1 UNK         0.0000 
     36 H36        -0.8664   52.7377   31.2829 H         1 UNK         0.0000 
     37 H37        -0.4743   50.9994   29.6225 H         1 UNK         0.0000 
     38 H38         0.1819   54.9691   31.0439 H         1 UNK         0.0000 
     39 H39         1.0589   53.2834   25.6909 H         1 UNK         0.0000 
     40 H40         7.0680   54.8669   24.1655 H         1 UNK         0.0000 
     41 H41         5.7960   54.8433   20.0970 H         1 UNK         0.0000 
     42 H42         3.5291   54.1346   20.7195 H         1 UNK         0.0000 
     43 H43         1.4295   54.0970   22.0096 H         1 UNK         0.0000 
     44 H44         0.7222   53.7186   23.5232 H         1 UNK         0.0000 
     45 H45         0.3606   51.8216   22.0934 H         1 UNK         0.0000 
     46 H46         1.5006   51.3106   23.3075 H         1 UNK         0.0000 
     47 H47         3.3666   51.3408   21.6912 H         1 UNK         0.0000 
     48 H48         2.4042   52.2401   20.5301 H         1 UNK         0.0000 
     49 H49         0.5648   49.3583   22.0660 H         1 UNK         0.0000 
     50 H50         0.3626   47.4548   20.0782 H         1 UNK         0.0000 
     51 H51         3.0490   50.3344   18.8416 H         1 UNK         0.0000 
     52 H52         8.4526   55.2966   22.3919 H         1 UNK         0.0000 
     53 H53         6.5845   54.7071   29.0700 H         1 UNK         0.0000 
@<TRIPOS>BOND
     1    1    6 ar   
     2    1    2 ar   
     3    1   36 1    
     4    2    3 ar   
     5    2   37 1    
     6    3    4 ar   
     7    3   35 1    
     8    4    5 ar   
     9    4    8 1    
    10    5    6 ar   
    11    5    7 1    
    12    6   38 1    
    13    8   29 ar   
    14    8    9 ar   
    15    9   10 ar   
    16    9   39 1    
    17   10   18 ar   
    18   10   11 ar   
    19   11   12 ar   
    20   11   28 ar   
    21   12   17 ar   
    22   12   13 ar   
    23   13   14 ar   
    24   13   40 1    
    25   14   15 ar   
    26   14   27 1    
    27   15   16 ar   
    28   15   41 1    
    29   16   17 ar   
    30   16   42 1    
    31   17   18 ar   
    32   18   19 1    
    33   19   20 1    
    34   19   43 1    
    35   19   44 1    
    36   20   21 1    
    37   20   45 1    
    38   20   46 1    
    39   21   22 1    
    40   21   47 1    
    41   21   48 1    
    42   22   26 ar   
    43   22   23 ar   
    44   23   24 ar   
    45   23   49 1    
    46   24   25 ar   
    47   24   50 1    
    48   25   26 ar   
    49   26   51 1    
    50   27   52 1    
    51   28   33 1    
    52   28   29 ar   
    53   29   30 1    
    54   30   31 2    
    55   30   32 am   BACKBONE|DICT|INTERRES
    56   32   33 am   BACKBONE|DICT|INTERRES
    57   32   53 1    
    58   33   34 2    
@<TRIPOS>SUBSTRUCTURE
     1 UNK         1 GROUP             0       ****    0 ROOT    
