@<TRIPOS>MOLECULE
CHEMBL472208_0
51   56    1
SMALL
USER_CHARGES


@<TRIPOS>ATOM
      1 C1          0.1705   51.8828   29.4882 C.ar      1 UNK         0.0000 
      2 C2         -0.0997   52.8496   30.4496 C.ar      1 UNK         0.0000 
      3 C3          0.4080   54.1376   30.3089 C.ar      1 UNK         0.0000 
      4 C4          1.2217   54.4552   29.2210 C.ar      1 UNK         0.0000 
      5 C5          1.5743   53.4562   28.2918 C.ar      1 UNK         0.0000 
      6 C6          1.0178   52.1786   28.4266 C.ar      1 UNK         0.0000 
      7 C7          2.5309   53.6959   27.1820 C.ar      1 UNK         0.0000 
      8 C8          2.0772   53.5734   25.8651 C.ar      1 UNK         0.0000 
      9 C9          2.9849   53.7762   24.8111 C.ar      1 UNK         0.0000 
     10 C10         4.3447   54.1195   25.0604 C.ar      1 UNK         0.0000 
     11 C11         4.9752   54.3121   23.8101 C.ar      1 UNK         0.0000 
     12 C12         6.2769   54.6966   23.4230 C.ar      1 UNK         0.0000 
     13 C13         6.5568   54.8967   22.0737 C.ar      1 UNK         0.0000 
     14 C14         5.5859   54.6594   21.1078 C.ar      1 UNK         0.0000 
     15 C15         4.3039   54.2251   21.4401 C.ar      1 UNK         0.0000 
     16 C16         3.9978   54.0754   22.8029 C.ar      1 UNK         0.0000 
     17 N17         2.8057   53.7252   23.4323 N.pl3     1 UNK         0.0000 
     18 C18         1.5318   53.5043   22.7290 C.3       1 UNK         0.0000 
     19 C19         0.7074   52.2587   23.1432 C.3       1 UNK         0.0000 
     20 S20         1.7105   50.6978   23.1694 S.3       1 UNK         0.0000 
     21 O21         1.6836   50.1433   21.7442 O.2       1 UNK         0.0000 
     22 C22         0.4961   49.6827   24.1110 C.ar      1 UNK         0.0000 
     23 N23        -0.2204   48.7228   23.5370 N.2       1 UNK         0.0000 
     24 H24        -0.9306   48.7044   26.6237 H         1 UNK         0.0000 
     25 C25        -0.8956   48.2243   24.5391 C.ar      1 UNK         0.0000 
     26 N26        -0.5840   48.8969   25.6817 N.pl3     1 UNK         0.0000 
     27 N27         0.3045   49.8491   25.4065 N.2       1 UNK         0.0000 
     28 O28         7.8072   55.3043   21.6817 O.3       1 UNK         0.0000 
     29 C29         4.7616   54.2226   26.4023 C.ar      1 UNK         0.0000 
     30 C30         3.8728   54.0043   27.4226 C.ar      1 UNK         0.0000 
     31 C31         4.6233   54.1620   28.7037 C.2       1 UNK         0.0000 
     32 O32         4.2176   54.0393   29.8572 O.2       1 UNK         0.0000 
     33 N33         5.8737   54.4965   28.3473 N.am      1 UNK         0.0000 
     34 C34         6.0628   54.5726   27.0211 C.2       1 UNK         0.0000 
     35 O35         7.1044   54.8965   26.4739 O.2       1 UNK         0.0000 
     36 Cl36        1.7541   56.0960   29.0501 Cl        1 UNK         0.0000 
     37 H37        -0.2620   50.8967   29.5786 H         1 UNK         0.0000 
     38 H38        -0.7414   52.6032   31.2816 H         1 UNK         0.0000 
     39 H39         0.1586   54.8940   31.0385 H         1 UNK         0.0000 
     40 H40         1.2541   51.4019   27.7127 H         1 UNK         0.0000 
     41 H41         1.0401   53.3458   25.6969 H         1 UNK         0.0000 
     42 H42         7.0528   54.8817   24.1432 H         1 UNK         0.0000 
     43 H43         5.8348   54.8048   20.0664 H         1 UNK         0.0000 
     44 H44         3.5770   54.0531   20.6595 H         1 UNK         0.0000 
     45 H45         1.7215   53.4382   21.6598 H         1 UNK         0.0000 
     46 H46         0.9483   54.4095   22.8819 H         1 UNK         0.0000 
     47 H47        -0.0938   52.1068   22.4195 H         1 UNK         0.0000 
     48 H48         0.1977   52.3903   24.0923 H         1 UNK         0.0000 
     49 H49        -1.5959   47.4028   24.5440 H         1 UNK         0.0000 
     50 H50         8.4560   55.2973   22.3993 H         1 UNK         0.0000 
     51 H51         6.5969   54.7298   29.0135 H         1 UNK         0.0000 
@<TRIPOS>BOND
     1    1    6 ar   
     2    1    2 ar   
     3    1   37 1    
     4    2    3 ar   
     5    2   38 1    
     6    3    4 ar   
     7    3   39 1    
     8    4    5 ar   
     9    4   36 1    
    10    5    6 ar   
    11    5    7 1    
    12    6   40 1    
    13    7   30 ar   
    14    7    8 ar   
    15    8    9 ar   
    16    8   41 1    
    17    9   17 ar   
    18    9   10 ar   
    19   10   11 ar   
    20   10   29 ar   
    21   11   16 ar   
    22   11   12 ar   
    23   12   13 ar   
    24   12   42 1    
    25   13   14 ar   
    26   13   28 1    
    27   14   15 ar   
    28   14   43 1    
    29   15   16 ar   
    30   15   44 1    
    31   16   17 ar   
    32   17   18 1    
    33   18   19 1    
    34   18   45 1    
    35   18   46 1    
    36   19   20 1    
    37   19   47 1    
    38   19   48 1    
    39   20   21 2    
    40   20   22 1    
    41   22   23 ar   
    42   22   27 ar   
    43   23   25 ar   
    44   24   26 1    
    45   25   49 1    
    46   25   26 ar   
    47   26   27 ar   
    48   28   50 1    
    49   29   34 1    
    50   29   30 ar   
    51   30   31 1    
    52   31   32 2    
    53   31   33 am   BACKBONE|DICT|INTERRES
    54   33   34 am   BACKBONE|DICT|INTERRES
    55   33   51 1    
    56   34   35 2    
@<TRIPOS>SUBSTRUCTURE
     1 UNK         1 GROUP             0       ****    0 ROOT    
