@<TRIPOS>MOLECULE
CHEMBL521051_20
56   61    1
SMALL
USER_CHARGES


@<TRIPOS>ATOM
      1 C1         -0.1484   52.7736   30.4725 C.ar      1 UNK         0.0000 
      2 C2          0.0278   51.8331   29.4645 C.ar      1 UNK         0.0000 
      3 C3          0.9173   52.0960   28.4306 C.ar      1 UNK         0.0000 
      4 C4          1.6094   53.3113   28.3870 C.ar      1 UNK         0.0000 
      5 C5          1.3729   54.2725   29.3771 C.ar      1 UNK         0.0000 
      6 C6          0.5064   53.9996   30.4305 C.ar      1 UNK         0.0000 
      7 C7          2.5695   53.5735   27.2830 C.ar      1 UNK         0.0000 
      8 C8          2.1164   53.4382   25.9655 C.ar      1 UNK         0.0000 
      9 C9          3.0018   53.7244   24.9159 C.ar      1 UNK         0.0000 
     10 C10         4.3514   54.0994   25.1449 C.ar      1 UNK         0.0000 
     11 C11         4.9590   54.3139   23.8812 C.ar      1 UNK         0.0000 
     12 C12         6.2483   54.7096   23.4632 C.ar      1 UNK         0.0000 
     13 C13         6.4974   54.8965   22.1046 C.ar      1 UNK         0.0000 
     14 C14         5.5096   54.6373   21.1603 C.ar      1 UNK         0.0000 
     15 C15         4.2375   54.2011   21.5240 C.ar      1 UNK         0.0000 
     16 C16         3.9658   54.0704   22.8933 C.ar      1 UNK         0.0000 
     17 N17         2.7911   53.7341   23.5496 N.pl3     1 UNK         0.0000 
     18 C18         1.5202   53.4327   22.9070 C.3       1 UNK         0.0000 
     19 C19         1.4610   51.9543   22.4570 C.3       1 UNK         0.0000 
     20 N20         0.2783   51.6086   21.6597 N.3       1 UNK         0.0000 
     21 C21         0.2803   52.2123   20.3197 C.3       1 UNK         0.0000 
     22 C22        -0.9751   51.8286   19.5071 C.3       1 UNK         0.0000 
     23 O23        -2.1656   52.0962   20.2478 O.3       1 UNK         0.0000 
     24 C24        -2.2016   51.3952   21.4904 C.3       1 UNK         0.0000 
     25 C25        -0.9954   51.7830   22.3709 C.3       1 UNK         0.0000 
     26 O26         7.7346   55.3133   21.6816 O.3       1 UNK         0.0000 
     27 C27         4.7767   54.1922   26.4822 C.ar      1 UNK         0.0000 
     28 C28         3.9026   53.9434   27.5135 C.ar      1 UNK         0.0000 
     29 C29         4.6634   54.1496   28.7832 C.2       1 UNK         0.0000 
     30 O30         4.2813   54.0534   29.9459 O.2       1 UNK         0.0000 
     31 N31         5.9042   54.4965   28.4074 N.am      1 UNK         0.0000 
     32 C32         6.0771   54.5630   27.0798 C.2       1 UNK         0.0000 
     33 O33         7.1044   54.8969   26.5101 O.2       1 UNK         0.0000 
     34 H34        -0.8262   52.5494   31.2816 H         1 UNK         0.0000 
     35 H35        -0.5104   50.8967   29.4966 H         1 UNK         0.0000 
     36 H36         1.0724   51.3468   27.6674 H         1 UNK         0.0000 
     37 H37         1.8808   55.2257   29.3437 H         1 UNK         0.0000 
     38 H38         0.3425   54.7311   31.2081 H         1 UNK         0.0000 
     39 H39         1.0933   53.1514   25.7729 H         1 UNK         0.0000 
     40 H40         7.0384   54.9037   24.1659 H         1 UNK         0.0000 
     41 H41         5.7362   54.7722   20.1124 H         1 UNK         0.0000 
     42 H42         3.4867   54.0136   20.7692 H         1 UNK         0.0000 
     43 H43         1.4124   54.1240   22.0816 H         1 UNK         0.0000 
     44 H44         0.7117   53.6762   23.5945 H         1 UNK         0.0000 
     45 H45         1.4820   51.3018   23.3318 H         1 UNK         0.0000 
     46 H46         2.3496   51.6986   21.8773 H         1 UNK         0.0000 
     47 H47         1.1795   51.9027   19.7861 H         1 UNK         0.0000 
     48 H48         0.3395   53.2960   20.3919 H         1 UNK         0.0000 
     49 H49        -1.0031   52.3815   18.5678 H         1 UNK         0.0000 
     50 H50        -0.9267   50.7682   19.2509 H         1 UNK         0.0000 
     51 H51        -3.1346   51.6149   22.0093 H         1 UNK         0.0000 
     52 H52        -2.1866   50.3183   21.3108 H         1 UNK         0.0000 
     53 H53        -1.1146   52.8142   22.7004 H         1 UNK         0.0000 
     54 H54        -0.9854   51.1776   23.2785 H         1 UNK         0.0000 
     55 H55         8.3981   55.3274   22.3851 H         1 UNK         0.0000 
     56 H56         6.6313   54.7511   29.0628 H         1 UNK         0.0000 
@<TRIPOS>BOND
     1    1    6 ar   
     2    1    2 ar   
     3    1   34 1    
     4    2    3 ar   
     5    2   35 1    
     6    3    4 ar   
     7    3   36 1    
     8    4    5 ar   
     9    4    7 1    
    10    5    6 ar   
    11    5   37 1    
    12    6   38 1    
    13    7   28 ar   
    14    7    8 ar   
    15    8    9 ar   
    16    8   39 1    
    17    9   17 ar   
    18    9   10 ar   
    19   10   11 ar   
    20   10   27 ar   
    21   11   16 ar   
    22   11   12 ar   
    23   12   13 ar   
    24   12   40 1    
    25   13   14 ar   
    26   13   26 1    
    27   14   15 ar   
    28   14   41 1    
    29   15   16 ar   
    30   15   42 1    
    31   16   17 ar   
    32   17   18 1    
    33   18   19 1    
    34   18   43 1    
    35   18   44 1    
    36   19   20 1    
    37   19   45 1    
    38   19   46 1    
    39   20   25 1    
    40   20   21 1    
    41   21   22 1    
    42   21   47 1    
    43   21   48 1    
    44   22   23 1    
    45   22   49 1    
    46   22   50 1    
    47   23   24 1    
    48   24   25 1    
    49   24   51 1    
    50   24   52 1    
    51   25   53 1    
    52   25   54 1    
    53   26   55 1    
    54   27   32 1    
    55   27   28 ar   
    56   28   29 1    
    57   29   30 2    
    58   29   31 am   BACKBONE|DICT|INTERRES
    59   31   32 am   BACKBONE|DICT|INTERRES
    60   31   56 1    
    61   32   33 2    
@<TRIPOS>SUBSTRUCTURE
     1 UNK         1 GROUP             0       ****    0 ROOT    
