@<TRIPOS>MOLECULE
CHEMBL520537_108
52   57    1
SMALL
USER_CHARGES


@<TRIPOS>ATOM
      1 C1          0.1365   51.8749   29.4485 C.ar      1 UNK         0.0000 
      2 C2         -0.0971   52.8139   30.4465 C.ar      1 UNK         0.0000 
      3 C3          0.4410   54.0926   30.3428 C.ar      1 UNK         0.0000 
      4 C4          1.2528   54.4256   29.2585 C.ar      1 UNK         0.0000 
      5 C5          1.5676   53.4523   28.2857 C.ar      1 UNK         0.0000 
      6 C6          0.9764   52.1867   28.3849 C.ar      1 UNK         0.0000 
      7 C7          2.5260   53.6993   27.1748 C.ar      1 UNK         0.0000 
      8 C8          2.0856   53.5719   25.8499 C.ar      1 UNK         0.0000 
      9 C9          3.0006   53.8121   24.8100 C.ar      1 UNK         0.0000 
     10 C10         4.3521   54.1689   25.0643 C.ar      1 UNK         0.0000 
     11 C11         4.9896   54.3604   23.8144 C.ar      1 UNK         0.0000 
     12 C12         6.2924   54.7411   23.4275 C.ar      1 UNK         0.0000 
     13 C13         6.5831   54.8967   22.0745 C.ar      1 UNK         0.0000 
     14 C14         5.6204   54.6288   21.1067 C.ar      1 UNK         0.0000 
     15 C15         4.3359   54.2021   21.4398 C.ar      1 UNK         0.0000 
     16 C16         4.0228   54.0967   22.8033 C.ar      1 UNK         0.0000 
     17 N17         2.8323   53.7608   23.4345 N.pl3     1 UNK         0.0000 
     18 C18         1.5936   53.3764   22.7622 C.3       1 UNK         0.0000 
     19 C19         1.3652   51.8532   22.8729 C.3       1 UNK         0.0000 
     20 C20         0.3162   51.3588   21.8674 C.2       1 UNK         0.0000 
     21 O21        -0.8798   51.5949   22.0504 O.2       1 UNK         0.0000 
     22 N22         0.7591   50.6249   20.7276 N.pl3     1 UNK         0.0000 
     23 C23         2.0387   50.4196   20.2601 C.ar      1 UNK         0.0000 
     24 C24         1.9045   49.6421   19.1198 C.ar      1 UNK         0.0000 
     25 N25         0.6415   49.3594   18.8620 N.2       1 UNK         0.0000 
     26 C26        -0.0303   49.9537   19.8188 C.ar      1 UNK         0.0000 
     27 O27         7.8358   55.2970   21.6817 O.3       1 UNK         0.0000 
     28 C28         4.7590   54.2545   26.4082 C.ar      1 UNK         0.0000 
     29 C29         3.8674   54.0158   27.4226 C.ar      1 UNK         0.0000 
     30 C30         4.6214   54.1471   28.7059 C.2       1 UNK         0.0000 
     31 O31         4.2204   53.9917   29.8571 O.2       1 UNK         0.0000 
     32 N32         5.8697   54.4967   28.3557 N.am      1 UNK         0.0000 
     33 C33         6.0606   54.5844   27.0309 C.2       1 UNK         0.0000 
     34 O34         7.1044   54.8968   26.4826 O.2       1 UNK         0.0000 
     35 Cl35        1.8383   56.0545   29.1645 Cl        1 UNK         0.0000 
     36 H36        -0.3183   50.8967   29.5117 H         1 UNK         0.0000 
     37 H37        -0.7301   52.5541   31.2816 H         1 UNK         0.0000 
     38 H38         0.2232   54.8280   31.1036 H         1 UNK         0.0000 
     39 H39         1.1827   51.4270   27.6441 H         1 UNK         0.0000 
     40 H40         1.0597   53.3052   25.6431 H         1 UNK         0.0000 
     41 H41         7.0622   54.9476   24.1489 H         1 UNK         0.0000 
     42 H42         5.8787   54.7439   20.0638 H         1 UNK         0.0000 
     43 H43         3.6115   54.0026   20.6630 H         1 UNK         0.0000 
     44 H44         1.6438   53.6966   21.7210 H         1 UNK         0.0000 
     45 H45         0.7744   53.9319   23.2224 H         1 UNK         0.0000 
     46 H46         0.9933   51.6059   23.8674 H         1 UNK         0.0000 
     47 H47         2.2955   51.2947   22.7757 H         1 UNK         0.0000 
     48 H48         2.9134   50.8390   20.7349 H         1 UNK         0.0000 
     49 H49         2.7093   49.2994   18.4816 H         1 UNK         0.0000 
     50 H50        -1.1044   49.9472   19.9363 H         1 UNK         0.0000 
     51 H51         8.4805   55.3038   22.4032 H         1 UNK         0.0000 
     52 H52         6.5937   54.7186   29.0252 H         1 UNK         0.0000 
@<TRIPOS>BOND
     1    1    6 ar   
     2    1    2 ar   
     3    1   36 1    
     4    2    3 ar   
     5    2   37 1    
     6    3    4 ar   
     7    3   38 1    
     8    4    5 ar   
     9    4   35 1    
    10    5    6 ar   
    11    5    7 1    
    12    6   39 1    
    13    7   29 ar   
    14    7    8 ar   
    15    8    9 ar   
    16    8   40 1    
    17    9   17 ar   
    18    9   10 ar   
    19   10   11 ar   
    20   10   28 ar   
    21   11   16 ar   
    22   11   12 ar   
    23   12   13 ar   
    24   12   41 1    
    25   13   14 ar   
    26   13   27 1    
    27   14   15 ar   
    28   14   42 1    
    29   15   16 ar   
    30   15   43 1    
    31   16   17 ar   
    32   17   18 1    
    33   18   19 1    
    34   18   44 1    
    35   18   45 1    
    36   19   20 1    
    37   19   46 1    
    38   19   47 1    
    39   20   21 2    
    40   20   22 1    
    41   22   26 ar   
    42   22   23 ar   
    43   23   24 ar   
    44   23   48 1    
    45   24   25 ar   
    46   24   49 1    
    47   25   26 ar   
    48   26   50 1    
    49   27   51 1    
    50   28   33 1    
    51   28   29 ar   
    52   29   30 1    
    53   30   31 2    
    54   30   32 am   BACKBONE|DICT|INTERRES
    55   32   33 am   BACKBONE|DICT|INTERRES
    56   32   52 1    
    57   33   34 2    
@<TRIPOS>SUBSTRUCTURE
     1 UNK         1 GROUP             0       ****    0 ROOT    
