@<TRIPOS>MOLECULE
CHEMBL483786_57
55   60    1
SMALL
USER_CHARGES


@<TRIPOS>ATOM
      1 C1         -0.0955   53.1267   30.6447 C.ar      1 UNK         0.0000 
      2 C2          0.4843   54.3675   30.4065 C.ar      1 UNK         0.0000 
      3 C3          1.2743   54.5681   29.2746 C.ar      1 UNK         0.0000 
      4 C4          1.5527   53.4994   28.3948 C.ar      1 UNK         0.0000 
      5 C5          0.9050   52.2675   28.6234 C.ar      1 UNK         0.0000 
      6 C6          0.0748   52.0966   29.7290 C.ar      1 UNK         0.0000 
      7 Cl7         1.1120   50.9045   27.5811 Cl        1 UNK         0.0000 
      8 C8          2.5190   53.6700   27.2652 C.ar      1 UNK         0.0000 
      9 C9          2.0673   53.5374   25.9451 C.ar      1 UNK         0.0000 
     10 C10         2.9720   53.7751   24.8971 C.ar      1 UNK         0.0000 
     11 C11         4.3322   54.1227   25.1328 C.ar      1 UNK         0.0000 
     12 C12         4.9512   54.3261   23.8733 C.ar      1 UNK         0.0000 
     13 C13         6.2478   54.7062   23.4618 C.ar      1 UNK         0.0000 
     14 C14         6.5063   54.8967   22.1037 C.ar      1 UNK         0.0000 
     15 C15         5.5187   54.6519   21.1548 C.ar      1 UNK         0.0000 
     16 C16         4.2409   54.2295   21.5127 C.ar      1 UNK         0.0000 
     17 C17         3.9600   54.0944   22.8790 C.ar      1 UNK         0.0000 
     18 N18         2.7755   53.7687   23.5245 N.pl3     1 UNK         0.0000 
     19 C19         1.5034   53.5166   22.8513 C.3       1 UNK         0.0000 
     20 C20         1.4050   52.1059   22.2318 C.3       1 UNK         0.0000 
     21 C21         1.1507   50.9559   23.2437 C.3       1 UNK         0.0000 
     22 C22         0.4432   49.7337   22.6165 C.2       1 UNK         0.0000 
     23 O23         0.5079   49.5043   21.4073 O.2       1 UNK         0.0000 
     24 N24        -0.3321   48.8950   23.4691 N.pl3     1 UNK         0.0000 
     25 C25        -0.3653   48.8421   24.8409 C.ar      1 UNK         0.0000 
     26 C26        -1.2951   47.8646   25.1615 C.ar      1 UNK         0.0000 
     27 N27        -1.8234   47.3148   24.0868 N.2       1 UNK         0.0000 
     28 C28        -1.2475   47.9384   23.0865 C.ar      1 UNK         0.0000 
     29 O29         7.7487   55.2982   21.6818 O.3       1 UNK         0.0000 
     30 C30         4.7568   54.2122   26.4710 C.ar      1 UNK         0.0000 
     31 C31         3.8684   53.9829   27.4938 C.ar      1 UNK         0.0000 
     32 C32         4.6248   54.1523   28.7705 C.2       1 UNK         0.0000 
     33 O33         4.2189   54.0375   29.9262 O.2       1 UNK         0.0000 
     34 N34         5.8720   54.4959   28.4098 N.am      1 UNK         0.0000 
     35 C35         6.0603   54.5695   27.0827 C.2       1 UNK         0.0000 
     36 O36         7.1043   54.8945   26.5302 O.2       1 UNK         0.0000 
     37 Cl37        1.8761   56.1712   28.9963 Cl        1 UNK         0.0000 
     38 H38        -0.7063   52.9660   31.5209 H         1 UNK         0.0000 
     39 H39         0.3074   55.1802   31.0960 H         1 UNK         0.0000 
     40 H40        -0.4325   51.1549   29.8915 H         1 UNK         0.0000 
     41 H41         1.0353   53.2877   25.7535 H         1 UNK         0.0000 
     42 H42         7.0330   54.8965   24.1711 H         1 UNK         0.0000 
     43 H43         5.7494   54.7906   20.1087 H         1 UNK         0.0000 
     44 H44         3.4923   54.0566   20.7508 H         1 UNK         0.0000 
     45 H45         1.3970   54.2779   22.0831 H         1 UNK         0.0000 
     46 H46         0.6818   53.6997   23.5442 H         1 UNK         0.0000 
     47 H47         2.2948   51.8865   21.6389 H         1 UNK         0.0000 
     48 H48         0.5877   52.1450   21.5070 H         1 UNK         0.0000 
     49 H49         0.5144   51.3334   24.0436 H         1 UNK         0.0000 
     50 H50         2.0856   50.6342   23.7034 H         1 UNK         0.0000 
     51 H51         0.2601   49.4642   25.4602 H         1 UNK         0.0000 
     52 H52        -1.5642   47.5540   26.1627 H         1 UNK         0.0000 
     53 H53        -1.4327   47.7626   22.0366 H         1 UNK         0.0000 
     54 H54         8.4128   55.2967   22.3844 H         1 UNK         0.0000 
     55 H55         6.5943   54.7400   29.0739 H         1 UNK         0.0000 
@<TRIPOS>BOND
     1    1    6 ar   
     2    1    2 ar   
     3    1   38 1    
     4    2    3 ar   
     5    2   39 1    
     6    3    4 ar   
     7    3   37 1    
     8    4    5 ar   
     9    4    8 1    
    10    5    6 ar   
    11    5    7 1    
    12    6   40 1    
    13    8   31 ar   
    14    8    9 ar   
    15    9   10 ar   
    16    9   41 1    
    17   10   18 ar   
    18   10   11 ar   
    19   11   12 ar   
    20   11   30 ar   
    21   12   17 ar   
    22   12   13 ar   
    23   13   14 ar   
    24   13   42 1    
    25   14   15 ar   
    26   14   29 1    
    27   15   16 ar   
    28   15   43 1    
    29   16   17 ar   
    30   16   44 1    
    31   17   18 ar   
    32   18   19 1    
    33   19   20 1    
    34   19   45 1    
    35   19   46 1    
    36   20   21 1    
    37   20   47 1    
    38   20   48 1    
    39   21   22 1    
    40   21   49 1    
    41   21   50 1    
    42   22   23 2    
    43   22   24 1    
    44   24   28 ar   
    45   24   25 ar   
    46   25   26 ar   
    47   25   51 1    
    48   26   27 ar   
    49   26   52 1    
    50   27   28 ar   
    51   28   53 1    
    52   29   54 1    
    53   30   35 1    
    54   30   31 ar   
    55   31   32 1    
    56   32   33 2    
    57   32   34 am   BACKBONE|DICT|INTERRES
    58   34   35 am   BACKBONE|DICT|INTERRES
    59   34   55 1    
    60   35   36 2    
@<TRIPOS>SUBSTRUCTURE
     1 UNK         1 GROUP             0       ****    0 ROOT    
