CHEMBL379149_82
                    3D
 Schrodinger Suite 2024-2.
 35 39  0  0  1  0            999 V2000
   -0.0767   52.7110   30.2339 C   0  0  0  0  0  0
    0.9138   53.4978   29.6406 C   0  0  0  0  0  0
    1.2482   52.9489   28.4034 C   0  0  0  0  0  0
    0.4308   51.8462   28.2548 N   0  0  0  0  0  0
    0.4341   51.2298   27.4537 H   0  0  0  0  0  0
   -0.3847   51.6991   29.3434 C   0  0  0  0  0  0
    2.2395   53.3632   27.3586 C   0  0  0  0  0  0
    1.8063   53.2961   26.0253 C   0  0  0  0  0  0
    2.7144   53.6300   25.0146 C   0  0  0  0  0  0
    4.0460   54.0391   25.2920 C   0  0  0  0  0  0
    4.6857   54.2609   24.0495 C   0  0  0  0  0  0
    5.9796   54.6687   23.6777 C   0  0  0  0  0  0
    6.2776   54.8322   22.3286 C   0  0  0  0  0  0
    5.3350   54.5388   21.3470 C   0  0  0  0  0  0
    4.0489   54.1021   21.6670 C   0  0  0  0  0  0
    3.7374   53.9865   23.0267 C   0  0  0  0  0  0
    2.5612   53.6195   23.6442 N   0  0  0  0  0  0
    1.7147   53.3679   23.1542 H   0  0  0  0  0  0
    7.5065   55.2969   21.9608 O   0  0  0  0  0  0
    4.4407   54.1182   26.6410 C   0  0  0  0  0  0
    3.5497   53.7915   27.6397 C   0  0  0  0  0  0
    4.2762   53.9740   28.9323 C   0  0  0  0  0  0
    3.8827   53.7924   30.0816 O   0  0  0  0  0  0
    5.5055   54.4051   28.6000 N   0  0  0  0  0  0
    5.7290   54.4991   27.2813 C   0  0  0  0  0  0
    6.7811   54.8695   26.7651 O   0  0  0  0  0  0
   -0.5256   52.8608   31.2085 H   0  0  0  0  0  0
    1.3552   54.3806   30.0765 H   0  0  0  0  0  0
   -1.1042   50.8965   29.3959 H   0  0  0  0  0  0
    0.8033   52.9791   25.7809 H   0  0  0  0  0  0
    6.7325   54.9000   24.4109 H   0  0  0  0  0  0
    5.5970   54.6654   20.3072 H   0  0  0  0  0  0
    3.3248   53.8891   20.8926 H   0  0  0  0  0  0
    8.1574   55.2967   22.6772 H   0  0  0  0  0  0
    6.2077   54.6562   29.2792 H   0  0  0  0  0  0
  1  6  2  0  0  0
  1  2  1  0  0  0
  1 27  1  0  0  0
  2  3  2  0  0  0
  2 28  1  0  0  0
  3  4  1  0  0  0
  3  7  1  0  0  0
  4  5  1  0  0  0
  4  6  1  0  0  0
  6 29  1  0  0  0
  7 21  2  0  0  0
  7  8  1  0  0  0
  8  9  2  0  0  0
  8 30  1  0  0  0
  9 17  1  0  0  0
  9 10  1  0  0  0
 10 11  1  0  0  0
 10 20  2  0  0  0
 11 16  2  0  0  0
 11 12  1  0  0  0
 12 13  2  0  0  0
 12 31  1  0  0  0
 13 14  1  0  0  0
 13 19  1  0  0  0
 14 15  2  0  0  0
 14 32  1  0  0  0
 15 16  1  0  0  0
 15 33  1  0  0  0
 16 17  1  0  0  0
 17 18  1  0  0  0
 19 34  1  0  0  0
 20 25  1  0  0  0
 20 21  1  0  0  0
 21 22  1  0  0  0
 22 23  2  0  0  0
 22 24  1  0  0  0
 24 25  1  0  0  0
 24 35  1  0  0  0
 25 26  2  0  0  0
M  END
> <i_i_glide_confnum>
4

> <i_i_glide_lignum>
83

> <i_i_glide_posenum>
365

> <i_i_glide_rotatable_bonds>
2

> <i_m_Source_File_Index>
96

> <b_m_subgroup_collapsed>
0

> <r_i_docking_score>
-9.67813

> <r_i_glide_ecoul>
-11.9571

> <r_i_glide_eff_state_penalty>
0

> <r_i_glide_einternal>
0.364245

> <r_i_glide_emodel>
-86.347

> <r_i_glide_energy>
-54.5329

> <r_i_glide_erotb>
0.185034

> <r_i_glide_esite>
0

> <r_i_glide_evdw>
-42.5758

> <r_i_glide_gscore>
-9.67813

> <r_i_glide_hbond>
-0.885882

> <r_i_glide_ligand_efficiency>
-0.403256

> <r_i_glide_ligand_efficiency_ln>
-2.31642

> <r_i_glide_ligand_efficiency_sa>
-1.16319

> <r_i_glide_lipo>
-2.7291

> <r_i_glide_metal>
0

> <r_i_glide_rewards>
-2.32584

> <s_i_glide_gridfile>
wee1_glide-grid

> <s_m_Source_File>
wee1_actives_glide_SP.sdf

> <s_m_Source_Path>
/Users/zhangxujun/Desktop

> <s_m_entry_id>
234

> <s_m_entry_name>
wee1_actives_glide_SP.96

> <s_m_subgroup_title>
wee1_actives_glide_SP

> <s_m_subgroupid>
wee1_actives_glide_SP


$$$$
