@<TRIPOS>MOLECULE
CHEMBL452829_79
54   59    1
SMALL
USER_CHARGES


@<TRIPOS>ATOM
      1 C1         -0.0198   53.3679   30.8335 C.ar      1 UNK         0.0000 
      2 C2          0.4616   54.6227   30.4811 C.ar      1 UNK         0.0000 
      3 C3          1.2420   54.7825   29.3385 C.ar      1 UNK         0.0000 
      4 C4          1.6126   53.6620   28.5718 C.ar      1 UNK         0.0000 
      5 C5          1.1654   52.3937   28.9727 C.ar      1 UNK         0.0000 
      6 C6          0.3065   52.2600   30.0614 C.ar      1 UNK         0.0000 
      7 Cl7         1.7349   50.9633   28.1922 Cl        1 UNK         0.0000 
      8 C8          2.5177   53.8062   27.4009 C.ar      1 UNK         0.0000 
      9 C9          2.0134   53.6779   26.1015 C.ar      1 UNK         0.0000 
     10 C10         2.8871   53.8728   25.0174 C.ar      1 UNK         0.0000 
     11 C11         4.2628   54.1825   25.2116 C.ar      1 UNK         0.0000 
     12 C12         4.8463   54.3506   23.9352 C.ar      1 UNK         0.0000 
     13 C13         6.1349   54.7115   23.4926 C.ar      1 UNK         0.0000 
     14 C14         6.3645   54.8612   22.1261 C.ar      1 UNK         0.0000 
     15 C15         5.3712   54.5615   21.2005 C.ar      1 UNK         0.0000 
     16 C16         4.0972   54.1545   21.5932 C.ar      1 UNK         0.0000 
     17 C17         3.8331   54.0951   22.9687 C.ar      1 UNK         0.0000 
     18 N18         2.6514   53.8288   23.6484 N.pl3     1 UNK         0.0000 
     19 C19         1.3565   53.5492   23.0156 C.3       1 UNK         0.0000 
     20 C20         1.1501   52.0520   22.6748 C.3       1 UNK         0.0000 
     21 C21         1.3340   51.0219   23.8171 C.3       1 UNK         0.0000 
     22 N22         0.2220   50.8919   24.7667 N.pl3     1 UNK         0.0000 
     23 C23        -0.8765   51.7278   24.9614 C.ar      1 UNK         0.0000 
     24 C24        -1.6266   51.2442   26.0325 C.ar      1 UNK         0.0000 
     25 N25        -0.9975   50.0966   26.4771 N.pl3     1 UNK         0.0000 
     26 C26         0.1046   49.8640   25.6844 C.ar      1 UNK         0.0000 
     27 O27         7.5851   55.2977   21.6818 O.3       1 UNK         0.0000 
     28 C28         4.7334   54.2678   26.5367 C.ar      1 UNK         0.0000 
     29 C29         3.8725   54.0734   27.5852 C.ar      1 UNK         0.0000 
     30 C30         4.6571   54.2076   28.8429 C.2       1 UNK         0.0000 
     31 O31         4.2730   54.0972   30.0048 O.2       1 UNK         0.0000 
     32 N32         5.9052   54.4967   28.4470 N.am      1 UNK         0.0000 
     33 C33         6.0656   54.5720   27.1140 C.2       1 UNK         0.0000 
     34 O34         7.1044   54.8635   26.5353 O.2       1 UNK         0.0000 
     35 Cl35        1.7475   56.3858   28.9190 Cl        1 UNK         0.0000 
     36 H36        -0.6450   53.2470   31.7053 H         1 UNK         0.0000 
     37 H37         0.2173   55.4822   31.0852 H         1 UNK         0.0000 
     38 H38        -0.0941   51.2969   30.3352 H         1 UNK         0.0000 
     39 H39         0.9739   53.4458   25.9497 H         1 UNK         0.0000 
     40 H40         6.9302   54.9287   24.1834 H         1 UNK         0.0000 
     41 H41         5.5871   54.6616   20.1464 H         1 UNK         0.0000 
     42 H42         3.3370   53.9516   20.8536 H         1 UNK         0.0000 
     43 H43         1.2996   54.1308   22.0932 H         1 UNK         0.0000 
     44 H44         0.5767   53.9381   23.6679 H         1 UNK         0.0000 
     45 H45         1.8652   51.8001   21.8891 H         1 UNK         0.0000 
     46 H46         0.1744   51.9131   22.2065 H         1 UNK         0.0000 
     47 H47         2.2206   51.2860   24.3890 H         1 UNK         0.0000 
     48 H48         1.5235   50.0339   23.3928 H         1 UNK         0.0000 
     49 H49        -1.0297   52.5944   24.3388 H         1 UNK         0.0000 
     50 H50        -2.5338   51.5931   26.5078 H         1 UNK         0.0000 
     51 H51         0.7887   49.0332   25.8017 H         1 UNK         0.0000 
     52 H52         8.2492   55.3575   22.3796 H         1 UNK         0.0000 
     53 H53         6.6522   54.7146   29.0932 H         1 UNK         0.0000 
     54 H54        -1.2961   49.4785   27.2475 H         1 UNK         0.0000 
@<TRIPOS>BOND
     1    1    6 ar   
     2    1    2 ar   
     3    1   36 1    
     4    2    3 ar   
     5    2   37 1    
     6    3    4 ar   
     7    3   35 1    
     8    4    5 ar   
     9    4    8 1    
    10    5    6 ar   
    11    5    7 1    
    12    6   38 1    
    13    8   29 ar   
    14    8    9 ar   
    15    9   10 ar   
    16    9   39 1    
    17   10   18 ar   
    18   10   11 ar   
    19   11   12 ar   
    20   11   28 ar   
    21   12   17 ar   
    22   12   13 ar   
    23   13   14 ar   
    24   13   40 1    
    25   14   15 ar   
    26   14   27 1    
    27   15   16 ar   
    28   15   41 1    
    29   16   17 ar   
    30   16   42 1    
    31   17   18 ar   
    32   18   19 1    
    33   19   20 1    
    34   19   43 1    
    35   19   44 1    
    36   20   21 1    
    37   20   45 1    
    38   20   46 1    
    39   21   22 1    
    40   21   47 1    
    41   21   48 1    
    42   22   26 ar   
    43   22   23 ar   
    44   23   24 ar   
    45   23   49 1    
    46   24   25 ar   
    47   24   50 1    
    48   25   26 ar   
    49   25   54 1    
    50   26   51 1    
    51   27   52 1    
    52   28   33 1    
    53   28   29 ar   
    54   29   30 1    
    55   30   31 2    
    56   30   32 am   BACKBONE|DICT|INTERRES
    57   32   33 am   BACKBONE|DICT|INTERRES
    58   32   53 1    
    59   33   34 2    
@<TRIPOS>SUBSTRUCTURE
     1 UNK         1 GROUP             0       ****    0 ROOT    
