@<TRIPOS>MOLECULE
CHEMBL471163_135
47   51    1
SMALL
USER_CHARGES


@<TRIPOS>ATOM
      1 C1         -0.0954   53.2492   30.7934 C.ar      1 UNK         0.0000 
      2 C2          0.0868   52.2122   29.8868 C.ar      1 UNK         0.0000 
      3 C3          0.9074   52.3848   28.7725 C.ar      1 UNK         0.0000 
      4 C4          1.5423   53.6209   28.5372 C.ar      1 UNK         0.0000 
      5 C5          1.2739   54.6911   29.4186 C.ar      1 UNK         0.0000 
      6 C6          0.4810   54.4906   30.5478 C.ar      1 UNK         0.0000 
      7 Cl7         1.8921   56.2882   29.1466 Cl        1 UNK         0.0000 
      8 C8          2.4885   53.7877   27.3934 C.ar      1 UNK         0.0000 
      9 C9          2.0044   53.6633   26.0866 C.ar      1 UNK         0.0000 
     10 C10         2.8908   53.8538   25.0155 C.ar      1 UNK         0.0000 
     11 C11         4.2635   54.1638   25.2222 C.ar      1 UNK         0.0000 
     12 C12         4.8557   54.3365   23.9471 C.ar      1 UNK         0.0000 
     13 C13         6.1430   54.7081   23.5082 C.ar      1 UNK         0.0000 
     14 C14         6.3746   54.8574   22.1423 C.ar      1 UNK         0.0000 
     15 C15         5.3892   54.5495   21.2125 C.ar      1 UNK         0.0000 
     16 C16         4.1176   54.1349   21.6000 C.ar      1 UNK         0.0000 
     17 C17         3.8495   54.0749   22.9755 C.ar      1 UNK         0.0000 
     18 N18         2.6660   53.8089   23.6493 N.pl3     1 UNK         0.0000 
     19 C19         1.3811   53.5292   23.0080 C.3       1 UNK         0.0000 
     20 C20         1.1751   52.0237   22.7182 C.3       1 UNK         0.0000 
     21 C21         0.8369   51.1563   23.9427 C.3       1 UNK         0.0000 
     22 O22        -0.3852   51.5614   24.5250 O.3       1 UNK         0.0000 
     23 O23         7.5930   55.3004   21.6951 O.3       1 UNK         0.0000 
     24 C24         4.7218   54.2498   26.5506 C.ar      1 UNK         0.0000 
     25 C25         3.8496   54.0594   27.5924 C.ar      1 UNK         0.0000 
     26 C26         4.6363   54.2011   28.8510 C.2       1 UNK         0.0000 
     27 O27         4.2480   54.0971   30.0133 O.2       1 UNK         0.0000 
     28 N28         5.8895   54.4940   28.4628 N.am      1 UNK         0.0000 
     29 C29         6.0573   54.5420   27.1317 C.2       1 UNK         0.0000 
     30 O30         7.1044   54.8031   26.5533 O.2       1 UNK         0.0000 
     31 Cl31        1.1318   51.0297   27.7181 Cl        1 UNK         0.0000 
     32 H32        -0.6907   53.0921   31.6813 H         1 UNK         0.0000 
     33 H33        -0.4075   51.2681   30.0645 H         1 UNK         0.0000 
     34 H34         0.3094   55.3007   31.2414 H         1 UNK         0.0000 
     35 H35         0.9655   53.4311   25.9134 H         1 UNK         0.0000 
     36 H36         6.9352   54.9299   24.2008 H         1 UNK         0.0000 
     37 H37         5.6094   54.6527   20.1592 H         1 UNK         0.0000 
     38 H38         3.3615   53.9271   20.8578 H         1 UNK         0.0000 
     39 H39         0.5804   53.9298   23.6327 H         1 UNK         0.0000 
     40 H40         1.3365   54.0970   22.0818 H         1 UNK         0.0000 
     41 H41         0.3793   51.9082   21.9795 H         1 UNK         0.0000 
     42 H42         2.0663   51.6230   22.2339 H         1 UNK         0.0000 
     43 H43         0.8104   50.0943   23.6892 H         1 UNK         0.0000 
     44 H44         1.5956   51.2935   24.7097 H         1 UNK         0.0000 
     45 H45        -0.5659   50.9913   25.2792 H         1 UNK         0.0000 
     46 H46         8.2559   55.3658   22.3929 H         1 UNK         0.0000 
     47 H47         6.6331   54.7122   29.1103 H         1 UNK         0.0000 
@<TRIPOS>BOND
     1    1    6 ar   
     2    1    2 ar   
     3    1   32 1    
     4    2    3 ar   
     5    2   33 1    
     6    3    4 ar   
     7    3   31 1    
     8    4    5 ar   
     9    4    8 1    
    10    5    6 ar   
    11    5    7 1    
    12    6   34 1    
    13    8   25 ar   
    14    8    9 ar   
    15    9   10 ar   
    16    9   35 1    
    17   10   18 ar   
    18   10   11 ar   
    19   11   12 ar   
    20   11   24 ar   
    21   12   17 ar   
    22   12   13 ar   
    23   13   14 ar   
    24   13   36 1    
    25   14   15 ar   
    26   14   23 1    
    27   15   16 ar   
    28   15   37 1    
    29   16   17 ar   
    30   16   38 1    
    31   17   18 ar   
    32   18   19 1    
    33   19   20 1    
    34   19   39 1    
    35   19   40 1    
    36   20   21 1    
    37   20   41 1    
    38   20   42 1    
    39   21   22 1    
    40   21   43 1    
    41   21   44 1    
    42   22   45 1    
    43   23   46 1    
    44   24   29 1    
    45   24   25 ar   
    46   25   26 1    
    47   26   27 2    
    48   26   28 am   BACKBONE|DICT|INTERRES
    49   28   29 am   BACKBONE|DICT|INTERRES
    50   28   47 1    
    51   29   30 2    
@<TRIPOS>SUBSTRUCTURE
     1 UNK         1 GROUP             0       ****    0 ROOT    
