@<TRIPOS>MOLECULE
CHEMBL520984_60
60   65    1
SMALL
USER_CHARGES


@<TRIPOS>ATOM
      1 C1          1.5732   53.3811   22.7246 C.3       1 UNK         0.0000 
      2 N2          2.8223   53.7454   23.3802 N.pl3     1 UNK         0.0000 
      3 C3          3.0008   53.7713   24.7528 C.ar      1 UNK         0.0000 
      4 C4          2.0886   53.5226   25.7929 C.ar      1 UNK         0.0000 
      5 C5          2.5278   53.6643   27.1163 C.ar      1 UNK         0.0000 
      6 C6          3.8686   53.9905   27.3620 C.ar      1 UNK         0.0000 
      7 C7          4.7617   54.2248   26.3466 C.ar      1 UNK         0.0000 
      8 C8          4.3528   54.1308   25.0033 C.ar      1 UNK         0.0000 
      9 C9          4.9838   54.3227   23.7488 C.ar      1 UNK         0.0000 
     10 C10         4.0059   54.0967   22.7442 C.ar      1 UNK         0.0000 
     11 C11         4.2990   54.2551   21.3825 C.ar      1 UNK         0.0000 
     12 C12         5.5795   54.6929   21.0286 C.ar      1 UNK         0.0000 
     13 C13         6.5663   54.8971   22.0059 C.ar      1 UNK         0.0000 
     14 C14         6.2859   54.6905   23.3550 C.ar      1 UNK         0.0000 
     15 O15         7.8382   55.2990   21.6817 O.3       1 UNK         0.0000 
     16 S16         5.8664   54.9522   19.2652 S.o2      1 UNK         0.0000 
     17 O17         7.2130   55.4942   19.0614 O.2       1 UNK         0.0000 
     18 O18         4.7044   55.6831   18.7494 O.2       1 UNK         0.0000 
     19 C19         5.7954   53.1955   18.5660 C.3       1 UNK         0.0000 
     20 C20         6.3969   53.0915   17.1499 C.3       1 UNK         0.0000 
     21 C21         7.9269   53.3226   17.0841 C.3       1 UNK         0.0000 
     22 N22         8.5617   52.3946   16.1569 N.pl3     1 UNK         0.0000 
     23 C23         8.4790   52.4283   14.7842 C.ar      1 UNK         0.0000 
     24 C24         9.1871   51.3566   14.2595 C.ar      1 UNK         0.0000 
     25 C25         9.7096   50.6397   15.3364 C.ar      1 UNK         0.0000 
     26 C26         9.3120   51.2904   16.4944 C.ar      1 UNK         0.0000 
     27 C27         6.0603   54.5741   26.9722 C.2       1 UNK         0.0000 
     28 O28         7.1044   54.8967   26.4282 O.2       1 UNK         0.0000 
     29 N29         5.8643   54.4946   28.2970 N.am      1 UNK         0.0000 
     30 C30         4.6153   54.1464   28.6467 C.2       1 UNK         0.0000 
     31 O31         4.2066   54.0143   29.7980 O.2       1 UNK         0.0000 
     32 C32         1.5670   53.4361   28.2289 C.ar      1 UNK         0.0000 
     33 C33         1.0067   52.1626   28.3860 C.ar      1 UNK         0.0000 
     34 C34         0.1667   51.8818   29.4594 C.ar      1 UNK         0.0000 
     35 C35        -0.0955   52.8594   30.4141 C.ar      1 UNK         0.0000 
     36 C36         0.4142   54.1439   30.2487 C.ar      1 UNK         0.0000 
     37 C37         1.2187   54.4470   29.1482 C.ar      1 UNK         0.0000 
     38 Cl38        1.7488   56.0858   28.9522 Cl        1 UNK         0.0000 
     39 H39         0.7386   53.8672   23.2324 H         1 UNK         0.0000 
     40 H40         1.5788   53.6945   21.6827 H         1 UNK         0.0000 
     41 H41         1.4466   52.2975   22.7730 H         1 UNK         0.0000 
     42 H42         1.0620   53.2559   25.5867 H         1 UNK         0.0000 
     43 H43         3.5468   54.0978   20.6224 H         1 UNK         0.0000 
     44 H44         7.0639   54.8558   24.0794 H         1 UNK         0.0000 
     45 H45         8.4522   55.2980   22.4279 H         1 UNK         0.0000 
     46 H46         4.7484   52.8913   18.5645 H         1 UNK         0.0000 
     47 H47         6.3046   52.5330   19.2627 H         1 UNK         0.0000 
     48 H48         5.8875   53.7841   16.4776 H         1 UNK         0.0000 
     49 H49         6.1534   52.0968   16.7709 H         1 UNK         0.0000 
     50 H50         8.3996   53.1974   18.0587 H         1 UNK         0.0000 
     51 H51         8.1544   54.3388   16.7565 H         1 UNK         0.0000 
     52 H52         7.9213   53.2144   14.2961 H         1 UNK         0.0000 
     53 H53         9.3109   51.1162   13.2123 H         1 UNK         0.0000 
     54 H54        10.3093   49.7428   15.2778 H         1 UNK         0.0000 
     55 H55         9.5024   51.0603   17.5327 H         1 UNK         0.0000 
     56 H56         6.5833   54.7274   28.9677 H         1 UNK         0.0000 
     57 H57         1.2385   51.3734   27.6840 H         1 UNK         0.0000 
     58 H58        -0.2641   50.8967   29.5675 H         1 UNK         0.0000 
     59 H59        -0.7162   52.6240   31.2688 H         1 UNK         0.0000 
     60 H60         0.1756   54.9104   30.9713 H         1 UNK         0.0000 
@<TRIPOS>BOND
     1    1    2 1    
     2    1   39 1    
     3    1   40 1    
     4    1   41 1    
     5    2   10 ar   
     6    2    3 ar   
     7    3    8 ar   
     8    3    4 ar   
     9    4    5 ar   
    10    4   42 1    
    11    5    6 ar   
    12    5   32 1    
    13    6   30 1    
    14    6    7 ar   
    15    7    8 ar   
    16    7   27 1    
    17    8    9 ar   
    18    9   14 ar   
    19    9   10 ar   
    20   10   11 ar   
    21   11   12 ar   
    22   11   43 1    
    23   12   13 ar   
    24   12   16 1    
    25   13   14 ar   
    26   13   15 1    
    27   14   44 1    
    28   15   45 1    
    29   16   17 2    
    30   16   18 2    
    31   16   19 1    
    32   19   20 1    
    33   19   46 1    
    34   19   47 1    
    35   20   21 1    
    36   20   48 1    
    37   20   49 1    
    38   21   22 1    
    39   21   50 1    
    40   21   51 1    
    41   22   26 ar   
    42   22   23 ar   
    43   23   24 ar   
    44   23   52 1    
    45   24   25 ar   
    46   24   53 1    
    47   25   26 ar   
    48   25   54 1    
    49   26   55 1    
    50   27   28 2    
    51   27   29 am   BACKBONE|DICT|INTERRES
    52   29   30 am   BACKBONE|DICT|INTERRES
    53   29   56 1    
    54   30   31 2    
    55   32   37 ar   
    56   32   33 ar   
    57   33   34 ar   
    58   33   57 1    
    59   34   35 ar   
    60   34   58 1    
    61   35   36 ar   
    62   35   59 1    
    63   36   37 ar   
    64   36   60 1    
    65   37   38 1    
@<TRIPOS>SUBSTRUCTURE
     1 UNK         1 GROUP             0       ****    0 ROOT    
