@<TRIPOS>MOLECULE
CHEMBL256480_16
61   66    1
SMALL
USER_CHARGES


@<TRIPOS>ATOM
      1 C1          0.6104   54.2851   30.6445 C.ar      1 UNK         0.0000 
      2 C2         -0.0933   53.0950   30.7885 C.ar      1 UNK         0.0000 
      3 C3         -0.0641   52.1415   29.7767 C.ar      1 UNK         0.0000 
      4 C4          0.7298   52.3393   28.6463 C.ar      1 UNK         0.0000 
      5 C5          1.5195   53.5034   28.5262 C.ar      1 UNK         0.0000 
      6 C6          1.3946   54.4926   29.5132 C.ar      1 UNK         0.0000 
      7 C7          2.4796   53.7108   27.3977 C.ar      1 UNK         0.0000 
      8 C8          2.0076   53.6000   26.0821 C.ar      1 UNK         0.0000 
      9 C9          2.9006   53.8176   25.0311 C.ar      1 UNK         0.0000 
     10 C10         4.2673   54.1422   25.2396 C.ar      1 UNK         0.0000 
     11 C11         4.8540   54.3321   23.9622 C.ar      1 UNK         0.0000 
     12 C12         6.1333   54.7045   23.5094 C.ar      1 UNK         0.0000 
     13 C13         6.3468   54.8825   22.1406 C.ar      1 UNK         0.0000 
     14 C14         5.3377   54.6234   21.2016 C.ar      1 UNK         0.0000 
     15 C15         4.0625   54.2221   21.6328 C.ar      1 UNK         0.0000 
     16 C16         3.8405   54.0975   23.0006 C.ar      1 UNK         0.0000 
     17 N17         2.6853   53.7783   23.6737 N.pl3     1 UNK         0.0000 
     18 H18         1.7996   53.5737   23.2339 H         1 UNK         0.0000 
     19 O19         5.6515   54.7960   19.8598 O.3       1 UNK         0.0000 
     20 C20         4.6991   54.4728   18.8428 C.3       1 UNK         0.0000 
     21 C21         4.4278   52.9542   18.7506 C.3       1 UNK         0.0000 
     22 C22         3.0378   52.6167   18.1764 C.3       1 UNK         0.0000 
     23 N23         2.7044   51.1292   18.4438 N.4       1 UNK         0.0000 
     24 C24         1.7487   50.5530   17.3773 C.3       1 UNK         0.0000 
     25 C25         1.4108   49.0885   17.7197 C.3       1 UNK         0.0000 
     26 O26         0.9198   48.9658   19.0511 O.3       1 UNK         0.0000 
     27 C27         1.8312   49.3925   20.0576 C.3       1 UNK         0.0000 
     28 C28         2.1995   50.8783   19.8866 C.3       1 UNK         0.0000 
     29 O29         7.5837   55.3029   21.7208 O.3       1 UNK         0.0000 
     30 C30         4.7176   54.2242   26.5702 C.ar      1 UNK         0.0000 
     31 C31         3.8382   54.0184   27.6108 C.ar      1 UNK         0.0000 
     32 C32         4.6239   54.1881   28.8750 C.2       1 UNK         0.0000 
     33 O33         4.2474   54.0965   30.0422 O.2       1 UNK         0.0000 
     34 N34         5.8751   54.4921   28.4818 N.am      1 UNK         0.0000 
     35 C35         6.0496   54.5326   27.1520 C.2       1 UNK         0.0000 
     36 O36         7.1044   54.7935   26.5785 O.2       1 UNK         0.0000 
     37 Cl37        0.7046   51.1096   27.4282 Cl        1 UNK         0.0000 
     38 H38         0.5667   55.0387   31.4180 H         1 UNK         0.0000 
     39 H39        -0.6732   52.9140   31.6816 H         1 UNK         0.0000 
     40 H40        -0.6469   51.2358   29.8807 H         1 UNK         0.0000 
     41 H41         1.9537   55.4146   29.4312 H         1 UNK         0.0000 
     42 H42         0.9738   53.3612   25.8860 H         1 UNK         0.0000 
     43 H43         6.9379   54.8986   24.2003 H         1 UNK         0.0000 
     44 H44         3.2541   54.0469   20.9404 H         1 UNK         0.0000 
     45 H45         5.0905   54.8320   17.8899 H         1 UNK         0.0000 
     46 H46         3.7840   55.0430   19.0110 H         1 UNK         0.0000 
     47 H47         4.5655   52.4822   19.7198 H         1 UNK         0.0000 
     48 H48         5.1976   52.5037   18.1194 H         1 UNK         0.0000 
     49 H49         3.0334   52.7618   17.0932 H         1 UNK         0.0000 
     50 H50         2.2287   53.2029   18.6182 H         1 UNK         0.0000 
     51 H51         2.2966   50.5965   16.4322 H         1 UNK         0.0000 
     52 H52         0.8646   51.1899   17.3378 H         1 UNK         0.0000 
     53 H53         0.6696   48.6934   17.0256 H         1 UNK         0.0000 
     54 H54         2.3040   48.4716   17.6087 H         1 UNK         0.0000 
     55 H55         1.3883   49.2168   21.0382 H         1 UNK         0.0000 
     56 H56         2.7314   48.7810   20.0072 H         1 UNK         0.0000 
     57 H57         1.3444   51.5351   20.0551 H         1 UNK         0.0000 
     58 H58         3.0088   51.1431   20.5662 H         1 UNK         0.0000 
     59 H59         8.2431   55.3342   22.4246 H         1 UNK         0.0000 
     60 H60         6.6155   54.7217   29.1310 H         1 UNK         0.0000 
     61 H61         3.5788   50.6061   18.3248 H         1 UNK         0.0000 
@<TRIPOS>BOND
     1    1    6 ar   
     2    1    2 ar   
     3    1   38 1    
     4    2    3 ar   
     5    2   39 1    
     6    3    4 ar   
     7    3   40 1    
     8    4    5 ar   
     9    4   37 1    
    10    5    6 ar   
    11    5    7 1    
    12    6   41 1    
    13    7   31 ar   
    14    7    8 ar   
    15    8    9 ar   
    16    8   42 1    
    17    9   17 ar   
    18    9   10 ar   
    19   10   11 ar   
    20   10   30 ar   
    21   11   16 ar   
    22   11   12 ar   
    23   12   13 ar   
    24   12   43 1    
    25   13   14 ar   
    26   13   29 1    
    27   14   15 ar   
    28   14   19 1    
    29   15   16 ar   
    30   15   44 1    
    31   16   17 ar   
    32   17   18 1    
    33   19   20 1    
    34   20   21 1    
    35   20   45 1    
    36   20   46 1    
    37   21   22 1    
    38   21   47 1    
    39   21   48 1    
    40   22   23 1    
    41   22   49 1    
    42   22   50 1    
    43   23   28 1    
    44   23   24 1    
    45   23   61 1    
    46   24   25 1    
    47   24   51 1    
    48   24   52 1    
    49   25   26 1    
    50   25   53 1    
    51   25   54 1    
    52   26   27 1    
    53   27   28 1    
    54   27   55 1    
    55   27   56 1    
    56   28   57 1    
    57   28   58 1    
    58   29   59 1    
    59   30   35 1    
    60   30   31 ar   
    61   31   32 1    
    62   32   33 2    
    63   32   34 am   BACKBONE|DICT|INTERRES
    64   34   35 am   BACKBONE|DICT|INTERRES
    65   34   60 1    
    66   35   36 2    
@<TRIPOS>SUBSTRUCTURE
     1 UNK         1 GROUP             0       ****    0 ROOT    
