CHEMBL520537_108
                    3D
 Schrodinger Suite 2024-2.
 52 57  0  0  1  0            999 V2000
    0.1365   51.8749   29.4485 C   0  0  0  0  0  0
   -0.0971   52.8139   30.4465 C   0  0  0  0  0  0
    0.4410   54.0926   30.3428 C   0  0  0  0  0  0
    1.2528   54.4256   29.2585 C   0  0  0  0  0  0
    1.5676   53.4523   28.2857 C   0  0  0  0  0  0
    0.9764   52.1867   28.3849 C   0  0  0  0  0  0
    2.5260   53.6993   27.1748 C   0  0  0  0  0  0
    2.0856   53.5719   25.8499 C   0  0  0  0  0  0
    3.0006   53.8121   24.8100 C   0  0  0  0  0  0
    4.3521   54.1689   25.0643 C   0  0  0  0  0  0
    4.9896   54.3604   23.8144 C   0  0  0  0  0  0
    6.2924   54.7411   23.4275 C   0  0  0  0  0  0
    6.5831   54.8967   22.0745 C   0  0  0  0  0  0
    5.6204   54.6288   21.1067 C   0  0  0  0  0  0
    4.3359   54.2021   21.4398 C   0  0  0  0  0  0
    4.0228   54.0967   22.8033 C   0  0  0  0  0  0
    2.8323   53.7608   23.4345 N   0  0  0  0  0  0
    1.5936   53.3764   22.7622 C   0  0  0  0  0  0
    1.3652   51.8532   22.8729 C   0  0  0  0  0  0
    0.3162   51.3588   21.8674 C   0  0  0  0  0  0
   -0.8798   51.5949   22.0504 O   0  0  0  0  0  0
    0.7591   50.6249   20.7276 N   0  0  0  0  0  0
    2.0387   50.4196   20.2601 C   0  0  0  0  0  0
    1.9045   49.6421   19.1198 C   0  0  0  0  0  0
    0.6415   49.3594   18.8620 N   0  0  0  0  0  0
   -0.0303   49.9537   19.8188 C   0  0  0  0  0  0
    7.8358   55.2970   21.6817 O   0  0  0  0  0  0
    4.7590   54.2545   26.4082 C   0  0  0  0  0  0
    3.8674   54.0158   27.4226 C   0  0  0  0  0  0
    4.6214   54.1471   28.7059 C   0  0  0  0  0  0
    4.2204   53.9917   29.8571 O   0  0  0  0  0  0
    5.8697   54.4967   28.3557 N   0  0  0  0  0  0
    6.0606   54.5844   27.0309 C   0  0  0  0  0  0
    7.1044   54.8968   26.4826 O   0  0  0  0  0  0
    1.8383   56.0545   29.1645 Cl  0  0  0  0  0  0
   -0.3183   50.8967   29.5117 H   0  0  0  0  0  0
   -0.7301   52.5541   31.2816 H   0  0  0  0  0  0
    0.2232   54.8280   31.1036 H   0  0  0  0  0  0
    1.1827   51.4270   27.6441 H   0  0  0  0  0  0
    1.0597   53.3052   25.6431 H   0  0  0  0  0  0
    7.0622   54.9476   24.1489 H   0  0  0  0  0  0
    5.8787   54.7439   20.0638 H   0  0  0  0  0  0
    3.6115   54.0026   20.6630 H   0  0  0  0  0  0
    1.6438   53.6966   21.7210 H   0  0  0  0  0  0
    0.7744   53.9319   23.2224 H   0  0  0  0  0  0
    0.9933   51.6059   23.8674 H   0  0  0  0  0  0
    2.2955   51.2947   22.7757 H   0  0  0  0  0  0
    2.9134   50.8390   20.7349 H   0  0  0  0  0  0
    2.7093   49.2994   18.4816 H   0  0  0  0  0  0
   -1.1044   49.9472   19.9363 H   0  0  0  0  0  0
    8.4805   55.3038   22.4032 H   0  0  0  0  0  0
    6.5937   54.7186   29.0252 H   0  0  0  0  0  0
  1  6  2  0  0  0
  1  2  1  0  0  0
  1 36  1  0  0  0
  2  3  2  0  0  0
  2 37  1  0  0  0
  3  4  1  0  0  0
  3 38  1  0  0  0
  4  5  2  0  0  0
  4 35  1  0  0  0
  5  6  1  0  0  0
  5  7  1  0  0  0
  6 39  1  0  0  0
  7 29  2  0  0  0
  7  8  1  0  0  0
  8  9  2  0  0  0
  8 40  1  0  0  0
  9 17  1  0  0  0
  9 10  1  0  0  0
 10 11  1  0  0  0
 10 28  2  0  0  0
 11 16  2  0  0  0
 11 12  1  0  0  0
 12 13  2  0  0  0
 12 41  1  0  0  0
 13 14  1  0  0  0
 13 27  1  0  0  0
 14 15  2  0  0  0
 14 42  1  0  0  0
 15 16  1  0  0  0
 15 43  1  0  0  0
 16 17  1  0  0  0
 17 18  1  0  0  0
 18 19  1  0  0  0
 18 44  1  0  0  0
 18 45  1  0  0  0
 19 20  1  0  0  0
 19 46  1  0  0  0
 19 47  1  0  0  0
 20 21  2  0  0  0
 20 22  1  0  0  0
 22 26  1  0  0  0
 22 23  1  0  0  0
 23 24  2  0  0  0
 23 48  1  0  0  0
 24 25  1  0  0  0
 24 49  1  0  0  0
 25 26  2  0  0  0
 26 50  1  0  0  0
 27 51  1  0  0  0
 28 33  1  0  0  0
 28 29  1  0  0  0
 29 30  1  0  0  0
 30 31  2  0  0  0
 30 32  1  0  0  0
 32 33  1  0  0  0
 32 52  1  0  0  0
 33 34  2  0  0  0
M  END
> <i_i_glide_confnum>
13

> <i_i_glide_lignum>
109

> <i_i_glide_posenum>
3

> <i_i_glide_rotatable_bonds>
6

> <i_m_Source_File_Index>
111

> <b_m_subgroup_collapsed>
0

> <r_i_docking_score>
-11.6812

> <r_i_glide_ecoul>
-14.8086

> <r_i_glide_eff_state_penalty>
0

> <r_i_glide_einternal>
5.93013

> <r_i_glide_emodel>
-118.36

> <r_i_glide_energy>
-70.603

> <r_i_glide_erotb>
0.241883

> <r_i_glide_esite>
-0.00408306

> <r_i_glide_evdw>
-55.7944

> <r_i_glide_gscore>
-11.6812

> <r_i_glide_hbond>
-0.884091

> <r_i_glide_ligand_efficiency>
-0.33375

> <r_i_glide_ligand_efficiency_ln>
-2.56429

> <r_i_glide_ligand_efficiency_sa>
-1.09172

> <r_i_glide_lipo>
-3.89132

> <r_i_glide_metal>
0

> <r_i_glide_rewards>
-2.13262

> <s_i_glide_gridfile>
wee1_glide-grid

> <s_m_Source_File>
wee1_actives_glide_SP.sdf

> <s_m_Source_Path>
/Users/zhangxujun/Desktop

> <s_m_entry_id>
249

> <s_m_entry_name>
wee1_actives_glide_SP.111

> <s_m_subgroup_title>
wee1_actives_glide_SP

> <s_m_subgroupid>
wee1_actives_glide_SP


$$$$
