CHEMBL472542_31
                    3D
 Schrodinger Suite 2024-2.
 47 51  0  0  1  0            999 V2000
    0.5745   54.1184   30.3457 C   0  0  0  0  0  0
   -0.1500   52.9362   30.4377 C   0  0  0  0  0  0
   -0.0998   52.0025   29.4112 C   0  0  0  0  0  0
    0.7281   52.2094   28.3102 C   0  0  0  0  0  0
    1.5335   53.3673   28.2332 C   0  0  0  0  0  0
    1.3928   54.3353   29.2397 C   0  0  0  0  0  0
    2.5216   53.5994   27.1352 C   0  0  0  0  0  0
    2.0907   53.5150   25.8043 C   0  0  0  0  0  0
    3.0104   53.7648   24.7748 C   0  0  0  0  0  0
    4.3632   54.1034   25.0387 C   0  0  0  0  0  0
    5.0000   54.3129   23.7922 C   0  0  0  0  0  0
    6.3048   54.6886   23.4140 C   0  0  0  0  0  0
    6.5921   54.8977   22.0662 C   0  0  0  0  0  0
    5.6203   54.6909   21.0941 C   0  0  0  0  0  0
    4.3297   54.2756   21.4180 C   0  0  0  0  0  0
    4.0253   54.1044   22.7770 C   0  0  0  0  0  0
    2.8320   53.7681   23.4013 N   0  0  0  0  0  0
    1.5631   53.4795   22.7325 C   0  0  0  0  0  0
    1.3566   51.9779   22.4097 C   0  0  0  0  0  0
    2.3187   51.3847   21.3728 C   0  0  0  0  0  0
    3.1043   50.4979   21.6823 O   0  0  0  0  0  0
    2.2566   51.8485   20.1262 N   0  0  0  0  0  0
    7.8467   55.2990   21.6817 O   0  0  0  0  0  0
    4.7665   54.1813   26.3848 C   0  0  0  0  0  0
    3.8656   53.9295   27.3931 C   0  0  0  0  0  0
    4.6163   54.0853   28.6790 C   0  0  0  0  0  0
    4.2196   53.9430   29.8321 O   0  0  0  0  0  0
    5.8640   54.4444   28.3355 N   0  0  0  0  0  0
    6.0612   54.5437   27.0140 C   0  0  0  0  0  0
    7.1044   54.8966   26.4805 O   0  0  0  0  0  0
    0.7044   50.9940   27.0812 Cl  0  0  0  0  0  0
    0.5055   54.8601   31.1280 H   0  0  0  0  0  0
   -0.7944   52.7514   31.2820 H   0  0  0  0  0  0
   -0.6999   51.1048   29.4764 H   0  0  0  0  0  0
    1.9595   55.2541   29.1899 H   0  0  0  0  0  0
    1.0608   53.2783   25.5815 H   0  0  0  0  0  0
    7.0799   54.8522   24.1402 H   0  0  0  0  0  0
    5.8723   54.8495   20.0557 H   0  0  0  0  0  0
    3.5932   54.1346   20.6409 H   0  0  0  0  0  0
    0.7510   53.8424   23.3631 H   0  0  0  0  0  0
    1.5125   54.0957   21.8417 H   0  0  0  0  0  0
    1.4305   51.3938   23.3284 H   0  0  0  0  0  0
    0.3404   51.8188   22.0482 H   0  0  0  0  0  0
    1.6465   52.6117   19.8786 H   0  0  0  0  0  0
    2.8782   51.4530   19.4340 H   0  0  0  0  0  0
    8.4896   55.2968   22.4047 H   0  0  0  0  0  0
    6.5803   54.6750   29.0089 H   0  0  0  0  0  0
  1  6  2  0  0  0
  1  2  1  0  0  0
  1 32  1  0  0  0
  2  3  2  0  0  0
  2 33  1  0  0  0
  3  4  1  0  0  0
  3 34  1  0  0  0
  4  5  2  0  0  0
  4 31  1  0  0  0
  5  6  1  0  0  0
  5  7  1  0  0  0
  6 35  1  0  0  0
  7 25  2  0  0  0
  7  8  1  0  0  0
  8  9  2  0  0  0
  8 36  1  0  0  0
  9 17  1  0  0  0
  9 10  1  0  0  0
 10 11  1  0  0  0
 10 24  2  0  0  0
 11 16  2  0  0  0
 11 12  1  0  0  0
 12 13  2  0  0  0
 12 37  1  0  0  0
 13 14  1  0  0  0
 13 23  1  0  0  0
 14 15  2  0  0  0
 14 38  1  0  0  0
 15 16  1  0  0  0
 15 39  1  0  0  0
 16 17  1  0  0  0
 17 18  1  0  0  0
 18 19  1  0  0  0
 18 40  1  0  0  0
 18 41  1  0  0  0
 19 20  1  0  0  0
 19 42  1  0  0  0
 19 43  1  0  0  0
 20 21  2  0  0  0
 20 22  1  0  0  0
 22 44  1  0  0  0
 22 45  1  0  0  0
 23 46  1  0  0  0
 24 29  1  0  0  0
 24 25  1  0  0  0
 25 26  1  0  0  0
 26 27  2  0  0  0
 26 28  1  0  0  0
 28 29  1  0  0  0
 28 47  1  0  0  0
 29 30  2  0  0  0
M  END
> <i_i_glide_confnum>
8

> <i_i_glide_lignum>
32

> <i_i_glide_posenum>
181

> <i_i_glide_rotatable_bonds>
5

> <i_m_Source_File_Index>
5

> <b_m_subgroup_collapsed>
0

> <r_i_docking_score>
-11.3481

> <r_i_glide_ecoul>
-14.5874

> <r_i_glide_eff_state_penalty>
0

> <r_i_glide_einternal>
5.05522

> <r_i_glide_emodel>
-107.62

> <r_i_glide_energy>
-64.0213

> <r_i_glide_erotb>
0.222146

> <r_i_glide_esite>
-0.0158054

> <r_i_glide_evdw>
-49.4339

> <r_i_glide_gscore>
-11.3481

> <r_i_glide_hbond>
-0.858181

> <r_i_glide_ligand_efficiency>
-0.366068

> <r_i_glide_ligand_efficiency_ln>
-2.55935

> <r_i_glide_ligand_efficiency_sa>
-1.14996

> <r_i_glide_lipo>
-3.50908

> <r_i_glide_metal>
0

> <r_i_glide_rewards>
-2.52739

> <s_i_glide_gridfile>
wee1_glide-grid

> <s_m_Source_File>
wee1_actives_glide_SP.sdf

> <s_m_Source_Path>
/Users/zhangxujun/Desktop

> <s_m_entry_id>
143

> <s_m_entry_name>
wee1_actives_glide_SP.5

> <s_m_subgroup_title>
wee1_actives_glide_SP

> <s_m_subgroupid>
wee1_actives_glide_SP


$$$$
