@<TRIPOS>MOLECULE
CHEMBL488899_14
51   56    1
SMALL
USER_CHARGES


@<TRIPOS>ATOM
      1 C1         -0.0950   53.1228   30.8170 C.ar      1 UNK         0.0000 
      2 C2          0.0388   52.0979   29.8858 C.ar      1 UNK         0.0000 
      3 C3          0.8882   52.2647   28.7966 C.ar      1 UNK         0.0000 
      4 C4          1.5887   53.4642   28.6273 C.ar      1 UNK         0.0000 
      5 C5          1.3938   54.5080   29.5396 C.ar      1 UNK         0.0000 
      6 C6          0.5635   54.3360   30.6408 C.ar      1 UNK         0.0000 
      7 C7          2.5221   53.6322   27.4823 C.ar      1 UNK         0.0000 
      8 C8          2.0313   53.4330   26.1903 C.ar      1 UNK         0.0000 
      9 C9          2.8900   53.6603   25.1018 C.ar      1 UNK         0.0000 
     10 C10         4.2372   54.0699   25.2798 C.ar      1 UNK         0.0000 
     11 C11         4.7906   54.2462   23.9995 C.ar      1 UNK         0.0000 
     12 C12         6.0664   54.6450   23.5586 C.ar      1 UNK         0.0000 
     13 C13         6.2862   54.8463   22.2030 C.ar      1 UNK         0.0000 
     14 C14         5.2721   54.6205   21.2817 C.ar      1 UNK         0.0000 
     15 C15         4.0041   54.1921   21.6732 C.ar      1 UNK         0.0000 
     16 C16         3.7639   53.9798   23.0408 C.ar      1 UNK         0.0000 
     17 N17         2.6423   53.5219   23.7456 N.pl3     1 UNK         0.0000 
     18 C18         1.3249   53.0180   23.3019 C.3       1 UNK         0.0000 
     19 C19         1.0654   52.7691   21.8046 C.3       1 UNK         0.0000 
     20 N20         1.8533   51.7140   21.1735 N.pl3     1 UNK         0.0000 
     21 C21         1.9572   50.3967   21.5981 C.ar      1 UNK         0.0000 
     22 C22         2.7044   49.6978   20.6575 C.ar      1 UNK         0.0000 
     23 N23         3.1041   50.5989   19.6822 N.pl3     1 UNK         0.0000 
     24 C24         2.5346   51.8162   19.9708 C.ar      1 UNK         0.0000 
     25 O25         7.5044   55.2970   21.7681 O.3       1 UNK         0.0000 
     26 C26         4.7181   54.1901   26.5952 C.ar      1 UNK         0.0000 
     27 C27         3.8683   53.9792   27.6545 C.ar      1 UNK         0.0000 
     28 C28         4.6662   54.1822   28.8931 C.2       1 UNK         0.0000 
     29 O29         4.3033   54.0969   30.0638 O.2       1 UNK         0.0000 
     30 N30         5.9043   54.4961   28.4813 N.am      1 UNK         0.0000 
     31 C31         6.0587   54.5254   27.1487 C.2       1 UNK         0.0000 
     32 O32         7.1025   54.7956   26.5638 O.2       1 UNK         0.0000 
     33 H33        -0.7229   52.9758   31.6815 H         1 UNK         0.0000 
     34 H34        -0.5032   51.1723   30.0199 H         1 UNK         0.0000 
     35 H35         1.0060   51.4530   28.0935 H         1 UNK         0.0000 
     36 H36         1.9109   55.4484   29.4114 H         1 UNK         0.0000 
     37 H37         0.4409   55.1323   31.3618 H         1 UNK         0.0000 
     38 H38         1.0024   53.1376   26.0436 H         1 UNK         0.0000 
     39 H39         6.8663   54.8481   24.2474 H         1 UNK         0.0000 
     40 H40         5.4665   54.8036   20.2349 H         1 UNK         0.0000 
     41 H41         3.2419   54.0922   20.9253 H         1 UNK         0.0000 
     42 H42         0.5889   53.7473   23.6509 H         1 UNK         0.0000 
     43 H43         1.1163   52.1022   23.8581 H         1 UNK         0.0000 
     44 H44         1.2026   53.6965   21.2819 H         1 UNK         0.0000 
     45 H45         0.0177   52.5028   21.6570 H         1 UNK         0.0000 
     46 H46         1.4753   50.0696   22.5103 H         1 UNK         0.0000 
     47 H47         3.0118   48.6614   20.6095 H         1 UNK         0.0000 
     48 H48         2.6195   52.7042   19.3611 H         1 UNK         0.0000 
     49 H49         8.1853   55.3117   22.4527 H         1 UNK         0.0000 
     50 H50         6.6497   54.7408   29.1191 H         1 UNK         0.0000 
     51 H51         3.7165   50.4061   18.8821 H         1 UNK         0.0000 
@<TRIPOS>BOND
     1    1    6 ar   
     2    1    2 ar   
     3    1   33 1    
     4    2    3 ar   
     5    2   34 1    
     6    3    4 ar   
     7    3   35 1    
     8    4    5 ar   
     9    4    7 1    
    10    5    6 ar   
    11    5   36 1    
    12    6   37 1    
    13    7   27 ar   
    14    7    8 ar   
    15    8    9 ar   
    16    8   38 1    
    17    9   17 ar   
    18    9   10 ar   
    19   10   11 ar   
    20   10   26 ar   
    21   11   16 ar   
    22   11   12 ar   
    23   12   13 ar   
    24   12   39 1    
    25   13   14 ar   
    26   13   25 1    
    27   14   15 ar   
    28   14   40 1    
    29   15   16 ar   
    30   15   41 1    
    31   16   17 ar   
    32   17   18 1    
    33   18   19 1    
    34   18   42 1    
    35   18   43 1    
    36   19   20 1    
    37   19   44 1    
    38   19   45 1    
    39   20   24 ar   
    40   20   21 ar   
    41   21   22 ar   
    42   21   46 1    
    43   22   23 ar   
    44   22   47 1    
    45   23   24 ar   
    46   23   51 1    
    47   24   48 1    
    48   25   49 1    
    49   26   31 1    
    50   26   27 ar   
    51   27   28 1    
    52   28   29 2    
    53   28   30 am   BACKBONE|DICT|INTERRES
    54   30   31 am   BACKBONE|DICT|INTERRES
    55   30   50 1    
    56   31   32 2    
@<TRIPOS>SUBSTRUCTURE
     1 UNK         1 GROUP             0       ****    0 ROOT    
