@<TRIPOS>MOLECULE
CHEMBL472208_1
51   56    1
SMALL
USER_CHARGES


@<TRIPOS>ATOM
      1 C1          0.1334   51.8755   29.5092 C.ar      1 UNK         0.0000 
      2 C2         -0.1446   52.8514   30.4581 C.ar      1 UNK         0.0000 
      3 C3          0.3758   54.1339   30.3138 C.ar      1 UNK         0.0000 
      4 C4          1.2080   54.4354   29.2349 C.ar      1 UNK         0.0000 
      5 C5          1.5703   53.4256   28.3208 C.ar      1 UNK         0.0000 
      6 C6          1.0034   52.1538   28.4599 C.ar      1 UNK         0.0000 
      7 C7          2.5350   53.6569   27.2161 C.ar      1 UNK         0.0000 
      8 C8          2.0960   53.5024   25.8976 C.ar      1 UNK         0.0000 
      9 C9          3.0006   53.7622   24.8538 C.ar      1 UNK         0.0000 
     10 C10         4.3484   54.1403   25.0998 C.ar      1 UNK         0.0000 
     11 C11         4.9736   54.3440   23.8437 C.ar      1 UNK         0.0000 
     12 C12         6.2717   54.7293   23.4448 C.ar      1 UNK         0.0000 
     13 C13         6.5431   54.8992   22.0880 C.ar      1 UNK         0.0000 
     14 C14         5.5656   54.6516   21.1309 C.ar      1 UNK         0.0000 
     15 C15         4.2834   54.2284   21.4770 C.ar      1 UNK         0.0000 
     16 C16         3.9937   54.0935   22.8422 C.ar      1 UNK         0.0000 
     17 N17         2.8197   53.7188   23.4821 N.pl3     1 UNK         0.0000 
     18 C18         1.5868   53.3034   22.8203 C.3       1 UNK         0.0000 
     19 C19         1.7604   51.9032   22.1914 C.3       1 UNK         0.0000 
     20 S20         0.1300   51.0307   22.0216 S.3       1 UNK         0.0000 
     21 O21        -0.9401   52.0967   21.7762 O.2       1 UNK         0.0000 
     22 C22        -0.0634   50.5463   23.7877 C.ar      1 UNK         0.0000 
     23 N23        -0.9266   50.9908   24.6676 N.2       1 UNK         0.0000 
     24 H24         1.4455   49.0341   23.9093 H         1 UNK         0.0000 
     25 C25        -0.6444   50.2454   25.7265 C.ar      1 UNK         0.0000 
     26 N26         0.3275   49.3666   25.6121 N.2       1 UNK         0.0000 
     27 N27         0.7043   49.5636   24.3504 N.pl3     1 UNK         0.0000 
     28 O28         7.7888   55.3062   21.6817 O.3       1 UNK         0.0000 
     29 C29         4.7622   54.2306   26.4424 C.ar      1 UNK         0.0000 
     30 C30         3.8733   53.9924   27.4594 C.ar      1 UNK         0.0000 
     31 C31         4.6189   54.1596   28.7424 C.2       1 UNK         0.0000 
     32 O32         4.2072   54.0401   29.8943 O.2       1 UNK         0.0000 
     33 N33         5.8707   54.4967   28.3877 N.am      1 UNK         0.0000 
     34 C34         6.0625   54.5768   27.0613 C.2       1 UNK         0.0000 
     35 O35         7.1043   54.8966   26.5108 O.2       1 UNK         0.0000 
     36 Cl36        1.7458   56.0740   29.0545 Cl        1 UNK         0.0000 
     37 H37        -0.3126   50.8967   29.6006 H         1 UNK         0.0000 
     38 H38        -0.8001   52.6164   31.2817 H         1 UNK         0.0000 
     39 H39         0.1196   54.8990   31.0312 H         1 UNK         0.0000 
     40 H40         1.2442   51.3683   27.7571 H         1 UNK         0.0000 
     41 H41         1.0730   53.2175   25.7047 H         1 UNK         0.0000 
     42 H42         7.0500   54.9250   24.1604 H         1 UNK         0.0000 
     43 H43         5.8096   54.7832   20.0858 H         1 UNK         0.0000 
     44 H44         3.5407   54.0459   20.7130 H         1 UNK         0.0000 
     45 H45         1.3368   54.0578   22.0801 H         1 UNK         0.0000 
     46 H46         0.7717   53.3174   23.5418 H         1 UNK         0.0000 
     47 H47         2.4063   51.2715   22.8011 H         1 UNK         0.0000 
     48 H48         2.2213   51.9765   21.2062 H         1 UNK         0.0000 
     49 H49        -1.2011   50.3272   26.6516 H         1 UNK         0.0000 
     50 H50         8.4437   55.3100   22.3936 H         1 UNK         0.0000 
     51 H51         6.5928   54.7313   29.0546 H         1 UNK         0.0000 
@<TRIPOS>BOND
     1    1    6 ar   
     2    1    2 ar   
     3    1   37 1    
     4    2    3 ar   
     5    2   38 1    
     6    3    4 ar   
     7    3   39 1    
     8    4    5 ar   
     9    4   36 1    
    10    5    6 ar   
    11    5    7 1    
    12    6   40 1    
    13    7   30 ar   
    14    7    8 ar   
    15    8    9 ar   
    16    8   41 1    
    17    9   17 ar   
    18    9   10 ar   
    19   10   11 ar   
    20   10   29 ar   
    21   11   16 ar   
    22   11   12 ar   
    23   12   13 ar   
    24   12   42 1    
    25   13   14 ar   
    26   13   28 1    
    27   14   15 ar   
    28   14   43 1    
    29   15   16 ar   
    30   15   44 1    
    31   16   17 ar   
    32   17   18 1    
    33   18   19 1    
    34   18   45 1    
    35   18   46 1    
    36   19   20 1    
    37   19   47 1    
    38   19   48 1    
    39   20   21 2    
    40   20   22 1    
    41   22   23 ar   
    42   22   27 ar   
    43   23   25 ar   
    44   24   27 1    
    45   25   49 1    
    46   25   26 ar   
    47   26   27 ar   
    48   28   50 1    
    49   29   34 1    
    50   29   30 ar   
    51   30   31 1    
    52   31   32 2    
    53   31   33 am   BACKBONE|DICT|INTERRES
    54   33   34 am   BACKBONE|DICT|INTERRES
    55   33   51 1    
    56   34   35 2    
@<TRIPOS>SUBSTRUCTURE
     1 UNK         1 GROUP             0       ****    0 ROOT    
