@<TRIPOS>MOLECULE
CHEMBL257857_41
64   69    1
SMALL
USER_CHARGES


@<TRIPOS>ATOM
      1 C1          1.4250   53.3848   22.9114 C.3       1 UNK         0.0000 
      2 N2          2.7085   53.7112   23.5136 N.pl3     1 UNK         0.0000 
      3 C3          2.9325   53.7563   24.8759 C.ar      1 UNK         0.0000 
      4 C4          2.0537   53.5249   25.9419 C.ar      1 UNK         0.0000 
      5 C5          2.5372   53.6685   27.2464 C.ar      1 UNK         0.0000 
      6 C6          3.8837   53.9902   27.4514 C.ar      1 UNK         0.0000 
      7 C7          4.7479   54.2180   26.4081 C.ar      1 UNK         0.0000 
      8 C8          4.2922   54.1131   25.0780 C.ar      1 UNK         0.0000 
      9 C9          4.8717   54.3038   23.8020 C.ar      1 UNK         0.0000 
     10 C10         3.8587   54.0776   22.8376 C.ar      1 UNK         0.0000 
     11 C11         4.0913   54.2401   21.4680 C.ar      1 UNK         0.0000 
     12 C12         5.3520   54.6780   21.0511 C.ar      1 UNK         0.0000 
     13 C13         6.3641   54.9021   21.9966 C.ar      1 UNK         0.0000 
     14 C14         6.1478   54.6839   23.3544 C.ar      1 UNK         0.0000 
     15 O15         7.5045   55.3408   21.6741 O.co2     1 UNK         0.0000 
     16 S16         5.5564   54.9433   19.2690 S.o2      1 UNK         0.0000 
     17 O17         6.9024   55.4403   18.9756 O.2       1 UNK         0.0000 
     18 O18         4.3902   55.6963   18.7965 O.2       1 UNK         0.0000 
     19 C19         5.4369   53.2026   18.5475 C.3       1 UNK         0.0000 
     20 C20         3.9875   52.8250   18.1585 C.3       1 UNK         0.0000 
     21 C21         3.5539   53.1912   16.7277 C.3       1 UNK         0.0000 
     22 N22         4.0111   52.0967   15.7337 N.4       1 UNK         0.0000 
     23 C23         5.4693   52.2228   15.2325 C.3       1 UNK         0.0000 
     24 C24         5.4675   51.6249   13.8171 C.3       1 UNK         0.0000 
     25 C25         4.0393   51.1594   13.5396 C.3       1 UNK         0.0000 
     26 C26         3.1704   52.0166   14.4494 C.3       1 UNK         0.0000 
     27 C27         6.0688   54.5728   26.9893 C.2       1 UNK         0.0000 
     28 O28         7.1043   54.8964   26.4184 O.2       1 UNK         0.0000 
     29 N29         5.9045   54.4964   28.3195 N.am      1 UNK         0.0000 
     30 C30         4.6693   54.1494   28.7092 C.2       1 UNK         0.0000 
     31 O31         4.3005   54.0145   29.8724 O.2       1 UNK         0.0000 
     32 C32         1.5986   53.4268   28.3743 C.ar      1 UNK         0.0000 
     33 C33         0.9888   52.1691   28.4644 C.ar      1 UNK         0.0000 
     34 C34         0.1094   51.8758   29.4971 C.ar      1 UNK         0.0000 
     35 C35        -0.1416   52.8276   30.4787 C.ar      1 UNK         0.0000 
     36 C36         0.4305   54.0941   30.3964 C.ar      1 UNK         0.0000 
     37 C37         1.2828   54.4074   29.3395 C.ar      1 UNK         0.0000 
     38 Cl38        1.8931   56.0281   29.2496 Cl        1 UNK         0.0000 
     39 H39         1.4925   53.3523   21.8225 H         1 UNK         0.0000 
     40 H40         1.0947   52.4089   23.2703 H         1 UNK         0.0000 
     41 H41         0.7039   54.1431   23.2155 H         1 UNK         0.0000 
     42 H42         1.0211   53.2594   25.7672 H         1 UNK         0.0000 
     43 H43         3.2968   54.0968   20.7567 H         1 UNK         0.0000 
     44 H44         6.9521   54.8739   24.0462 H         1 UNK         0.0000 
     45 H45         5.8577   52.5141   19.2794 H         1 UNK         0.0000 
     46 H46         6.1023   53.2016   17.6889 H         1 UNK         0.0000 
     47 H47         3.2687   53.2636   18.8451 H         1 UNK         0.0000 
     48 H48         3.8616   51.7519   18.2965 H         1 UNK         0.0000 
     49 H49         3.9074   54.1655   16.3838 H         1 UNK         0.0000 
     50 H50         2.4646   53.1753   16.6660 H         1 UNK         0.0000 
     51 H51         6.1077   51.6978   15.9462 H         1 UNK         0.0000 
     52 H52         5.7238   53.2838   15.2055 H         1 UNK         0.0000 
     53 H53         6.1773   50.7981   13.7334 H         1 UNK         0.0000 
     54 H54         5.7734   52.3828   13.0905 H         1 UNK         0.0000 
     55 H55         3.7708   51.2669   12.4883 H         1 UNK         0.0000 
     56 H56         3.9236   50.1063   13.8047 H         1 UNK         0.0000 
     57 H57         3.0424   53.0399   14.0906 H         1 UNK         0.0000 
     58 H58         2.1959   51.5945   14.6998 H         1 UNK         0.0000 
     59 H59         6.6428   54.7276   28.9708 H         1 UNK         0.0000 
     60 H60         1.2008   51.4076   27.7276 H         1 UNK         0.0000 
     61 H61        -0.3665   50.9054   29.5496 H         1 UNK         0.0000 
     62 H62        -0.8212   52.5847   31.2817 H         1 UNK         0.0000 
     63 H63         0.2011   54.8356   31.1467 H         1 UNK         0.0000 
     64 H64         3.9075   51.1931   16.1994 H         1 UNK         0.0000 
@<TRIPOS>BOND
     1    1    2 1    
     2    1   39 1    
     3    1   40 1    
     4    1   41 1    
     5    2   10 ar   
     6    2    3 ar   
     7    3    8 ar   
     8    3    4 ar   
     9    4    5 ar   
    10    4   42 1    
    11    5    6 ar   
    12    5   32 1    
    13    6   30 1    
    14    6    7 ar   
    15    7    8 ar   
    16    7   27 1    
    17    8    9 ar   
    18    9   14 ar   
    19    9   10 ar   
    20   10   11 ar   
    21   11   12 ar   
    22   11   43 1    
    23   12   13 ar   
    24   12   16 1    
    25   13   14 ar   
    26   13   15 1    
    27   14   44 1    
    28   16   17 2    
    29   16   18 2    
    30   16   19 1    
    31   19   20 1    
    32   19   45 1    
    33   19   46 1    
    34   20   21 1    
    35   20   47 1    
    36   20   48 1    
    37   21   22 1    
    38   21   49 1    
    39   21   50 1    
    40   22   26 1    
    41   22   23 1    
    42   22   64 1    
    43   23   24 1    
    44   23   51 1    
    45   23   52 1    
    46   24   25 1    
    47   24   53 1    
    48   24   54 1    
    49   25   26 1    
    50   25   55 1    
    51   25   56 1    
    52   26   57 1    
    53   26   58 1    
    54   27   28 2    
    55   27   29 am   BACKBONE|DICT|INTERRES
    56   29   30 am   BACKBONE|DICT|INTERRES
    57   29   59 1    
    58   30   31 2    
    59   32   37 ar   
    60   32   33 ar   
    61   33   34 ar   
    62   33   60 1    
    63   34   35 ar   
    64   34   61 1    
    65   35   36 ar   
    66   35   62 1    
    67   36   37 ar   
    68   36   63 1    
    69   37   38 1    
@<TRIPOS>SUBSTRUCTURE
     1 UNK         1 GROUP             0       ****    0 ROOT    
