@<TRIPOS>MOLECULE
CHEMBL272267_107
63   68    1
SMALL
USER_CHARGES


@<TRIPOS>ATOM
      1 C1          1.3287   53.3564   23.1184 C.3       1 UNK         0.0000 
      2 N2          2.6114   53.7151   23.7139 N.pl3     1 UNK         0.0000 
      3 C3          2.8620   53.7637   25.0738 C.ar      1 UNK         0.0000 
      4 C4          2.0002   53.5428   26.1580 C.ar      1 UNK         0.0000 
      5 C5          2.5022   53.7079   27.4541 C.ar      1 UNK         0.0000 
      6 C6          3.8604   54.0122   27.6323 C.ar      1 UNK         0.0000 
      7 C7          4.7144   54.2099   26.5736 C.ar      1 UNK         0.0000 
      8 C8          4.2282   54.1141   25.2536 C.ar      1 UNK         0.0000 
      9 C9          4.7867   54.3010   23.9677 C.ar      1 UNK         0.0000 
     10 C10         3.7691   54.0267   23.0191 C.ar      1 UNK         0.0000 
     11 C11         4.0048   54.0952   21.6427 C.ar      1 UNK         0.0000 
     12 C12         5.2681   54.5192   21.1918 C.ar      1 UNK         0.0000 
     13 C13         6.2697   54.8399   22.1339 C.ar      1 UNK         0.0000 
     14 C14         6.0521   54.6899   23.5027 C.ar      1 UNK         0.0000 
     15 O15         7.5049   55.3094   21.7689 O.3       1 UNK         0.0000 
     16 C16         5.5233   54.5821   19.6916 C.2       1 UNK         0.0000 
     17 O17         6.6562   54.4963   19.2194 O.2       1 UNK         0.0000 
     18 N18         4.4337   54.6756   18.9007 N.am      1 UNK         0.0000 
     19 C19         4.4142   54.4895   17.4467 C.3       1 UNK         0.0000 
     20 C20         4.7342   53.0373   16.9968 C.3       1 UNK         0.0000 
     21 N21         3.5043   52.0969   16.9317 N.4       1 UNK         0.0000 
     22 C22         2.5467   52.2886   15.7472 C.3       1 UNK         0.0000 
     23 C23         1.3107   51.4733   16.1410 C.3       1 UNK         0.0000 
     24 C24         1.3636   51.2747   17.6633 C.3       1 UNK         0.0000 
     25 C25         2.5962   52.0257   18.1681 C.3       1 UNK         0.0000 
     26 C26         6.0578   54.5231   27.1318 C.2       1 UNK         0.0000 
     27 O27         7.1040   54.7785   26.5435 O.2       1 UNK         0.0000 
     28 N28         5.9045   54.4941   28.4665 N.am      1 UNK         0.0000 
     29 C29         4.6641   54.1870   28.8789 C.2       1 UNK         0.0000 
     30 O30         4.2993   54.0943   30.0483 O.2       1 UNK         0.0000 
     31 C31         1.5700   53.5467   28.6002 C.ar      1 UNK         0.0000 
     32 C32         0.9363   52.3106   28.7941 C.ar      1 UNK         0.0000 
     33 C33         0.0930   52.1065   29.8822 C.ar      1 UNK         0.0000 
     34 C34        -0.0955   53.1230   30.8114 C.ar      1 UNK         0.0000 
     35 C35         0.4846   54.3713   30.6093 C.ar      1 UNK         0.0000 
     36 C36         1.2891   54.5991   29.4940 C.ar      1 UNK         0.0000 
     37 Cl37        1.8944   56.2062   29.2495 Cl        1 UNK         0.0000 
     38 H38         0.5221   53.8296   23.6799 H         1 UNK         0.0000 
     39 H39         1.2731   53.6982   22.0851 H         1 UNK         0.0000 
     40 H40         1.2085   52.2721   23.1511 H         1 UNK         0.0000 
     41 H41         0.9618   53.2905   26.0053 H         1 UNK         0.0000 
     42 H42         3.2154   53.8379   20.9530 H         1 UNK         0.0000 
     43 H43         6.8494   54.9225   24.1897 H         1 UNK         0.0000 
     44 H44         8.1354   55.3405   22.4968 H         1 UNK         0.0000 
     45 H45         3.5533   54.8962   19.3406 H         1 UNK         0.0000 
     46 H46         5.1348   55.1755   16.9948 H         1 UNK         0.0000 
     47 H47         3.4390   54.8082   17.0777 H         1 UNK         0.0000 
     48 H48         5.4097   52.5229   17.6844 H         1 UNK         0.0000 
     49 H49         5.1845   52.9948   16.0042 H         1 UNK         0.0000 
     50 H50         3.0563   51.9589   14.8406 H         1 UNK         0.0000 
     51 H51         2.3445   53.3585   15.6760 H         1 UNK         0.0000 
     52 H52         1.3240   50.5054   15.6334 H         1 UNK         0.0000 
     53 H53         0.3967   51.9858   15.8346 H         1 UNK         0.0000 
     54 H54         0.4592   51.6442   18.1497 H         1 UNK         0.0000 
     55 H55         1.4502   50.2146   17.9095 H         1 UNK         0.0000 
     56 H56         2.3640   53.0482   18.4664 H         1 UNK         0.0000 
     57 H57         3.1555   51.5359   18.9671 H         1 UNK         0.0000 
     58 H58         6.6565   54.7301   29.1016 H         1 UNK         0.0000 
     59 H59         1.1023   51.4948   28.1034 H         1 UNK         0.0000 
     60 H60        -0.4137   51.1610   30.0165 H         1 UNK         0.0000 
     61 H61        -0.7086   52.9416   31.6807 H         1 UNK         0.0000 
     62 H62         0.3036   55.1702   31.3109 H         1 UNK         0.0000 
     63 H63         3.9042   51.1594   16.8512 H         1 UNK         0.0000 
@<TRIPOS>BOND
     1    1    2 1    
     2    1   38 1    
     3    1   39 1    
     4    1   40 1    
     5    2   10 ar   
     6    2    3 ar   
     7    3    8 ar   
     8    3    4 ar   
     9    4    5 ar   
    10    4   41 1    
    11    5    6 ar   
    12    5   31 1    
    13    6   29 1    
    14    6    7 ar   
    15    7    8 ar   
    16    7   26 1    
    17    8    9 ar   
    18    9   14 ar   
    19    9   10 ar   
    20   10   11 ar   
    21   11   12 ar   
    22   11   42 1    
    23   12   13 ar   
    24   12   16 1    
    25   13   14 ar   
    26   13   15 1    
    27   14   43 1    
    28   15   44 1    
    29   16   17 2    
    30   16   18 am   BACKBONE|DICT|INTERRES
    31   18   19 1    
    32   18   45 1    
    33   19   20 1    
    34   19   46 1    
    35   19   47 1    
    36   20   21 1    
    37   20   48 1    
    38   20   49 1    
    39   21   25 1    
    40   21   22 1    
    41   21   63 1    
    42   22   23 1    
    43   22   50 1    
    44   22   51 1    
    45   23   24 1    
    46   23   52 1    
    47   23   53 1    
    48   24   25 1    
    49   24   54 1    
    50   24   55 1    
    51   25   56 1    
    52   25   57 1    
    53   26   27 2    
    54   26   28 am   BACKBONE|DICT|INTERRES
    55   28   29 am   BACKBONE|DICT|INTERRES
    56   28   58 1    
    57   29   30 2    
    58   31   36 ar   
    59   31   32 ar   
    60   32   33 ar   
    61   32   59 1    
    62   33   34 ar   
    63   33   60 1    
    64   34   35 ar   
    65   34   61 1    
    66   35   36 ar   
    67   35   62 1    
    68   36   37 1    
@<TRIPOS>SUBSTRUCTURE
     1 UNK         1 GROUP             0       ****    0 ROOT    
