@<TRIPOS>MOLECULE
CHEMBL209486_101
34   38    1
SMALL
USER_CHARGES


@<TRIPOS>ATOM
      1 C1          6.0281   54.4967   21.9987 C.2       1 UNK         0.0000 
      2 C2          5.8383   54.1894   23.3462 C.2       1 UNK         0.0000 
      3 C3          4.4974   54.0800   23.7283 C.2       1 UNK         0.0000 
      4 S4          3.5036   54.1116   22.2835 S.3       1 UNK         0.0000 
      5 C5          4.8565   54.4610   21.2724 C.2       1 UNK         0.0000 
      6 C6          3.8563   53.8791   25.0864 C.ar      1 UNK         0.0000 
      7 C7          2.5708   53.2969   25.0948 C.ar      1 UNK         0.0000 
      8 C8          1.9408   53.0562   26.3188 C.ar      1 UNK         0.0000 
      9 C9          2.5481   53.3743   27.5554 C.ar      1 UNK         0.0000 
     10 C10         1.6569   52.9693   28.5799 C.ar      1 UNK         0.0000 
     11 C11         1.7118   52.9813   29.9855 C.ar      1 UNK         0.0000 
     12 C12         0.6332   52.4960   30.7161 C.ar      1 UNK         0.0000 
     13 C13        -0.4944   51.9977   30.0736 C.ar      1 UNK         0.0000 
     14 C14        -0.5846   51.9400   28.6829 C.ar      1 UNK         0.0000 
     15 C15         0.5018   52.4323   27.9520 C.ar      1 UNK         0.0000 
     16 N16         0.7114   52.4922   26.5915 N.pl3     1 UNK         0.0000 
     17 H17         0.0607   52.1572   25.8959 H         1 UNK         0.0000 
     18 O18         0.7041   52.4487   32.0828 O.3       1 UNK         0.0000 
     19 C19         3.8215   53.9702   27.5213 C.ar      1 UNK         0.0000 
     20 C20         4.4601   54.2084   26.3213 C.ar      1 UNK         0.0000 
     21 C21         5.7726   54.8515   26.6775 C.2       1 UNK         0.0000 
     22 O22         6.6648   55.3013   25.9653 O.2       1 UNK         0.0000 
     23 N23         5.8097   54.8965   28.0187 N.am      1 UNK         0.0000 
     24 C24         4.6933   54.4603   28.6147 C.2       1 UNK         0.0000 
     25 O25         4.4668   54.4965   29.8161 O.2       1 UNK         0.0000 
     26 H26         6.9975   54.6884   21.5626 H         1 UNK         0.0000 
     27 H27         6.6778   54.0874   24.0114 H         1 UNK         0.0000 
     28 H28         4.7209   54.6149   20.2115 H         1 UNK         0.0000 
     29 H29         2.0696   53.0071   24.1849 H         1 UNK         0.0000 
     30 H30         2.5778   53.3253   30.5156 H         1 UNK         0.0000 
     31 H31        -1.2974   51.5883   30.6688 H         1 UNK         0.0000 
     32 H32        -1.4515   51.5073   28.2037 H         1 UNK         0.0000 
     33 H33        -0.1482   52.1638   32.4788 H         1 UNK         0.0000 
     34 H34         6.5789   55.3007   28.5393 H         1 UNK         0.0000 
@<TRIPOS>BOND
     1    1    5 2    
     2    1    2 1    
     3    1   26 1    
     4    2    3 2    
     5    2   27 1    
     6    3    4 1    
     7    3    6 1    
     8    4    5 1    
     9    5   28 1    
    10    6   20 ar   
    11    6    7 ar   
    12    7    8 ar   
    13    7   29 1    
    14    8   16 ar   
    15    8    9 ar   
    16    9   10 ar   
    17    9   19 ar   
    18   10   15 ar   
    19   10   11 ar   
    20   11   12 ar   
    21   11   30 1    
    22   12   13 ar   
    23   12   18 1    
    24   13   14 ar   
    25   13   31 1    
    26   14   15 ar   
    27   14   32 1    
    28   15   16 ar   
    29   16   17 1    
    30   18   33 1    
    31   19   24 1    
    32   19   20 ar   
    33   20   21 1    
    34   21   22 2    
    35   21   23 am   BACKBONE|DICT|INTERRES
    36   23   24 am   BACKBONE|DICT|INTERRES
    37   23   34 1    
    38   24   25 2    
@<TRIPOS>SUBSTRUCTURE
     1 UNK         1 GROUP             0       ****    0 ROOT    
