@<TRIPOS>MOLECULE
CHEMBL519212_55
61   66    1
SMALL
USER_CHARGES


@<TRIPOS>ATOM
      1 C1          0.0923   51.8664   29.5105 C.ar      1 UNK         0.0000 
      2 C2         -0.1755   52.8242   30.4803 C.ar      1 UNK         0.0000 
      3 C3          0.3887   54.0930   30.3880 C.ar      1 UNK         0.0000 
      4 C4          1.2507   54.4007   29.3350 C.ar      1 UNK         0.0000 
      5 C5          1.5899   53.4104   28.3879 C.ar      1 UNK         0.0000 
      6 C6          0.9838   52.1508   28.4835 C.ar      1 UNK         0.0000 
      7 C7          2.5548   53.6445   27.2807 C.ar      1 UNK         0.0000 
      8 C8          2.1032   53.5034   25.9641 C.ar      1 UNK         0.0000 
      9 C9          3.0001   53.7567   24.9144 C.ar      1 UNK         0.0000 
     10 C10         4.3561   54.1076   25.1463 C.ar      1 UNK         0.0000 
     11 C11         4.9693   54.3155   23.8843 C.ar      1 UNK         0.0000 
     12 C12         6.2676   54.6917   23.4684 C.ar      1 UNK         0.0000 
     13 C13         6.5190   54.8969   22.1111 C.ar      1 UNK         0.0000 
     14 C14         5.5212   54.6854   21.1679 C.ar      1 UNK         0.0000 
     15 C15         4.2407   54.2741   21.5282 C.ar      1 UNK         0.0000 
     16 C16         3.9694   54.1012   22.8938 C.ar      1 UNK         0.0000 
     17 N17         2.7932   53.7528   23.5476 N.pl3     1 UNK         0.0000 
     18 C18         1.5162   53.4257   22.9193 C.3       1 UNK         0.0000 
     19 C19         1.4174   51.9298   22.5483 C.3       1 UNK         0.0000 
     20 C20         2.3880   51.5016   21.4226 C.3       1 UNK         0.0000 
     21 C21         2.1176   50.0947   20.8601 C.2       1 UNK         0.0000 
     22 O22         1.8614   49.1963   21.6645 O.2       1 UNK         0.0000 
     23 N23         2.3163   49.8461   19.5373 N.am      1 UNK         0.0000 
     24 C24         2.2870   50.8901   18.4989 C.3       1 UNK         0.0000 
     25 C25         0.8307   50.9501   17.9838 C.3       1 UNK         0.0000 
     26 O26         0.4062   49.6652   17.5118 O.3       1 UNK         0.0000 
     27 C27         0.5631   48.5918   18.4486 C.3       1 UNK         0.0000 
     28 C28         2.0149   48.5166   18.9843 C.3       1 UNK         0.0000 
     29 O29         7.7602   55.2974   21.6818 O.3       1 UNK         0.0000 
     30 C30         4.7772   54.2005   26.4865 C.ar      1 UNK         0.0000 
     31 C31         3.8958   53.9718   27.5133 C.ar      1 UNK         0.0000 
     32 C32         4.6537   54.1427   28.7874 C.2       1 UNK         0.0000 
     33 O33         4.2555   54.0244   29.9439 O.2       1 UNK         0.0000 
     34 N34         5.8975   54.4919   28.4204 N.am      1 UNK         0.0000 
     35 C35         6.0757   54.5660   27.0922 C.2       1 UNK         0.0000 
     36 O36         7.1044   54.8975   26.5267 O.2       1 UNK         0.0000 
     37 Cl37        1.8482   56.0253   29.2357 Cl        1 UNK         0.0000 
     38 H38        -0.3814   50.8966   29.5656 H         1 UNK         0.0000 
     39 H39        -0.8580   52.5884   31.2816 H         1 UNK         0.0000 
     40 H40         0.1450   54.8421   31.1263 H         1 UNK         0.0000 
     41 H41         1.2063   51.3797   27.7588 H         1 UNK         0.0000 
     42 H42         1.0740   53.2390   25.7736 H         1 UNK         0.0000 
     43 H43         7.0619   54.8587   24.1737 H         1 UNK         0.0000 
     44 H44         5.7438   54.8447   20.1226 H         1 UNK         0.0000 
     45 H45         3.4854   54.1378   20.7691 H         1 UNK         0.0000 
     46 H46         1.4025   54.0683   22.0536 H         1 UNK         0.0000 
     47 H47         0.7045   53.7118   23.5877 H         1 UNK         0.0000 
     48 H48         0.3909   51.7307   22.2339 H         1 UNK         0.0000 
     49 H49         1.5808   51.3177   23.4387 H         1 UNK         0.0000 
     50 H50         3.4164   51.5155   21.7835 H         1 UNK         0.0000 
     51 H51         2.3122   52.2490   20.6387 H         1 UNK         0.0000 
     52 H52         2.9099   50.4970   17.6962 H         1 UNK         0.0000 
     53 H53         2.7963   51.8300   18.7058 H         1 UNK         0.0000 
     54 H54         0.1738   51.2801   18.7913 H         1 UNK         0.0000 
     55 H55         0.7389   51.6927   17.1910 H         1 UNK         0.0000 
     56 H56        -0.1207   48.7395   19.2865 H         1 UNK         0.0000 
     57 H57         0.2848   47.6478   17.9803 H         1 UNK         0.0000 
     58 H58         2.2516   47.6897   19.6538 H         1 UNK         0.0000 
     59 H59         2.7049   48.3971   18.1475 H         1 UNK         0.0000 
     60 H60         8.4267   55.2973   22.3834 H         1 UNK         0.0000 
     61 H61         6.6217   54.7399   29.0813 H         1 UNK         0.0000 
@<TRIPOS>BOND
     1    1    6 ar   
     2    1    2 ar   
     3    1   38 1    
     4    2    3 ar   
     5    2   39 1    
     6    3    4 ar   
     7    3   40 1    
     8    4    5 ar   
     9    4   37 1    
    10    5    6 ar   
    11    5    7 1    
    12    6   41 1    
    13    7   31 ar   
    14    7    8 ar   
    15    8    9 ar   
    16    8   42 1    
    17    9   17 ar   
    18    9   10 ar   
    19   10   11 ar   
    20   10   30 ar   
    21   11   16 ar   
    22   11   12 ar   
    23   12   13 ar   
    24   12   43 1    
    25   13   14 ar   
    26   13   29 1    
    27   14   15 ar   
    28   14   44 1    
    29   15   16 ar   
    30   15   45 1    
    31   16   17 ar   
    32   17   18 1    
    33   18   19 1    
    34   18   46 1    
    35   18   47 1    
    36   19   20 1    
    37   19   48 1    
    38   19   49 1    
    39   20   21 1    
    40   20   50 1    
    41   20   51 1    
    42   21   22 2    
    43   21   23 am   BACKBONE|DICT|INTERRES
    44   23   28 1    
    45   23   24 1    
    46   24   25 1    
    47   24   52 1    
    48   24   53 1    
    49   25   26 1    
    50   25   54 1    
    51   25   55 1    
    52   26   27 1    
    53   27   28 1    
    54   27   56 1    
    55   27   57 1    
    56   28   58 1    
    57   28   59 1    
    58   29   60 1    
    59   30   35 1    
    60   30   31 ar   
    61   31   32 1    
    62   32   33 2    
    63   32   34 am   BACKBONE|DICT|INTERRES
    64   34   35 am   BACKBONE|DICT|INTERRES
    65   34   61 1    
    66   35   36 2    
@<TRIPOS>SUBSTRUCTURE
     1 UNK         1 GROUP             0       ****    0 ROOT    
