@<TRIPOS>MOLECULE
CHEMBL471157_132
44   48    1
SMALL
USER_CHARGES


@<TRIPOS>ATOM
      1 C1         -0.2119   52.8970   30.4817 C.ar      1 UNK         0.0000 
      2 C2          0.3733   54.1511   30.3643 C.ar      1 UNK         0.0000 
      3 C3          1.2217   54.4282   29.2941 C.ar      1 UNK         0.0000 
      4 C4          1.5421   53.4193   28.3600 C.ar      1 UNK         0.0000 
      5 C5          0.8881   52.1729   28.4700 C.ar      1 UNK         0.0000 
      6 C6          0.0138   51.9255   29.5210 C.ar      1 UNK         0.0000 
      7 Cl7         1.1044   50.8967   27.3222 Cl        1 UNK         0.0000 
      8 C8          2.5256   53.6656   27.2662 C.ar      1 UNK         0.0000 
      9 C9          2.0843   53.5603   25.9460 C.ar      1 UNK         0.0000 
     10 C10         2.9952   53.7999   24.9099 C.ar      1 UNK         0.0000 
     11 C11         4.3496   54.1494   25.1509 C.ar      1 UNK         0.0000 
     12 C12         4.9699   54.3468   23.8897 C.ar      1 UNK         0.0000 
     13 C13         6.2659   54.7275   23.4753 C.ar      1 UNK         0.0000 
     14 C14         6.5229   54.8967   22.1130 C.ar      1 UNK         0.0000 
     15 C15         5.5361   54.6402   21.1673 C.ar      1 UNK         0.0000 
     16 C16         4.2587   54.2187   21.5279 C.ar      1 UNK         0.0000 
     17 C17         3.9808   54.0965   22.8958 C.ar      1 UNK         0.0000 
     18 N18         2.8013   53.7658   23.5452 N.pl3     1 UNK         0.0000 
     19 C19         1.5376   53.4212   22.9035 C.3       1 UNK         0.0000 
     20 C20         1.4164   51.9197   22.5704 C.3       1 UNK         0.0000 
     21 O21         2.4260   51.4844   21.6818 O.3       1 UNK         0.0000 
     22 O22         7.7622   55.3005   21.6817 O.3       1 UNK         0.0000 
     23 C23         4.7609   54.2317   26.4947 C.ar      1 UNK         0.0000 
     24 C24         3.8682   53.9887   27.5117 C.ar      1 UNK         0.0000 
     25 C25         4.6164   54.1436   28.7936 C.2       1 UNK         0.0000 
     26 O26         4.2057   54.0097   29.9445 O.2       1 UNK         0.0000 
     27 N27         5.8663   54.4917   28.4409 N.am      1 UNK         0.0000 
     28 C28         6.0617   54.5742   27.1146 C.2       1 UNK         0.0000 
     29 O29         7.1044   54.8970   26.5640 O.2       1 UNK         0.0000 
     30 Cl30        1.8109   56.0525   29.1396 Cl        1 UNK         0.0000 
     31 H31        -0.8953   52.6799   31.2821 H         1 UNK         0.0000 
     32 H32         0.1474   54.9170   31.0917 H         1 UNK         0.0000 
     33 H33        -0.4903   50.9712   29.5984 H         1 UNK         0.0000 
     34 H34         1.0569   53.2975   25.7441 H         1 UNK         0.0000 
     35 H35         7.0503   54.9234   24.1856 H         1 UNK         0.0000 
     36 H36         5.7674   54.7660   20.1194 H         1 UNK         0.0000 
     37 H37         3.5075   54.0358   20.7730 H         1 UNK         0.0000 
     38 H38         0.7339   53.6757   23.5932 H         1 UNK         0.0000 
     39 H39         1.3405   54.0908   22.0801 H         1 UNK         0.0000 
     40 H40         1.5644   51.3378   23.4821 H         1 UNK         0.0000 
     41 H41         0.4253   51.6739   22.1869 H         1 UNK         0.0000 
     42 H42         2.2711   51.8634   20.8121 H         1 UNK         0.0000 
     43 H43         8.4273   55.3088   22.3835 H         1 UNK         0.0000 
     44 H44         6.5873   54.7254   29.1098 H         1 UNK         0.0000 
@<TRIPOS>BOND
     1    1    6 ar   
     2    1    2 ar   
     3    1   31 1    
     4    2    3 ar   
     5    2   32 1    
     6    3    4 ar   
     7    3   30 1    
     8    4    5 ar   
     9    4    8 1    
    10    5    6 ar   
    11    5    7 1    
    12    6   33 1    
    13    8   24 ar   
    14    8    9 ar   
    15    9   10 ar   
    16    9   34 1    
    17   10   18 ar   
    18   10   11 ar   
    19   11   12 ar   
    20   11   23 ar   
    21   12   17 ar   
    22   12   13 ar   
    23   13   14 ar   
    24   13   35 1    
    25   14   15 ar   
    26   14   22 1    
    27   15   16 ar   
    28   15   36 1    
    29   16   17 ar   
    30   16   37 1    
    31   17   18 ar   
    32   18   19 1    
    33   19   20 1    
    34   19   38 1    
    35   19   39 1    
    36   20   21 1    
    37   20   40 1    
    38   20   41 1    
    39   21   42 1    
    40   22   43 1    
    41   23   28 1    
    42   23   24 ar   
    43   24   25 1    
    44   25   26 2    
    45   25   27 am   BACKBONE|DICT|INTERRES
    46   27   28 am   BACKBONE|DICT|INTERRES
    47   27   44 1    
    48   28   29 2    
@<TRIPOS>SUBSTRUCTURE
     1 UNK         1 GROUP             0       ****    0 ROOT    
