@<TRIPOS>MOLECULE
CHEMBL472208_5
51   56    1
SMALL
USER_CHARGES


@<TRIPOS>ATOM
      1 C1          0.5423   54.3841   30.4596 C.ar      1 UNK         0.0000 
      2 C2         -0.0952   53.1669   30.6775 C.ar      1 UNK         0.0000 
      3 C3          0.0589   52.1257   29.7667 C.ar      1 UNK         0.0000 
      4 C4          0.8976   52.2768   28.6626 C.ar      1 UNK         0.0000 
      5 C5          1.5682   53.4972   28.4371 C.ar      1 UNK         0.0000 
      6 C6          1.3484   54.5521   29.3355 C.ar      1 UNK         0.0000 
      7 C7          2.5187   53.6955   27.3002 C.ar      1 UNK         0.0000 
      8 C8          2.0496   53.5895   25.9843 C.ar      1 UNK         0.0000 
      9 C9          2.9491   53.7758   24.9184 C.ar      1 UNK         0.0000 
     10 C10         4.3107   54.1230   25.1454 C.ar      1 UNK         0.0000 
     11 C11         4.9204   54.3179   23.8826 C.ar      1 UNK         0.0000 
     12 C12         6.2050   54.7350   23.4695 C.ar      1 UNK         0.0000 
     13 C13         6.4673   54.8930   22.1090 C.ar      1 UNK         0.0000 
     14 C14         5.5034   54.5698   21.1614 C.ar      1 UNK         0.0000 
     15 C15         4.2376   54.1085   21.5214 C.ar      1 UNK         0.0000 
     16 C16         3.9421   54.0213   22.8915 C.ar      1 UNK         0.0000 
     17 N17         2.7581   53.6899   23.5422 N.pl3     1 UNK         0.0000 
     18 C18         1.5034   53.3293   22.8688 C.3       1 UNK         0.0000 
     19 C19         1.2262   51.8044   22.8432 C.3       1 UNK         0.0000 
     20 S20         0.2938   51.2765   24.3608 S.3       1 UNK         0.0000 
     21 O21        -0.9496   52.1666   24.4252 O.2       1 UNK         0.0000 
     22 C22        -0.3230   49.6443   23.8103 C.ar      1 UNK         0.0000 
     23 N23        -0.8960   49.3147   22.6820 N.2       1 UNK         0.0000 
     24 H24         0.0111   48.5630   25.6217 H         1 UNK         0.0000 
     25 C25        -1.2333   48.0542   22.9106 C.ar      1 UNK         0.0000 
     26 N26        -0.9249   47.5399   24.0833 N.2       1 UNK         0.0000 
     27 N27        -0.3347   48.5806   24.6699 N.pl3     1 UNK         0.0000 
     28 O28         7.6960   55.3303   21.6817 O.3       1 UNK         0.0000 
     29 C29         4.7456   54.2231   26.4812 C.ar      1 UNK         0.0000 
     30 C30         3.8684   54.0074   27.5152 C.ar      1 UNK         0.0000 
     31 C31         4.6376   54.1855   28.7822 C.2       1 UNK         0.0000 
     32 O32         4.2464   54.0958   29.9431 O.2       1 UNK         0.0000 
     33 N33         5.8895   54.4946   28.4046 N.am      1 UNK         0.0000 
     34 C34         6.0635   54.5596   27.0749 C.2       1 UNK         0.0000 
     35 O35         7.1043   54.8642   26.5098 O.2       1 UNK         0.0000 
     36 Cl36        1.1102   50.9055   27.6331 Cl        1 UNK         0.0000 
     37 H37         0.4174   55.1952   31.1636 H         1 UNK         0.0000 
     38 H38        -0.7105   53.0221   31.5527 H         1 UNK         0.0000 
     39 H39        -0.4615   51.1927   29.9335 H         1 UNK         0.0000 
     40 H40         1.8414   55.5022   29.1840 H         1 UNK         0.0000 
     41 H41         1.0052   53.3827   25.8157 H         1 UNK         0.0000 
     42 H42         6.9777   54.9767   24.1770 H         1 UNK         0.0000 
     43 H43         5.7413   54.6720   20.1129 H         1 UNK         0.0000 
     44 H44         3.5093   53.8769   20.7569 H         1 UNK         0.0000 
     45 H45         1.5469   53.6966   21.8437 H         1 UNK         0.0000 
     46 H46         0.6899   53.8837   23.3386 H         1 UNK         0.0000 
     47 H47         2.1380   51.2193   22.7182 H         1 UNK         0.0000 
     48 H48         0.5933   51.5780   21.9855 H         1 UNK         0.0000 
     49 H49        -1.7422   47.4698   22.1591 H         1 UNK         0.0000 
     50 H50         8.3611   55.3627   22.3818 H         1 UNK         0.0000 
     51 H51         6.6236   54.7268   29.0610 H         1 UNK         0.0000 
@<TRIPOS>BOND
     1    1    6 ar   
     2    1    2 ar   
     3    1   37 1    
     4    2    3 ar   
     5    2   38 1    
     6    3    4 ar   
     7    3   39 1    
     8    4    5 ar   
     9    4   36 1    
    10    5    6 ar   
    11    5    7 1    
    12    6   40 1    
    13    7   30 ar   
    14    7    8 ar   
    15    8    9 ar   
    16    8   41 1    
    17    9   17 ar   
    18    9   10 ar   
    19   10   11 ar   
    20   10   29 ar   
    21   11   16 ar   
    22   11   12 ar   
    23   12   13 ar   
    24   12   42 1    
    25   13   14 ar   
    26   13   28 1    
    27   14   15 ar   
    28   14   43 1    
    29   15   16 ar   
    30   15   44 1    
    31   16   17 ar   
    32   17   18 1    
    33   18   19 1    
    34   18   45 1    
    35   18   46 1    
    36   19   20 1    
    37   19   47 1    
    38   19   48 1    
    39   20   21 2    
    40   20   22 1    
    41   22   23 ar   
    42   22   27 ar   
    43   23   25 ar   
    44   24   27 1    
    45   25   49 1    
    46   25   26 ar   
    47   26   27 ar   
    48   28   50 1    
    49   29   34 1    
    50   29   30 ar   
    51   30   31 1    
    52   31   32 2    
    53   31   33 am   BACKBONE|DICT|INTERRES
    54   33   34 am   BACKBONE|DICT|INTERRES
    55   33   51 1    
    56   34   35 2    
@<TRIPOS>SUBSTRUCTURE
     1 UNK         1 GROUP             0       ****    0 ROOT    
