@<TRIPOS>MOLECULE
CHEMBL255565_44
69   74    1
SMALL
USER_CHARGES


@<TRIPOS>ATOM
      1 C1          0.1046   51.8687   29.4831 C.ar      1 UNK         0.0000 
      2 C2         -0.1459   52.8211   30.4636 C.ar      1 UNK         0.0000 
      3 C3          0.4145   54.0908   30.3620 C.ar      1 UNK         0.0000 
      4 C4          1.2551   54.4043   29.2941 C.ar      1 UNK         0.0000 
      5 C5          1.5805   53.4186   28.3371 C.ar      1 UNK         0.0000 
      6 C6          0.9759   52.1595   28.4387 C.ar      1 UNK         0.0000 
      7 C7          2.5394   53.6521   27.2229 C.ar      1 UNK         0.0000 
      8 C8          2.0920   53.4925   25.9045 C.ar      1 UNK         0.0000 
      9 C9          2.9912   53.7387   24.8548 C.ar      1 UNK         0.0000 
     10 C10         4.3425   54.1154   25.0915 C.ar      1 UNK         0.0000 
     11 C11         4.9593   54.3124   23.8316 C.ar      1 UNK         0.0000 
     12 C12         6.2529   54.6910   23.4158 C.ar      1 UNK         0.0000 
     13 C13         6.5067   54.8966   22.0592 C.ar      1 UNK         0.0000 
     14 C14         5.5036   54.6903   21.1028 C.ar      1 UNK         0.0000 
     15 C15         4.2371   54.2413   21.4838 C.ar      1 UNK         0.0000 
     16 C16         3.9711   54.0697   22.8438 C.ar      1 UNK         0.0000 
     17 N17         2.8032   53.6795   23.4842 N.pl3     1 UNK         0.0000 
     18 C18         1.5708   53.2439   22.8202 C.3       1 UNK         0.0000 
     19 C19         1.5609   51.7341   22.5121 C.3       1 UNK         0.0000 
     20 O20         1.5047   50.9717   23.6994 O.3       1 UNK         0.0000 
     21 C21         5.7349   54.9470   19.6117 C.3       1 UNK         0.0000 
     22 C22         6.3140   53.7194   18.8810 C.3       1 UNK         0.0000 
     23 C23         6.1661   53.7088   17.3461 C.3       1 UNK         0.0000 
     24 C24         4.7383   53.7281   16.7563 C.3       1 UNK         0.0000 
     25 N25         3.9044   52.4968   17.1952 N.4       1 UNK         0.0000 
     26 C26         2.8657   52.0684   16.1426 C.3       1 UNK         0.0000 
     27 C27         1.8991   51.2008   16.9365 C.3       1 UNK         0.0000 
     28 C28         1.7878   51.8869   18.2933 C.3       1 UNK         0.0000 
     29 C29         3.0894   52.6744   18.4943 C.3       1 UNK         0.0000 
     30 O30         7.7643   55.3002   21.6817 O.3       1 UNK         0.0000 
     31 C31         4.7633   54.2165   26.4307 C.ar      1 UNK         0.0000 
     32 C32         3.8812   53.9835   27.4552 C.ar      1 UNK         0.0000 
     33 C33         4.6415   54.1441   28.7304 C.2       1 UNK         0.0000 
     34 O34         4.2466   54.0115   29.8865 O.2       1 UNK         0.0000 
     35 N35         5.8855   54.4964   28.3662 N.am      1 UNK         0.0000 
     36 C36         6.0675   54.5725   27.0380 C.2       1 UNK         0.0000 
     37 O37         7.1044   54.8971   26.4793 O.2       1 UNK         0.0000 
     38 Cl38        1.8480   56.0291   29.1910 Cl        1 UNK         0.0000 
     39 H39        -0.3650   50.8972   29.5435 H         1 UNK         0.0000 
     40 H40        -0.8095   52.5801   31.2812 H         1 UNK         0.0000 
     41 H41         0.1830   54.8366   31.1089 H         1 UNK         0.0000 
     42 H42         1.1854   51.3919   27.7066 H         1 UNK         0.0000 
     43 H43         1.0700   53.2045   25.7054 H         1 UNK         0.0000 
     44 H44         7.0416   54.8676   24.1253 H         1 UNK         0.0000 
     45 H45         3.4642   54.0944   20.7496 H         1 UNK         0.0000 
     46 H46         0.6809   53.5738   23.3565 H         1 UNK         0.0000 
     47 H47         1.5264   53.7625   21.8669 H         1 UNK         0.0000 
     48 H48         0.7450   51.4716   21.8368 H         1 UNK         0.0000 
     49 H49         2.4861   51.4551   22.0038 H         1 UNK         0.0000 
     50 H50         1.6160   50.0397   23.4884 H         1 UNK         0.0000 
     51 H51         6.3919   55.8088   19.4789 H         1 UNK         0.0000 
     52 H52         4.7865   55.2446   19.1643 H         1 UNK         0.0000 
     53 H53         5.9026   52.7944   19.2841 H         1 UNK         0.0000 
     54 H54         7.3787   53.6966   19.1104 H         1 UNK         0.0000 
     55 H55         6.6805   52.8258   16.9610 H         1 UNK         0.0000 
     56 H56         6.7138   54.5589   16.9359 H         1 UNK         0.0000 
     57 H57         4.8096   53.6541   15.6693 H         1 UNK         0.0000 
     58 H58         4.1632   54.6247   16.9912 H         1 UNK         0.0000 
     59 H59         3.3878   51.5559   15.3323 H         1 UNK         0.0000 
     60 H60         2.4040   52.9811   15.7610 H         1 UNK         0.0000 
     61 H61         2.3043   50.1933   17.0478 H         1 UNK         0.0000 
     62 H62         0.9297   51.1091   16.4452 H         1 UNK         0.0000 
     63 H63         0.9330   52.5675   18.3182 H         1 UNK         0.0000 
     64 H64         1.6418   51.1534   19.0904 H         1 UNK         0.0000 
     65 H65         2.8773   53.7368   18.6230 H         1 UNK         0.0000 
     66 H66         3.7043   52.2754   19.3026 H         1 UNK         0.0000 
     67 H67         8.4056   55.2980   22.4058 H         1 UNK         0.0000 
     68 H68         6.6114   54.7373   29.0279 H         1 UNK         0.0000 
     69 H69         4.5214   51.6892   17.3275 H         1 UNK         0.0000 
@<TRIPOS>BOND
     1    1    6 ar   
     2    1    2 ar   
     3    1   39 1    
     4    2    3 ar   
     5    2   40 1    
     6    3    4 ar   
     7    3   41 1    
     8    4    5 ar   
     9    4   38 1    
    10    5    6 ar   
    11    5    7 1    
    12    6   42 1    
    13    7   32 ar   
    14    7    8 ar   
    15    8    9 ar   
    16    8   43 1    
    17    9   17 ar   
    18    9   10 ar   
    19   10   11 ar   
    20   10   31 ar   
    21   11   16 ar   
    22   11   12 ar   
    23   12   13 ar   
    24   12   44 1    
    25   13   14 ar   
    26   13   30 1    
    27   14   15 ar   
    28   14   21 1    
    29   15   16 ar   
    30   15   45 1    
    31   16   17 ar   
    32   17   18 1    
    33   18   19 1    
    34   18   46 1    
    35   18   47 1    
    36   19   20 1    
    37   19   48 1    
    38   19   49 1    
    39   20   50 1    
    40   21   22 1    
    41   21   51 1    
    42   21   52 1    
    43   22   23 1    
    44   22   53 1    
    45   22   54 1    
    46   23   24 1    
    47   23   55 1    
    48   23   56 1    
    49   24   25 1    
    50   24   57 1    
    51   24   58 1    
    52   25   29 1    
    53   25   26 1    
    54   25   69 1    
    55   26   27 1    
    56   26   59 1    
    57   26   60 1    
    58   27   28 1    
    59   27   61 1    
    60   27   62 1    
    61   28   29 1    
    62   28   63 1    
    63   28   64 1    
    64   29   65 1    
    65   29   66 1    
    66   30   67 1    
    67   31   36 1    
    68   31   32 ar   
    69   32   33 1    
    70   33   34 2    
    71   33   35 am   BACKBONE|DICT|INTERRES
    72   35   36 am   BACKBONE|DICT|INTERRES
    73   35   68 1    
    74   36   37 2    
@<TRIPOS>SUBSTRUCTURE
     1 UNK         1 GROUP             0       ****    0 ROOT    
