CHEMBL377839_102
                    3D
 Schrodinger Suite 2024-2.
 34 38  0  0  1  0            999 V2000
    5.5035   54.5593   20.8679 C   0  0  0  0  0  0
    4.2437   54.0966   21.2401 C   0  0  0  0  0  0
    3.9739   54.0078   22.6090 C   0  0  0  0  0  0
    4.9482   54.3143   23.5997 C   0  0  0  0  0  0
    6.2209   54.7488   23.1763 C   0  0  0  0  0  0
    6.4656   54.8969   21.8126 C   0  0  0  0  0  0
    7.6733   55.3800   21.3860 O   0  0  0  0  0  0
    4.3405   54.0974   24.8655 C   0  0  0  0  0  0
    3.0007   53.6821   24.6281 C   0  0  0  0  0  0
    2.8157   53.6469   23.2621 N   0  0  0  0  0  0
    1.9600   53.3789   22.7975 H   0  0  0  0  0  0
    2.1160   53.3599   25.6664 C   0  0  0  0  0  0
    2.5787   53.4628   26.9859 C   0  0  0  0  0  0
    3.8941   53.8901   27.2314 C   0  0  0  0  0  0
    4.7624   54.1931   26.2068 C   0  0  0  0  0  0
    6.0638   54.5698   26.8155 C   0  0  0  0  0  0
    7.1043   54.8999   26.2627 O   0  0  0  0  0  0
    5.8765   54.4953   28.1423 N   0  0  0  0  0  0
    4.6458   54.0966   28.5084 C   0  0  0  0  0  0
    4.2636   53.9575   29.6694 O   0  0  0  0  0  0
    1.6246   53.0672   28.0677 C   0  0  0  0  0  0
    0.8896   51.8653   28.0801 C   0  0  0  0  0  0
    0.0830   51.7136   29.2007 C   0  0  0  0  0  0
    0.2281   53.0555   30.2856 S   0  0  0  0  0  0
    1.3260   53.8308   29.1941 C   0  0  0  0  0  0
    5.7214   54.6685   19.8154 H   0  0  0  0  0  0
    3.5015   53.8550   20.4932 H   0  0  0  0  0  0
    6.9999   55.0091   23.8744 H   0  0  0  0  0  0
    7.7933   55.3028   20.4368 H   0  0  0  0  0  0
    1.1078   53.0317   25.4573 H   0  0  0  0  0  0
    6.5957   54.7438   28.8095 H   0  0  0  0  0  0
    0.9473   51.1201   27.2985 H   0  0  0  0  0  0
   -0.5812   50.8968   29.4408 H   0  0  0  0  0  0
    1.7321   54.7998   29.4469 H   0  0  0  0  0  0
  1  6  2  0  0  0
  1  2  1  0  0  0
  1 26  1  0  0  0
  2  3  2  0  0  0
  2 27  1  0  0  0
  3 10  1  0  0  0
  3  4  1  0  0  0
  4  5  2  0  0  0
  4  8  1  0  0  0
  5  6  1  0  0  0
  5 28  1  0  0  0
  6  7  1  0  0  0
  7 29  1  0  0  0
  8 15  2  0  0  0
  8  9  1  0  0  0
  9 10  1  0  0  0
  9 12  2  0  0  0
 10 11  1  0  0  0
 12 13  1  0  0  0
 12 30  1  0  0  0
 13 14  2  0  0  0
 13 21  1  0  0  0
 14 19  1  0  0  0
 14 15  1  0  0  0
 15 16  1  0  0  0
 16 17  2  0  0  0
 16 18  1  0  0  0
 18 19  1  0  0  0
 18 31  1  0  0  0
 19 20  2  0  0  0
 21 25  2  0  0  0
 21 22  1  0  0  0
 22 23  2  0  0  0
 22 32  1  0  0  0
 23 24  1  0  0  0
 23 33  1  0  0  0
 24 25  1  0  0  0
 25 34  1  0  0  0
M  END
> <i_i_glide_confnum>
2

> <i_i_glide_lignum>
103

> <i_i_glide_posenum>
262

> <i_i_glide_rotatable_bonds>
2

> <i_m_Source_File_Index>
73

> <b_m_subgroup_collapsed>
0

> <r_i_docking_score>
-9.62889

> <r_i_glide_ecoul>
-8.13317

> <r_i_glide_eff_state_penalty>
0

> <r_i_glide_einternal>
1.50658

> <r_i_glide_emodel>
-83.0753

> <r_i_glide_energy>
-51.7743

> <r_i_glide_erotb>
0.118093

> <r_i_glide_esite>
0

> <r_i_glide_evdw>
-43.6411

> <r_i_glide_gscore>
-9.62889

> <r_i_glide_hbond>
-0.573548

> <r_i_glide_ligand_efficiency>
-0.401204

> <r_i_glide_ligand_efficiency_ln>
-2.30463

> <r_i_glide_ligand_efficiency_sa>
-1.15727

> <r_i_glide_lipo>
-2.90237

> <r_i_glide_metal>
0

> <r_i_glide_rewards>
-2.86903

> <s_i_glide_gridfile>
wee1_glide-grid

> <s_m_Source_File>
wee1_actives_glide_SP.sdf

> <s_m_Source_Path>
/Users/zhangxujun/Desktop

> <s_m_entry_id>
211

> <s_m_entry_name>
wee1_actives_glide_SP.73

> <s_m_subgroup_title>
wee1_actives_glide_SP

> <s_m_subgroupid>
wee1_actives_glide_SP


$$$$
