@<TRIPOS>MOLECULE
CHEMBL452078_51
64   69    1
SMALL
USER_CHARGES


@<TRIPOS>ATOM
      1 C1          1.0425   47.1820   18.0183 C.3       1 UNK         0.0000 
      2 N2          1.0979   48.3344   18.9144 N.3       1 UNK         0.0000 
      3 C3          1.3001   49.5590   18.1290 C.3       1 UNK         0.0000 
      4 C4          1.3465   50.8095   19.0343 C.3       1 UNK         0.0000 
      5 N5          2.4705   50.6249   20.0791 N.4       1 UNK         0.0000 
      6 C6          2.2439   49.3288   20.8877 C.3       1 UNK         0.0000 
      7 C7          2.1669   48.1455   19.9010 C.3       1 UNK         0.0000 
      8 C8          2.6737   51.8853   20.9586 C.3       1 UNK         0.0000 
      9 C9          1.6182   52.0751   22.0775 C.3       1 UNK         0.0000 
     10 C10         1.6250   53.4631   22.7751 C.3       1 UNK         0.0000 
     11 N11         2.8753   53.7727   23.4744 N.pl3     1 UNK         0.0000 
     12 C12         4.0590   54.1948   22.8832 C.ar      1 UNK         0.0000 
     13 C13         4.3587   54.4967   21.5463 C.ar      1 UNK         0.0000 
     14 C14         5.6600   54.8856   21.2432 C.ar      1 UNK         0.0000 
     15 C15         6.6435   54.9656   22.2186 C.ar      1 UNK         0.0000 
     16 C16         6.3502   54.6856   23.5523 C.ar      1 UNK         0.0000 
     17 C17         5.0334   54.3300   23.9100 C.ar      1 UNK         0.0000 
     18 C18         4.3786   54.1003   25.1434 C.ar      1 UNK         0.0000 
     19 C19         3.0287   53.7618   24.8514 C.ar      1 UNK         0.0000 
     20 C20         2.0918   53.5074   25.8665 C.ar      1 UNK         0.0000 
     21 C21         2.4982   53.6080   27.2018 C.ar      1 UNK         0.0000 
     22 C22         3.8365   53.9174   27.4863 C.ar      1 UNK         0.0000 
     23 C23         4.7585   54.1601   26.4971 C.ar      1 UNK         0.0000 
     24 C24         6.0436   54.5049   27.1584 C.2       1 UNK         0.0000 
     25 O25         7.1044   54.8432   26.6474 O.2       1 UNK         0.0000 
     26 N26         5.8086   54.4080   28.4767 N.am      1 UNK         0.0000 
     27 C27         4.5482   54.0606   28.7913 C.2       1 UNK         0.0000 
     28 O28         4.1057   53.9181   29.9299 O.2       1 UNK         0.0000 
     29 C29         1.4953   53.3748   28.2846 C.ar      1 UNK         0.0000 
     30 C30         0.8579   52.1237   28.4167 C.ar      1 UNK         0.0000 
     31 C31        -0.0010   51.8762   29.4842 C.ar      1 UNK         0.0000 
     32 C32        -0.2208   52.8514   30.4454 C.ar      1 UNK         0.0000 
     33 C33         0.3405   54.1145   30.2966 C.ar      1 UNK         0.0000 
     34 C34         1.1693   54.3905   29.2097 C.ar      1 UNK         0.0000 
     35 Cl35        1.7520   56.0151   29.0382 Cl        1 UNK         0.0000 
     36 Cl36        1.1043   50.8408   27.2820 Cl        1 UNK         0.0000 
     37 O37         7.9044   55.3503   21.8484 O.3       1 UNK         0.0000 
     38 H38         0.2346   47.2914   17.2929 H         1 UNK         0.0000 
     39 H39         0.8526   46.2642   18.5761 H         1 UNK         0.0000 
     40 H40         1.9759   47.0551   17.4653 H         1 UNK         0.0000 
     41 H41         2.2555   49.4711   17.6067 H         1 UNK         0.0000 
     42 H42         0.5096   49.6801   17.3867 H         1 UNK         0.0000 
     43 H43         0.4073   50.9887   19.5594 H         1 UNK         0.0000 
     44 H44         1.6224   51.6805   18.4376 H         1 UNK         0.0000 
     45 H45         1.3318   49.4368   21.4762 H         1 UNK         0.0000 
     46 H46         3.1043   49.2219   21.5475 H         1 UNK         0.0000 
     47 H47         2.0169   47.2240   20.4596 H         1 UNK         0.0000 
     48 H48         3.1044   48.0755   19.3504 H         1 UNK         0.0000 
     49 H49         3.6833   51.7842   21.3595 H         1 UNK         0.0000 
     50 H50         2.6655   52.7038   20.2398 H         1 UNK         0.0000 
     51 H51         0.6210   51.9089   21.6712 H         1 UNK         0.0000 
     52 H52         1.7582   51.3102   22.8428 H         1 UNK         0.0000 
     53 H53         1.4574   54.2768   22.0817 H         1 UNK         0.0000 
     54 H54         0.7923   53.5260   23.4757 H         1 UNK         0.0000 
     55 H55         3.6108   54.4865   20.7710 H         1 UNK         0.0000 
     56 H56         5.9107   55.1335   20.2218 H         1 UNK         0.0000 
     57 H57         7.1297   54.7803   24.2875 H         1 UNK         0.0000 
     58 H58         1.0663   53.2582   25.6401 H         1 UNK         0.0000 
     59 H59         6.5106   54.6344   29.1676 H         1 UNK         0.0000 
     60 H60        -0.4869   50.9154   29.5802 H         1 UNK         0.0000 
     61 H61        -0.8691   52.6366   31.2817 H         1 UNK         0.0000 
     62 H62         0.1230   54.8857   31.0221 H         1 UNK         0.0000 
     63 H63         8.5480   55.2969   22.5761 H         1 UNK         0.0000 
     64 H64         3.3234   50.4994   19.5442 H         1 UNK         0.0000 
@<TRIPOS>BOND
     1    1    2 1    
     2    1   38 1    
     3    1   39 1    
     4    1   40 1    
     5    2    7 1    
     6    2    3 1    
     7    3    4 1    
     8    3   41 1    
     9    3   42 1    
    10    4    5 1    
    11    4   43 1    
    12    4   44 1    
    13    5    6 1    
    14    5    8 1    
    15    5   64 1    
    16    6    7 1    
    17    6   45 1    
    18    6   46 1    
    19    7   47 1    
    20    7   48 1    
    21    8    9 1    
    22    8   49 1    
    23    8   50 1    
    24    9   10 1    
    25    9   51 1    
    26    9   52 1    
    27   10   11 1    
    28   10   53 1    
    29   10   54 1    
    30   11   19 ar   
    31   11   12 ar   
    32   12   17 ar   
    33   12   13 ar   
    34   13   14 ar   
    35   13   55 1    
    36   14   15 ar   
    37   14   56 1    
    38   15   16 ar   
    39   15   37 1    
    40   16   17 ar   
    41   16   57 1    
    42   17   18 ar   
    43   18   23 ar   
    44   18   19 ar   
    45   19   20 ar   
    46   20   21 ar   
    47   20   58 1    
    48   21   22 ar   
    49   21   29 1    
    50   22   27 1    
    51   22   23 ar   
    52   23   24 1    
    53   24   25 2    
    54   24   26 am   BACKBONE|DICT|INTERRES
    55   26   27 am   BACKBONE|DICT|INTERRES
    56   26   59 1    
    57   27   28 2    
    58   29   34 ar   
    59   29   30 ar   
    60   30   31 ar   
    61   30   36 1    
    62   31   32 ar   
    63   31   60 1    
    64   32   33 ar   
    65   32   61 1    
    66   33   34 ar   
    67   33   62 1    
    68   34   35 1    
    69   37   63 1    
@<TRIPOS>SUBSTRUCTURE
     1 UNK         1 GROUP             0       ****    0 ROOT    
