@<TRIPOS>MOLECULE
CHEMBL472209_94
51   56    1
SMALL
USER_CHARGES


@<TRIPOS>ATOM
      1 C1          0.1030   51.8694   29.4279 C.ar      1 UNK         0.0000 
      2 C2         -0.1180   52.7834   30.4516 C.ar      1 UNK         0.0000 
      3 C3          0.4380   54.0570   30.3840 C.ar      1 UNK         0.0000 
      4 C4          1.2568   54.4092   29.3110 C.ar      1 UNK         0.0000 
      5 C5          1.5610   53.4581   28.3118 C.ar      1 UNK         0.0000 
      6 C6          0.9485   52.1995   28.3746 C.ar      1 UNK         0.0000 
      7 C7          2.5202   53.7172   27.2028 C.ar      1 UNK         0.0000 
      8 C8          2.0745   53.5970   25.8792 C.ar      1 UNK         0.0000 
      9 C9          2.9885   53.8268   24.8365 C.ar      1 UNK         0.0000 
     10 C10         4.3431   54.1722   25.0838 C.ar      1 UNK         0.0000 
     11 C11         4.9738   54.3578   23.8294 C.ar      1 UNK         0.0000 
     12 C12         6.2749   54.7370   23.4353 C.ar      1 UNK         0.0000 
     13 C13         6.5564   54.8967   22.0806 C.ar      1 UNK         0.0000 
     14 C14         5.5885   54.6279   21.1180 C.ar      1 UNK         0.0000 
     15 C15         4.3056   54.2015   21.4580 C.ar      1 UNK         0.0000 
     16 C16         4.0000   54.0966   22.8231 C.ar      1 UNK         0.0000 
     17 N17         2.8100   53.7763   23.4624 N.pl3     1 UNK         0.0000 
     18 C18         1.5448   53.4452   22.8117 C.3       1 UNK         0.0000 
     19 C19         1.1820   51.9594   23.0063 C.3       1 UNK         0.0000 
     20 S20        -0.6888   51.7589   23.0923 S.o2      1 UNK         0.0000 
     21 O21        -1.2378   51.8280   21.7326 O.2       1 UNK         0.0000 
     22 O22        -1.2045   52.6300   24.1555 O.2       1 UNK         0.0000 
     23 C23        -0.8391   50.0470   23.6688 C.ar      1 UNK         0.0000 
     24 N24        -0.7892   49.7402   24.9400 N.ar      1 UNK         0.0000 
     25 C25        -0.8902   48.4383   24.8812 C.ar      1 UNK         0.0000 
     26 N26        -0.9843   47.9373   23.6792 N.2       1 UNK         0.0000 
     27 N27        -0.9424   49.0339   22.8500 N.ar      1 UNK         0.0000 
     28 O28         7.8065   55.2984   21.6817 O.3       1 UNK         0.0000 
     29 C29         4.7554   54.2583   26.4266 C.ar      1 UNK         0.0000 
     30 C30         3.8655   54.0246   27.4449 C.ar      1 UNK         0.0000 
     31 C31         4.6275   54.1448   28.7243 C.2       1 UNK         0.0000 
     32 O32         4.2326   53.9849   29.8769 O.2       1 UNK         0.0000 
     33 N33         5.8758   54.4894   28.3690 N.am      1 UNK         0.0000 
     34 C34         6.0615   54.5831   27.0439 C.2       1 UNK         0.0000 
     35 O35         7.1044   54.8970   26.4928 O.2       1 UNK         0.0000 
     36 Cl36        1.8583   56.0348   29.2679 Cl        1 UNK         0.0000 
     37 H37        -0.3670   50.8969   29.4616 H         1 UNK         0.0000 
     38 H38        -0.7523   52.5078   31.2801 H         1 UNK         0.0000 
     39 H39         0.2282   54.7736   31.1648 H         1 UNK         0.0000 
     40 H40         1.1390   51.4589   27.6099 H         1 UNK         0.0000 
     41 H41         1.0468   53.3309   25.6733 H         1 UNK         0.0000 
     42 H42         7.0484   54.9429   24.1531 H         1 UNK         0.0000 
     43 H43         5.8406   54.7447   20.0738 H         1 UNK         0.0000 
     44 H44         3.5735   54.0066   20.6869 H         1 UNK         0.0000 
     45 H45         1.5766   53.6966   21.7536 H         1 UNK         0.0000 
     46 H46         0.7938   54.0968   23.2607 H         1 UNK         0.0000 
     47 H47         1.5602   51.5463   23.9410 H         1 UNK         0.0000 
     48 H48         1.5513   51.3222   22.2034 H         1 UNK         0.0000 
     49 H49        -0.8934   47.8238   25.7715 H         1 UNK         0.0000 
     50 H50         8.4531   55.3082   22.4010 H         1 UNK         0.0000 
     51 H51         6.6029   54.7074   29.0363 H         1 UNK         0.0000 
@<TRIPOS>BOND
     1    1    6 ar   
     2    1    2 ar   
     3    1   37 1    
     4    2    3 ar   
     5    2   38 1    
     6    3    4 ar   
     7    3   39 1    
     8    4    5 ar   
     9    4   36 1    
    10    5    6 ar   
    11    5    7 1    
    12    6   40 1    
    13    7   30 ar   
    14    7    8 ar   
    15    8    9 ar   
    16    8   41 1    
    17    9   17 ar   
    18    9   10 ar   
    19   10   11 ar   
    20   10   29 ar   
    21   11   16 ar   
    22   11   12 ar   
    23   12   13 ar   
    24   12   42 1    
    25   13   14 ar   
    26   13   28 1    
    27   14   15 ar   
    28   14   43 1    
    29   15   16 ar   
    30   15   44 1    
    31   16   17 ar   
    32   17   18 1    
    33   18   19 1    
    34   18   45 1    
    35   18   46 1    
    36   19   20 1    
    37   19   47 1    
    38   19   48 1    
    39   20   21 2    
    40   20   22 2    
    41   20   23 1    
    42   23   24 ar   
    43   23   27 ar   
    44   24   25 ar   
    45   25   49 1    
    46   25   26 ar   
    47   26   27 ar   
    48   28   50 1    
    49   29   34 1    
    50   29   30 ar   
    51   30   31 1    
    52   31   32 2    
    53   31   33 am   BACKBONE|DICT|INTERRES
    54   33   34 am   BACKBONE|DICT|INTERRES
    55   33   51 1    
    56   34   35 2    
@<TRIPOS>SUBSTRUCTURE
     1 UNK         1 GROUP             0       ****    0 ROOT    
