@<TRIPOS>MOLECULE
CHEMBL486828_87
60   65    1
SMALL
USER_CHARGES


@<TRIPOS>ATOM
      1 C1         -0.2230   52.8370   30.4786 C.ar      1 UNK         0.0000 
      2 C2          0.0056   51.8782   29.5058 C.ar      1 UNK         0.0000 
      3 C3          0.8798   52.1426   28.4598 C.ar      1 UNK         0.0000 
      4 C4          1.5294   53.3920   28.3675 C.ar      1 UNK         0.0000 
      5 C5          1.2003   54.3906   29.3091 C.ar      1 UNK         0.0000 
      6 C6          0.3522   54.0971   30.3750 C.ar      1 UNK         0.0000 
      7 Cl7         1.7828   56.0190   29.1730 Cl        1 UNK         0.0000 
      8 C8          2.5225   53.6487   27.2864 C.ar      1 UNK         0.0000 
      9 C9          2.0921   53.5576   25.9624 C.ar      1 UNK         0.0000 
     10 C10         3.0131   53.8020   24.9374 C.ar      1 UNK         0.0000 
     11 C11         4.3664   54.1366   25.1935 C.ar      1 UNK         0.0000 
     12 C12         4.9974   54.3362   23.9403 C.ar      1 UNK         0.0000 
     13 C13         6.3038   54.6987   23.5480 C.ar      1 UNK         0.0000 
     14 C14         6.5780   54.8970   22.1950 C.ar      1 UNK         0.0000 
     15 C15         5.5939   54.6968   21.2342 C.ar      1 UNK         0.0000 
     16 C16         4.3033   54.2976   21.5728 C.ar      1 UNK         0.0000 
     17 C17         4.0106   54.1263   22.9332 C.ar      1 UNK         0.0000 
     18 N18         2.8237   53.7923   23.5725 N.pl3     1 UNK         0.0000 
     19 C19         1.5433   53.4750   22.9507 C.3       1 UNK         0.0000 
     20 C20         1.3870   51.9638   22.6612 C.3       1 UNK         0.0000 
     21 C21         2.2974   51.3778   21.5593 C.3       1 UNK         0.0000 
     22 N22         2.0861   52.0675   20.1863 N.4       1 UNK         0.0000 
     23 C23         0.6407   51.9364   19.6525 C.3       1 UNK         0.0000 
     24 C24         0.5533   52.6139   18.2716 C.3       1 UNK         0.0000 
     25 O25         1.5121   52.0677   17.3726 O.3       1 UNK         0.0000 
     26 C26         2.8725   52.1741   17.7874 C.3       1 UNK         0.0000 
     27 C27         3.1031   51.5105   19.1589 C.3       1 UNK         0.0000 
     28 O28         7.8270   55.2979   21.7931 O.3       1 UNK         0.0000 
     29 C29         4.7660   54.2128   26.5408 C.ar      1 UNK         0.0000 
     30 C30         3.8631   53.9670   27.5474 C.ar      1 UNK         0.0000 
     31 C31         4.5978   54.1149   28.8372 C.2       1 UNK         0.0000 
     32 O32         4.1734   53.9773   29.9827 O.2       1 UNK         0.0000 
     33 N33         5.8503   54.4687   28.4983 N.am      1 UNK         0.0000 
     34 C34         6.0580   54.5622   27.1752 C.2       1 UNK         0.0000 
     35 O35         7.1044   54.8959   26.6376 O.2       1 UNK         0.0000 
     36 Cl36        1.1045   50.8832   27.2962 Cl        1 UNK         0.0000 
     37 H37        -0.8954   52.6020   31.2817 H         1 UNK         0.0000 
     38 H38        -0.4921   50.9197   29.5720 H         1 UNK         0.0000 
     39 H39         0.1220   54.8533   31.1116 H         1 UNK         0.0000 
     40 H40         1.0649   53.3032   25.7483 H         1 UNK         0.0000 
     41 H41         7.0842   54.8631   24.2701 H         1 UNK         0.0000 
     42 H42         5.8366   54.8611   20.1939 H         1 UNK         0.0000 
     43 H43         3.5566   54.1842   20.8042 H         1 UNK         0.0000 
     44 H44         1.4446   54.0984   22.0793 H         1 UNK         0.0000 
     45 H45         0.7386   53.8157   23.6032 H         1 UNK         0.0000 
     46 H46         0.3442   51.7454   22.4347 H         1 UNK         0.0000 
     47 H47         1.5759   51.4119   23.5838 H         1 UNK         0.0000 
     48 H48         2.1107   50.3130   21.4018 H         1 UNK         0.0000 
     49 H49         3.3526   51.5135   21.8045 H         1 UNK         0.0000 
     50 H50        -0.0153   52.4528   20.3517 H         1 UNK         0.0000 
     51 H51         0.3923   50.8737   19.6140 H         1 UNK         0.0000 
     52 H52        -0.4420   52.4859   17.8448 H         1 UNK         0.0000 
     53 H53         0.7208   53.6885   18.3754 H         1 UNK         0.0000 
     54 H54         3.5063   51.7002   17.0355 H         1 UNK         0.0000 
     55 H55         3.1610   53.2260   17.8367 H         1 UNK         0.0000 
     56 H56         2.9873   50.4256   19.1033 H         1 UNK         0.0000 
     57 H57         4.1017   51.7511   19.5279 H         1 UNK         0.0000 
     58 H58         8.4740   55.2969   22.5174 H         1 UNK         0.0000 
     59 H59         6.5637   54.7027   29.1756 H         1 UNK         0.0000 
     60 H60         2.2716   53.0586   20.2823 H         1 UNK         0.0000 
@<TRIPOS>BOND
     1    1    6 ar   
     2    1    2 ar   
     3    1   37 1    
     4    2    3 ar   
     5    2   38 1    
     6    3    4 ar   
     7    3   36 1    
     8    4    5 ar   
     9    4    8 1    
    10    5    6 ar   
    11    5    7 1    
    12    6   39 1    
    13    8   30 ar   
    14    8    9 ar   
    15    9   10 ar   
    16    9   40 1    
    17   10   18 ar   
    18   10   11 ar   
    19   11   12 ar   
    20   11   29 ar   
    21   12   17 ar   
    22   12   13 ar   
    23   13   14 ar   
    24   13   41 1    
    25   14   15 ar   
    26   14   28 1    
    27   15   16 ar   
    28   15   42 1    
    29   16   17 ar   
    30   16   43 1    
    31   17   18 ar   
    32   18   19 1    
    33   19   20 1    
    34   19   44 1    
    35   19   45 1    
    36   20   21 1    
    37   20   46 1    
    38   20   47 1    
    39   21   22 1    
    40   21   48 1    
    41   21   49 1    
    42   22   27 1    
    43   22   23 1    
    44   22   60 1    
    45   23   24 1    
    46   23   50 1    
    47   23   51 1    
    48   24   25 1    
    49   24   52 1    
    50   24   53 1    
    51   25   26 1    
    52   26   27 1    
    53   26   54 1    
    54   26   55 1    
    55   27   56 1    
    56   27   57 1    
    57   28   58 1    
    58   29   34 1    
    59   29   30 ar   
    60   30   31 1    
    61   31   32 2    
    62   31   33 am   BACKBONE|DICT|INTERRES
    63   33   34 am   BACKBONE|DICT|INTERRES
    64   33   59 1    
    65   34   35 2    
@<TRIPOS>SUBSTRUCTURE
     1 UNK         1 GROUP             0       ****    0 ROOT    
