CHEMBL483800_84
                    3D
 Schrodinger Suite 2024-2.
 48 52  0  0  1  0            999 V2000
   -1.6958   47.8337   23.7368 C   0  0  0  0  0  0
   -1.3167   48.3054   22.4810 C   0  0  0  0  0  0
   -0.2575   49.2049   22.3715 C   0  0  0  0  0  0
    0.4195   49.6323   23.5200 C   0  0  0  0  0  0
    0.0255   49.1614   24.7732 C   0  0  0  0  0  0
   -1.0278   48.2569   24.8836 C   0  0  0  0  0  0
    1.4989   50.5282   23.4817 N   0  0  0  0  0  0
    2.1362   50.9704   22.2462 C   0  0  0  0  0  0
    1.5675   52.2854   21.6868 C   0  0  0  0  0  0
    1.5659   53.5045   22.6432 C   0  0  0  0  0  0
    2.8369   53.7381   23.3420 N   0  0  0  0  0  0
    4.0333   54.0973   22.7364 C   0  0  0  0  0  0
    4.3478   54.2899   21.3825 C   0  0  0  0  0  0
    5.6408   54.7039   21.0743 C   0  0  0  0  0  0
    6.6059   54.9004   22.0563 C   0  0  0  0  0  0
    6.3051   54.6927   23.4012 C   0  0  0  0  0  0
    4.9979   54.3077   23.7618 C   0  0  0  0  0  0
    4.3511   54.0954   25.0022 C   0  0  0  0  0  0
    3.0061   53.6994   24.7208 C   0  0  0  0  0  0
    2.0917   53.3933   25.7489 C   0  0  0  0  0  0
    2.5304   53.5147   27.0665 C   0  0  0  0  0  0
    3.8331   53.9092   27.3437 C   0  0  0  0  0  0
    4.7428   54.1844   26.3554 C   0  0  0  0  0  0
    6.0218   54.5536   27.0236 C   0  0  0  0  0  0
    7.0951   54.8750   26.5229 O   0  0  0  0  0  0
    5.7602   54.4948   28.3442 N   0  0  0  0  0  0
    4.4999   54.1334   28.6518 C   0  0  0  0  0  0
    4.0164   54.0389   29.7779 O   0  0  0  0  0  0
    7.8650   55.2980   21.6817 O   0  0  0  0  0  0
   -2.5154   47.1395   23.8250 H   0  0  0  0  0  0
   -1.8403   47.9758   21.5973 H   0  0  0  0  0  0
    0.0215   49.5623   21.3921 H   0  0  0  0  0  0
    0.5432   49.4768   25.6673 H   0  0  0  0  0  0
   -1.3145   47.8938   25.8607 H   0  0  0  0  0  0
    1.7677   50.9844   24.3414 H   0  0  0  0  0  0
    3.1898   51.1112   22.4795 H   0  0  0  0  0  0
    2.1184   50.1870   21.4872 H   0  0  0  0  0  0
    2.1033   52.5330   20.7706 H   0  0  0  0  0  0
    0.5401   52.1096   21.3650 H   0  0  0  0  0  0
    1.3414   54.4128   22.0882 H   0  0  0  0  0  0
    0.7685   53.3912   23.3755 H   0  0  0  0  0  0
    3.6168   54.1622   20.5981 H   0  0  0  0  0  0
    5.9022   54.8714   20.0400 H   0  0  0  0  0  0
    7.0678   54.8594   24.1403 H   0  0  0  0  0  0
    1.0725   53.0980   25.5470 H   0  0  0  0  0  0
    1.8395   53.3058   27.8725 H   0  0  0  0  0  0
    6.4483   54.7524   29.0394 H   0  0  0  0  0  0
    8.5026   55.2964   22.4097 H   0  0  0  0  0  0
  1  6  2  0  0  0
  1  2  1  0  0  0
  1 30  1  0  0  0
  2  3  2  0  0  0
  2 31  1  0  0  0
  3  4  1  0  0  0
  3 32  1  0  0  0
  4  5  2  0  0  0
  4  7  1  0  0  0
  5  6  1  0  0  0
  5 33  1  0  0  0
  6 34  1  0  0  0
  7  8  1  0  0  0
  7 35  1  0  0  0
  8  9  1  0  0  0
  8 36  1  0  0  0
  8 37  1  0  0  0
  9 10  1  0  0  0
  9 38  1  0  0  0
  9 39  1  0  0  0
 10 11  1  0  0  0
 10 40  1  0  0  0
 10 41  1  0  0  0
 11 19  1  0  0  0
 11 12  1  0  0  0
 12 17  2  0  0  0
 12 13  1  0  0  0
 13 14  2  0  0  0
 13 42  1  0  0  0
 14 15  1  0  0  0
 14 43  1  0  0  0
 15 16  2  0  0  0
 15 29  1  0  0  0
 16 17  1  0  0  0
 16 44  1  0  0  0
 17 18  1  0  0  0
 18 23  2  0  0  0
 18 19  1  0  0  0
 19 20  2  0  0  0
 20 21  1  0  0  0
 20 45  1  0  0  0
 21 22  2  0  0  0
 21 46  1  0  0  0
 22 27  1  0  0  0
 22 23  1  0  0  0
 23 24  1  0  0  0
 24 25  2  0  0  0
 24 26  1  0  0  0
 26 27  1  0  0  0
 26 47  1  0  0  0
 27 28  2  0  0  0
 29 48  1  0  0  0
M  END
> <i_i_glide_confnum>
67

> <i_i_glide_lignum>
85

> <i_i_glide_posenum>
99

> <i_i_glide_rotatable_bonds>
6

> <i_m_Source_File_Index>
21

> <b_m_subgroup_collapsed>
0

> <r_i_docking_score>
-10.0757

> <r_i_glide_ecoul>
-12.2624

> <r_i_glide_eff_state_penalty>
0

> <r_i_glide_einternal>
3.3124

> <r_i_glide_emodel>
-88.1534

> <r_i_glide_energy>
-55.3191

> <r_i_glide_erotb>
0.366675

> <r_i_glide_esite>
0

> <r_i_glide_evdw>
-43.0566

> <r_i_glide_gscore>
-10.0757

> <r_i_glide_hbond>
-0.901051

> <r_i_glide_ligand_efficiency>
-0.347438

> <r_i_glide_ligand_efficiency_ln>
-2.30708

> <r_i_glide_ligand_efficiency_sa>
-1.06744

> <r_i_glide_lipo>
-2.76044

> <r_i_glide_metal>
0

> <r_i_glide_rewards>
-2.78869

> <s_i_glide_gridfile>
wee1_glide-grid

> <s_m_Source_File>
wee1_actives_glide_SP.sdf

> <s_m_Source_Path>
/Users/zhangxujun/Desktop

> <s_m_entry_id>
159

> <s_m_entry_name>
wee1_actives_glide_SP.21

> <s_m_subgroup_title>
wee1_actives_glide_SP

> <s_m_subgroupid>
wee1_actives_glide_SP


$$$$
