@<TRIPOS>MOLECULE
CHEMBL508412_49
64   69    1
SMALL
USER_CHARGES


@<TRIPOS>ATOM
      1 C1          1.0385   52.9755   15.8187 C.3       1 UNK         0.0000 
      2 N2          1.3428   52.2678   17.0600 N.3       1 UNK         0.0000 
      3 C3          0.3873   52.6299   18.1104 C.3       1 UNK         0.0000 
      4 C4          0.6598   51.8206   19.3958 C.3       1 UNK         0.0000 
      5 N5          2.1045   52.0964   19.8732 N.4       1 UNK         0.0000 
      6 C6          3.1044   51.7512   18.7424 C.3       1 UNK         0.0000 
      7 C7          2.7338   52.5214   17.4576 C.3       1 UNK         0.0000 
      8 C8          2.4769   51.3315   21.1706 C.3       1 UNK         0.0000 
      9 C9          1.6130   51.7838   22.3696 C.3       1 UNK         0.0000 
     10 C10         1.6522   53.2992   22.6771 C.3       1 UNK         0.0000 
     11 N11         2.8857   53.6971   23.3548 N.pl3     1 UNK         0.0000 
     12 C12         4.0686   54.0948   22.7433 C.ar      1 UNK         0.0000 
     13 C13         4.3813   54.2889   21.3900 C.ar      1 UNK         0.0000 
     14 C14         5.6745   54.7053   21.0784 C.ar      1 UNK         0.0000 
     15 C15         6.6420   54.8988   22.0581 C.ar      1 UNK         0.0000 
     16 C16         6.3390   54.6943   23.4027 C.ar      1 UNK         0.0000 
     17 C17         5.0322   54.3108   23.7684 C.ar      1 UNK         0.0000 
     18 C18         4.3845   54.0971   25.0087 C.ar      1 UNK         0.0000 
     19 C19         3.0428   53.7187   24.7320 C.ar      1 UNK         0.0000 
     20 C20         2.1190   53.4511   25.7569 C.ar      1 UNK         0.0000 
     21 C21         2.5302   53.6060   27.0871 C.ar      1 UNK         0.0000 
     22 C22         3.8608   53.9506   27.3582 C.ar      1 UNK         0.0000 
     23 C23         4.7703   54.1927   26.3594 C.ar      1 UNK         0.0000 
     24 C24         6.0526   54.5631   27.0066 C.2       1 UNK         0.0000 
     25 O25         7.1044   54.8967   26.4813 O.2       1 UNK         0.0000 
     26 N26         5.8306   54.4902   28.3283 N.am      1 UNK         0.0000 
     27 C27         4.5794   54.1260   28.6561 C.2       1 UNK         0.0000 
     28 O28         4.1511   53.9912   29.8004 O.2       1 UNK         0.0000 
     29 C29         1.5416   53.3790   28.1754 C.ar      1 UNK         0.0000 
     30 C30         0.9672   52.1093   28.3108 C.ar      1 UNK         0.0000 
     31 C31         0.0781   51.8381   29.3459 C.ar      1 UNK         0.0000 
     32 C32        -0.2187   52.8174   30.2861 C.ar      1 UNK         0.0000 
     33 C33         0.3098   54.0970   30.1444 C.ar      1 UNK         0.0000 
     34 C34         1.1634   54.3923   29.0801 C.ar      1 UNK         0.0000 
     35 Cl35        1.7057   56.0295   28.9023 Cl        1 UNK         0.0000 
     36 O36         7.9022   55.2970   21.6817 O.3       1 UNK         0.0000 
     37 H37         0.0239   52.7530   15.4840 H         1 UNK         0.0000 
     38 H38         1.7151   52.6624   15.0216 H         1 UNK         0.0000 
     39 H39         1.1291   54.0570   15.9345 H         1 UNK         0.0000 
     40 H40         0.4967   53.6963   18.3218 H         1 UNK         0.0000 
     41 H41        -0.6342   52.4403   17.7766 H         1 UNK         0.0000 
     42 H42         0.5509   50.7435   19.2537 H         1 UNK         0.0000 
     43 H43        -0.0079   52.1710   20.1818 H         1 UNK         0.0000 
     44 H44         3.1043   50.6685   18.5932 H         1 UNK         0.0000 
     45 H45         4.0855   52.0846   19.0877 H         1 UNK         0.0000 
     46 H46         3.4272   52.2354   16.6639 H         1 UNK         0.0000 
     47 H47         2.8335   53.5917   17.6499 H         1 UNK         0.0000 
     48 H48         2.3604   50.2678   20.9515 H         1 UNK         0.0000 
     49 H49         3.5338   51.5380   21.3480 H         1 UNK         0.0000 
     50 H50         0.5805   51.4739   22.2129 H         1 UNK         0.0000 
     51 H51         1.9245   51.2276   23.2559 H         1 UNK         0.0000 
     52 H52         1.5501   53.8876   21.7726 H         1 UNK         0.0000 
     53 H53         0.8031   53.5862   23.2982 H         1 UNK         0.0000 
     54 H54         3.6519   54.1605   20.6065 H         1 UNK         0.0000 
     55 H55         5.9355   54.8765   20.0438 H         1 UNK         0.0000 
     56 H56         7.1077   54.8586   24.1367 H         1 UNK         0.0000 
     57 H57         1.1001   53.1690   25.5373 H         1 UNK         0.0000 
     58 H58         6.5352   54.7344   29.0113 H         1 UNK         0.0000 
     59 H59         1.2162   51.3194   27.6161 H         1 UNK         0.0000 
     60 H60        -0.3743   50.8638   29.4317 H         1 UNK         0.0000 
     61 H61        -0.8881   52.5889   31.1057 H         1 UNK         0.0000 
     62 H62         0.0439   54.8663   30.8541 H         1 UNK         0.0000 
     63 H63         8.5403   55.2984   22.4104 H         1 UNK         0.0000 
     64 H64         2.1767   53.0916   20.0451 H         1 UNK         0.0000 
@<TRIPOS>BOND
     1    1    2 1    
     2    1   37 1    
     3    1   38 1    
     4    1   39 1    
     5    2    7 1    
     6    2    3 1    
     7    3    4 1    
     8    3   40 1    
     9    3   41 1    
    10    4    5 1    
    11    4   42 1    
    12    4   43 1    
    13    5    6 1    
    14    5    8 1    
    15    5   64 1    
    16    6    7 1    
    17    6   44 1    
    18    6   45 1    
    19    7   46 1    
    20    7   47 1    
    21    8    9 1    
    22    8   48 1    
    23    8   49 1    
    24    9   10 1    
    25    9   50 1    
    26    9   51 1    
    27   10   11 1    
    28   10   52 1    
    29   10   53 1    
    30   11   19 ar   
    31   11   12 ar   
    32   12   17 ar   
    33   12   13 ar   
    34   13   14 ar   
    35   13   54 1    
    36   14   15 ar   
    37   14   55 1    
    38   15   16 ar   
    39   15   36 1    
    40   16   17 ar   
    41   16   56 1    
    42   17   18 ar   
    43   18   23 ar   
    44   18   19 ar   
    45   19   20 ar   
    46   20   21 ar   
    47   20   57 1    
    48   21   22 ar   
    49   21   29 1    
    50   22   27 1    
    51   22   23 ar   
    52   23   24 1    
    53   24   25 2    
    54   24   26 am   BACKBONE|DICT|INTERRES
    55   26   27 am   BACKBONE|DICT|INTERRES
    56   26   58 1    
    57   27   28 2    
    58   29   34 ar   
    59   29   30 ar   
    60   30   31 ar   
    61   30   59 1    
    62   31   32 ar   
    63   31   60 1    
    64   32   33 ar   
    65   32   61 1    
    66   33   34 ar   
    67   33   62 1    
    68   34   35 1    
    69   36   63 1    
@<TRIPOS>SUBSTRUCTURE
     1 UNK         1 GROUP             0       ****    0 ROOT    
