@<TRIPOS>MOLECULE
CHEMBL272946_21
62   67    1
SMALL
USER_CHARGES


@<TRIPOS>ATOM
      1 C1          0.1433   51.8767   29.4470 C.ar      1 UNK         0.0000 
      2 C2         -0.0955   52.8329   30.4253 C.ar      1 UNK         0.0000 
      3 C3          0.4190   54.1164   30.2790 C.ar      1 UNK         0.0000 
      4 C4          1.2082   54.4390   29.1749 C.ar      1 UNK         0.0000 
      5 C5          1.5474   53.4426   28.2358 C.ar      1 UNK         0.0000 
      6 C6          0.9777   52.1700   28.3729 C.ar      1 UNK         0.0000 
      7 C7          2.5130   53.6796   27.1289 C.ar      1 UNK         0.0000 
      8 C8          2.0806   53.5481   25.8020 C.ar      1 UNK         0.0000 
      9 C9          3.0052   53.7877   24.7751 C.ar      1 UNK         0.0000 
     10 C10         4.3600   54.1350   25.0342 C.ar      1 UNK         0.0000 
     11 C11         5.0004   54.3254   23.7835 C.ar      1 UNK         0.0000 
     12 C12         6.2998   54.6947   23.3886 C.ar      1 UNK         0.0000 
     13 C13         6.5734   54.8969   22.0354 C.ar      1 UNK         0.0000 
     14 C14         5.5907   54.6872   21.0549 C.ar      1 UNK         0.0000 
     15 C15         4.3038   54.2641   21.4211 C.ar      1 UNK         0.0000 
     16 C16         4.0263   54.1016   22.7791 C.ar      1 UNK         0.0000 
     17 N17         2.8472   53.7597   23.4064 N.pl3     1 UNK         0.0000 
     18 H18         1.9823   53.5507   22.9274 H         1 UNK         0.0000 
     19 C19         5.9475   54.9446   19.5809 C.3       1 UNK         0.0000 
     20 C20         4.8334   54.7679   18.5229 C.3       1 UNK         0.0000 
     21 C21         4.4692   53.2996   18.2225 C.3       1 UNK         0.0000 
     22 C22         3.2022   53.1774   17.3570 C.3       1 UNK         0.0000 
     23 N23         2.7834   51.6968   17.2349 N.4       1 UNK         0.0000 
     24 C24         1.6956   51.4398   16.1815 C.3       1 UNK         0.0000 
     25 C25         1.2078   50.0435   16.5486 C.3       1 UNK         0.0000 
     26 C26         1.2161   50.0152   18.0744 C.3       1 UNK         0.0000 
     27 C27         2.2417   51.0603   18.5340 C.3       1 UNK         0.0000 
     28 O28         7.8393   55.3044   21.6817 O.3       1 UNK         0.0000 
     29 C29         4.7584   54.2295   26.3802 C.ar      1 UNK         0.0000 
     30 C30         3.8541   53.9998   27.3867 C.ar      1 UNK         0.0000 
     31 C31         4.5926   54.1522   28.6761 C.2       1 UNK         0.0000 
     32 O32         4.1756   54.0196   29.8260 O.2       1 UNK         0.0000 
     33 N33         5.8458   54.4966   28.3361 N.am      1 UNK         0.0000 
     34 C34         6.0540   54.5754   27.0130 C.2       1 UNK         0.0000 
     35 O35         7.1044   54.8958   26.4766 O.2       1 UNK         0.0000 
     36 Cl36        1.7381   56.0808   29.0036 Cl        1 UNK         0.0000 
     37 H37        -0.3002   50.8979   29.5400 H         1 UNK         0.0000 
     38 H38        -0.7093   52.5847   31.2813 H         1 UNK         0.0000 
     39 H39         0.1939   54.8711   31.0176 H         1 UNK         0.0000 
     40 H40         1.1948   51.3921   27.6548 H         1 UNK         0.0000 
     41 H41         1.0552   53.2874   25.5830 H         1 UNK         0.0000 
     42 H42         7.0791   54.8672   24.1113 H         1 UNK         0.0000 
     43 H43         3.5230   54.1143   20.6941 H         1 UNK         0.0000 
     44 H44         6.8018   54.3211   19.3110 H         1 UNK         0.0000 
     45 H45         6.3063   55.9740   19.5218 H         1 UNK         0.0000 
     46 H46         5.1650   55.2344   17.5944 H         1 UNK         0.0000 
     47 H47         3.9482   55.3326   18.8229 H         1 UNK         0.0000 
     48 H48         4.3456   52.7358   19.1465 H         1 UNK         0.0000 
     49 H49         5.3032   52.8231   17.7064 H         1 UNK         0.0000 
     50 H50         3.3816   53.5262   16.3377 H         1 UNK         0.0000 
     51 H51         2.3428   53.7086   17.7750 H         1 UNK         0.0000 
     52 H52         2.1433   51.5330   15.1903 H         1 UNK         0.0000 
     53 H53         0.9362   52.2156   16.3092 H         1 UNK         0.0000 
     54 H54         1.9019   49.2990   16.1484 H         1 UNK         0.0000 
     55 H55         0.2214   49.8308   16.1350 H         1 UNK         0.0000 
     56 H56         0.2319   50.2667   18.4705 H         1 UNK         0.0000 
     57 H57         1.4694   49.0223   18.4481 H         1 UNK         0.0000 
     58 H58         1.7722   51.8471   19.1262 H         1 UNK         0.0000 
     59 H59         3.1031   50.6352   19.0534 H         1 UNK         0.0000 
     60 H60         8.4651   55.2983   22.4206 H         1 UNK         0.0000 
     61 H61         6.5612   54.7261   29.0133 H         1 UNK         0.0000 
     62 H62         3.5970   51.1431   16.9661 H         1 UNK         0.0000 
@<TRIPOS>BOND
     1    1    6 ar   
     2    1    2 ar   
     3    1   37 1    
     4    2    3 ar   
     5    2   38 1    
     6    3    4 ar   
     7    3   39 1    
     8    4    5 ar   
     9    4   36 1    
    10    5    6 ar   
    11    5    7 1    
    12    6   40 1    
    13    7   30 ar   
    14    7    8 ar   
    15    8    9 ar   
    16    8   41 1    
    17    9   17 ar   
    18    9   10 ar   
    19   10   11 ar   
    20   10   29 ar   
    21   11   16 ar   
    22   11   12 ar   
    23   12   13 ar   
    24   12   42 1    
    25   13   14 ar   
    26   13   28 1    
    27   14   15 ar   
    28   14   19 1    
    29   15   16 ar   
    30   15   43 1    
    31   16   17 ar   
    32   17   18 1    
    33   19   20 1    
    34   19   44 1    
    35   19   45 1    
    36   20   21 1    
    37   20   46 1    
    38   20   47 1    
    39   21   22 1    
    40   21   48 1    
    41   21   49 1    
    42   22   23 1    
    43   22   50 1    
    44   22   51 1    
    45   23   27 1    
    46   23   24 1    
    47   23   62 1    
    48   24   25 1    
    49   24   52 1    
    50   24   53 1    
    51   25   26 1    
    52   25   54 1    
    53   25   55 1    
    54   26   27 1    
    55   26   56 1    
    56   26   57 1    
    57   27   58 1    
    58   27   59 1    
    59   28   60 1    
    60   29   34 1    
    61   29   30 ar   
    62   30   31 1    
    63   31   32 2    
    64   31   33 am   BACKBONE|DICT|INTERRES
    65   33   34 am   BACKBONE|DICT|INTERRES
    66   33   61 1    
    67   34   35 2    
@<TRIPOS>SUBSTRUCTURE
     1 UNK         1 GROUP             0       ****    0 ROOT    
