@<TRIPOS>MOLECULE
CHEMBL607707_71
56   58    1
SMALL
USER_CHARGES


@<TRIPOS>ATOM
      1 C1          4.5226   52.0587   29.6309 C.3       1 UNK         0.0000 
      2 C2          3.8914   53.4150   29.9780 C.3       1 UNK         0.0000 
      3 O3          2.8438   53.8491   29.1101 O.3       1 UNK         0.0000 
      4 C4          3.0115   53.7522   27.7448 C.ar      1 UNK         0.0000 
      5 C5          4.2155   54.1394   27.1502 C.ar      1 UNK         0.0000 
      6 C6          4.3829   54.1019   25.7492 C.ar      1 UNK         0.0000 
      7 C7          3.2979   53.6988   24.9093 C.ar      1 UNK         0.0000 
      8 C8          2.0713   53.3556   25.5434 C.ar      1 UNK         0.0000 
      9 C9          1.9438   53.3305   26.9322 C.ar      1 UNK         0.0000 
     10 N10         0.6911   52.8969   27.4082 N.am      1 UNK         0.0000 
     11 C11         0.4164   52.1205   28.4779 C.2       1 UNK         0.0000 
     12 O12         1.2435   51.6960   29.2797 O.2       1 UNK         0.0000 
     13 C13        -0.9825   51.8243   28.6362 C.2       1 UNK         0.0000 
     14 C14        -1.7360   51.3018   27.6424 C.2       1 UNK         0.0000 
     15 C15        -3.2171   50.9417   27.6856 C.3       1 UNK         0.0000 
     16 N16        -4.0016   51.2954   28.8735 N.3       1 UNK         0.0000 
     17 C17        -5.4270   51.2109   28.5668 C.3       1 UNK         0.0000 
     18 C18        -3.6957   50.3768   29.9740 C.3       1 UNK         0.0000 
     19 C19         3.5105   53.6978   23.4831 C.ar      1 UNK         0.0000 
     20 C20         4.7736   54.1131   23.0066 C.ar      1 UNK         0.0000 
     21 C21         5.7637   54.4785   23.9164 C.ar      1 UNK         0.0000 
     22 N22         5.5889   54.4829   25.2542 N.ar      1 UNK         0.0000 
     23 C23         5.0972   54.2093   21.5839 C.1       1 UNK         0.0000 
     24 N24         5.3472   54.2908   20.4586 N.1       1 UNK         0.0000 
     25 N25         2.5153   53.3540   22.5395 N.pl3     1 UNK         0.0000 
     26 C26         1.5680   52.3238   22.4531 C.ar      1 UNK         0.0000 
     27 C27         1.5635   51.1960   23.2824 C.ar      1 UNK         0.0000 
     28 C28         0.5858   50.2101   23.1325 C.ar      1 UNK         0.0000 
     29 C29        -0.3963   50.3445   22.1507 C.ar      1 UNK         0.0000 
     30 C30        -0.3877   51.4600   21.3074 C.ar      1 UNK         0.0000 
     31 C31         0.6062   52.4289   21.4502 C.ar      1 UNK         0.0000 
     32 Cl32       -1.6033   51.6680   20.0968 Cl        1 UNK         0.0000 
     33 F33        -1.3501   49.3922   22.0255 F         1 UNK         0.0000 
     34 H34         5.1040   51.6903   30.4734 H         1 UNK         0.0000 
     35 H35         3.7646   51.3088   29.4085 H         1 UNK         0.0000 
     36 H36         5.1846   52.1299   28.7686 H         1 UNK         0.0000 
     37 H37         4.6507   54.1936   30.0667 H         1 UNK         0.0000 
     38 H38         3.4393   53.3023   30.9598 H         1 UNK         0.0000 
     39 H39         5.0375   54.4830   27.7604 H         1 UNK         0.0000 
     40 H40         1.2165   53.1024   24.9379 H         1 UNK         0.0000 
     41 H41        -0.0917   53.1016   26.8094 H         1 UNK         0.0000 
     42 H42        -1.3828   52.0433   29.6130 H         1 UNK         0.0000 
     43 H43        -1.2761   51.0838   26.6880 H         1 UNK         0.0000 
     44 H44        -3.3385   49.8922   27.4075 H         1 UNK         0.0000 
     45 H45        -3.6191   51.4855   26.8288 H         1 UNK         0.0000 
     46 H46        -5.6930   51.9047   27.7680 H         1 UNK         0.0000 
     47 H47        -6.0277   51.4749   29.4374 H         1 UNK         0.0000 
     48 H48        -5.7142   50.2056   28.2513 H         1 UNK         0.0000 
     49 H49        -2.6717   50.4975   30.3262 H         1 UNK         0.0000 
     50 H50        -4.3418   50.5564   30.8346 H         1 UNK         0.0000 
     51 H51        -3.8056   49.3314   29.6773 H         1 UNK         0.0000 
     52 H52         6.7435   54.7967   23.5825 H         1 UNK         0.0000 
     53 H53         2.6276   53.8369   21.6551 H         1 UNK         0.0000 
     54 H54         2.3064   51.0762   24.0522 H         1 UNK         0.0000 
     55 H55         0.5889   49.3462   23.7815 H         1 UNK         0.0000 
     56 H56         0.6238   53.2865   20.7906 H         1 UNK         0.0000 
@<TRIPOS>BOND
     1    1    2 1    
     2    1   34 1    
     3    1   35 1    
     4    1   36 1    
     5    2    3 1    
     6    2   37 1    
     7    2   38 1    
     8    3    4 1    
     9    4    9 ar   
    10    4    5 ar   
    11    5    6 ar   
    12    5   39 1    
    13    6   22 ar   
    14    6    7 ar   
    15    7    8 ar   
    16    7   19 ar   
    17    8    9 ar   
    18    8   40 1    
    19    9   10 1    
    20   10   11 am   BACKBONE|DICT|INTERRES
    21   10   41 1    
    22   11   12 2    
    23   11   13 1    
    24   13   14 2    
    25   13   42 1    
    26   14   15 1    
    27   14   43 1    
    28   15   16 1    
    29   15   44 1    
    30   15   45 1    
    31   16   17 1    
    32   16   18 1    
    33   17   46 1    
    34   17   47 1    
    35   17   48 1    
    36   18   49 1    
    37   18   50 1    
    38   18   51 1    
    39   19   20 ar   
    40   19   25 1    
    41   20   21 ar   
    42   20   23 1    
    43   21   22 ar   
    44   21   52 1    
    45   23   24 3    
    46   25   26 1    
    47   25   53 1    
    48   26   31 ar   
    49   26   27 ar   
    50   27   28 ar   
    51   27   54 1    
    52   28   29 ar   
    53   28   55 1    
    54   29   30 ar   
    55   29   33 1    
    56   30   31 ar   
    57   30   32 1    
    58   31   56 1    
@<TRIPOS>SUBSTRUCTURE
     1 UNK         1 GROUP             0       ****    0 ROOT    
