CHEMBL271715_34
                    3D
 Schrodinger Suite 2024-2.
 68 73  0  0  1  0            999 V2000
    0.1075   51.8702   29.4961 C   0  0  0  0  0  0
   -0.1622   52.8114   30.4812 C   0  0  0  0  0  0
    0.3965   54.0839   30.4076 C   0  0  0  0  0  0
    1.2531   54.4134   29.3568 C   0  0  0  0  0  0
    1.5908   53.4413   28.3913 C   0  0  0  0  0  0
    0.9931   52.1768   28.4701 C   0  0  0  0  0  0
    2.5455   53.6980   27.2811 C   0  0  0  0  0  0
    2.0878   53.5680   25.9660 C   0  0  0  0  0  0
    2.9821   53.8186   24.9129 C   0  0  0  0  0  0
    4.3335   54.1868   25.1378 C   0  0  0  0  0  0
    4.9413   54.3879   23.8707 C   0  0  0  0  0  0
    6.2261   54.7909   23.4484 C   0  0  0  0  0  0
    6.5004   54.8967   22.0839 C   0  0  0  0  0  0
    5.5346   54.5607   21.1286 C   0  0  0  0  0  0
    4.2475   54.1672   21.5126 C   0  0  0  0  0  0
    3.9596   54.0971   22.8841 C   0  0  0  0  0  0
    2.7811   53.7760   23.5464 N   0  0  0  0  0  0
    1.5151   53.4186   22.9154 C   0  0  0  0  0  0
    1.3959   51.9123   22.6051 C   0  0  0  0  0  0
    2.3801   51.4790   21.6883 O   0  0  0  0  0  0
    5.9050   54.5188   19.8005 O   0  0  0  0  0  0
    5.2174   55.3659   18.8847 C   0  0  0  0  0  0
    4.8615   54.5795   17.6172 C   0  0  0  0  0  0
    3.8312   53.4774   17.9204 C   0  0  0  0  0  0
    3.3650   52.7266   16.6492 N   0  3  0  0  0  0
    2.6509   53.6436   15.6253 C   0  0  0  0  0  0
    2.0758   52.7938   14.4743 C   0  0  0  0  0  0
    1.2463   51.7460   14.9673 O   0  0  0  0  0  0
    1.9043   50.8272   15.8340 C   0  0  0  0  0  0
    2.4611   51.5484   17.0784 C   0  0  0  0  0  0
    7.7536   55.2986   21.6817 O   0  0  0  0  0  0
    4.7615   54.2657   26.4761 C   0  0  0  0  0  0
    3.8878   54.0215   27.5066 C   0  0  0  0  0  0
    4.6579   54.1617   28.7768 C   0  0  0  0  0  0
    4.2670   54.0273   29.9339 O   0  0  0  0  0  0
    5.9042   54.4966   28.4044 N   0  0  0  0  0  0
    6.0728   54.5877   27.0761 C   0  0  0  0  0  0
    7.1044   54.8973   26.5045 O   0  0  0  0  0  0
    1.8463   56.0407   29.2816 Cl  0  0  0  0  0  0
   -0.3602   50.8968   29.5391 H   0  0  0  0  0  0
   -0.8390   52.5551   31.2816 H   0  0  0  0  0  0
    0.1531   54.8196   31.1603 H   0  0  0  0  0  0
    1.2173   51.4188   27.7325 H   0  0  0  0  0  0
    1.0607   53.2918   25.7810 H   0  0  0  0  0  0
    7.0007   55.0336   24.1551 H   0  0  0  0  0  0
    3.5060   53.9155   20.7714 H   0  0  0  0  0  0
    0.7183   53.6791   23.6112 H   0  0  0  0  0  0
    1.3097   54.0739   22.0810 H   0  0  0  0  0  0
    1.5765   51.3413   23.5170 H   0  0  0  0  0  0
    0.3945   51.6544   22.2583 H   0  0  0  0  0  0
    2.1908   51.8574   20.8270 H   0  0  0  0  0  0
    5.8757   56.1995   18.6371 H   0  0  0  0  0  0
    4.3046   55.8030   19.2815 H   0  0  0  0  0  0
    5.7647   54.1457   17.1858 H   0  0  0  0  0  0
    4.4740   55.2890   16.8879 H   0  0  0  0  0  0
    2.9291   53.8769   18.3896 H   0  0  0  0  0  0
    4.2718   52.7158   18.5694 H   0  0  0  0  0  0
    3.3964   54.3326   15.2285 H   0  0  0  0  0  0
    1.8737   54.1959   16.1573 H   0  0  0  0  0  0
    1.4938   53.4159   13.7935 H   0  0  0  0  0  0
    2.8937   52.3667   13.8902 H   0  0  0  0  0  0
    1.2040   50.0459   16.1294 H   0  0  0  0  0  0
    2.7057   50.3314   15.2852 H   0  0  0  0  0  0
    1.6599   51.9482   17.7018 H   0  0  0  0  0  0
    3.0994   50.8915   17.6722 H   0  0  0  0  0  0
    8.4005   55.3285   22.3994 H   0  0  0  0  0  0
    6.6397   54.7203   29.0613 H   0  0  0  0  0  0
    4.1663   52.3035   16.1959 H   0  0  0  0  0  0
  1  6  2  0  0  0
  1  2  1  0  0  0
  1 40  1  0  0  0
  2  3  2  0  0  0
  2 41  1  0  0  0
  3  4  1  0  0  0
  3 42  1  0  0  0
  4  5  2  0  0  0
  4 39  1  0  0  0
  5  6  1  0  0  0
  5  7  1  0  0  0
  6 43  1  0  0  0
  7 33  2  0  0  0
  7  8  1  0  0  0
  8  9  2  0  0  0
  8 44  1  0  0  0
  9 17  1  0  0  0
  9 10  1  0  0  0
 10 11  1  0  0  0
 10 32  2  0  0  0
 11 16  2  0  0  0
 11 12  1  0  0  0
 12 13  2  0  0  0
 12 45  1  0  0  0
 13 14  1  0  0  0
 13 31  1  0  0  0
 14 15  2  0  0  0
 14 21  1  0  0  0
 15 16  1  0  0  0
 15 46  1  0  0  0
 16 17  1  0  0  0
 17 18  1  0  0  0
 18 19  1  0  0  0
 18 47  1  0  0  0
 18 48  1  0  0  0
 19 20  1  0  0  0
 19 49  1  0  0  0
 19 50  1  0  0  0
 20 51  1  0  0  0
 21 22  1  0  0  0
 22 23  1  0  0  0
 22 52  1  0  0  0
 22 53  1  0  0  0
 23 24  1  0  0  0
 23 54  1  0  0  0
 23 55  1  0  0  0
 24 25  1  0  0  0
 24 56  1  0  0  0
 24 57  1  0  0  0
 25 30  1  0  0  0
 25 26  1  0  0  0
 25 68  1  0  0  0
 26 27  1  0  0  0
 26 58  1  0  0  0
 26 59  1  0  0  0
 27 28  1  0  0  0
 27 60  1  0  0  0
 27 61  1  0  0  0
 28 29  1  0  0  0
 29 30  1  0  0  0
 29 62  1  0  0  0
 29 63  1  0  0  0
 30 64  1  0  0  0
 30 65  1  0  0  0
 31 66  1  0  0  0
 32 37  1  0  0  0
 32 33  1  0  0  0
 33 34  1  0  0  0
 34 35  2  0  0  0
 34 36  1  0  0  0
 36 37  1  0  0  0
 36 67  1  0  0  0
 37 38  2  0  0  0
M  CHG  1  25   1
M  END
> <i_i_glide_confnum>
185

> <i_i_glide_lignum>
35

> <i_i_glide_posenum>
153

> <i_i_glide_rotatable_bonds>
10

> <i_m_Source_File_Index>
51

> <b_m_subgroup_collapsed>
0

> <r_i_docking_score>
-11.5737

> <r_i_glide_ecoul>
-16.665

> <r_i_glide_eff_state_penalty>
0

> <r_i_glide_einternal>
6.82098

> <r_i_glide_emodel>
-124.398

> <r_i_glide_energy>
-71.0022

> <r_i_glide_erotb>
0.285894

> <r_i_glide_esite>
-0.0499623

> <r_i_glide_evdw>
-54.3372

> <r_i_glide_gscore>
-11.5737

> <r_i_glide_hbond>
-0.623125

> <r_i_glide_ligand_efficiency>
-0.29676

> <r_i_glide_ligand_efficiency_ln>
-2.48172

> <r_i_glide_ligand_efficiency_sa>
-1.00638

> <r_i_glide_lipo>
-3.95921

> <r_i_glide_metal>
0

> <r_i_glide_rewards>
-2.01065

> <s_i_glide_gridfile>
wee1_glide-grid

> <s_m_Source_File>
wee1_actives_glide_SP.sdf

> <s_m_Source_Path>
/Users/zhangxujun/Desktop

> <s_m_entry_id>
189

> <s_m_entry_name>
wee1_actives_glide_SP.51

> <s_m_subgroup_title>
wee1_actives_glide_SP

> <s_m_subgroupid>
wee1_actives_glide_SP


$$$$
