@<TRIPOS>MOLECULE
CHEMBL520984_61
59   64    1
SMALL
USER_CHARGES


@<TRIPOS>ATOM
      1 C1          1.4332   53.4561   22.9391 C.3       1 UNK         0.0000 
      2 N2          2.7189   53.7601   23.5404 N.pl3     1 UNK         0.0000 
      3 C3          2.9396   53.8084   24.9025 C.ar      1 UNK         0.0000 
      4 C4          2.0560   53.5747   25.9637 C.ar      1 UNK         0.0000 
      5 C5          2.5315   53.7086   27.2725 C.ar      1 UNK         0.0000 
      6 C6          3.8796   54.0287   27.4815 C.ar      1 UNK         0.0000 
      7 C7          4.7467   54.2598   26.4419 C.ar      1 UNK         0.0000 
      8 C8          4.2983   54.1636   25.1104 C.ar      1 UNK         0.0000 
      9 C9          4.8848   54.3473   23.8341 C.ar      1 UNK         0.0000 
     10 C10         3.8909   54.0510   22.8664 C.ar      1 UNK         0.0000 
     11 C11         4.1552   54.0985   21.4955 C.ar      1 UNK         0.0000 
     12 C12         5.4190   54.5241   21.0799 C.ar      1 UNK         0.0000 
     13 C13         6.3914   54.8966   22.0204 C.ar      1 UNK         0.0000 
     14 C14         6.1539   54.7565   23.3873 C.ar      1 UNK         0.0000 
     15 O15         7.5042   55.4023   21.6817 O.co2     1 UNK         0.0000 
     16 S16         5.6842   54.6192   19.2967 S.o2      1 UNK         0.0000 
     17 O17         7.1173   54.4966   19.0162 O.2       1 UNK         0.0000 
     18 O18         4.9406   55.7937   18.8273 O.2       1 UNK         0.0000 
     19 C19         4.8575   53.0505   18.6156 C.3       1 UNK         0.0000 
     20 C20         3.4680   53.3433   18.0100 C.3       1 UNK         0.0000 
     21 C21         2.6348   52.0814   17.6974 C.3       1 UNK         0.0000 
     22 N22         2.1652   51.4117   18.9057 N.pl3     1 UNK         0.0000 
     23 C23         1.1447   51.8394   19.7262 C.ar      1 UNK         0.0000 
     24 C24         0.9758   50.9287   20.7581 C.ar      1 UNK         0.0000 
     25 C25         1.9438   49.9331   20.5944 C.ar      1 UNK         0.0000 
     26 C26         2.6596   50.2464   19.4495 C.ar      1 UNK         0.0000 
     27 C27         6.0678   54.5854   27.0306 C.2       1 UNK         0.0000 
     28 O28         7.1043   54.8962   26.4603 O.2       1 UNK         0.0000 
     29 N29         5.9041   54.4968   28.3602 N.am      1 UNK         0.0000 
     30 C30         4.6587   54.1728   28.7449 C.2       1 UNK         0.0000 
     31 O31         4.2753   54.0499   29.9075 O.2       1 UNK         0.0000 
     32 C32         1.5871   53.4520   28.3904 C.ar      1 UNK         0.0000 
     33 C33         0.9985   52.1832   28.4764 C.ar      1 UNK         0.0000 
     34 C34         0.1184   51.8746   29.5048 C.ar      1 UNK         0.0000 
     35 C35        -0.1598   52.8210   30.4814 C.ar      1 UNK         0.0000 
     36 C36         0.3939   54.0955   30.4040 C.ar      1 UNK         0.0000 
     37 C37         1.2499   54.4241   29.3542 C.ar      1 UNK         0.0000 
     38 Cl38        1.8422   56.0516   29.2811 Cl        1 UNK         0.0000 
     39 H39         0.6956   54.1527   23.3299 H         1 UNK         0.0000 
     40 H40         1.4719   53.5637   21.8588 H         1 UNK         0.0000 
     41 H41         1.1518   52.4383   23.1998 H         1 UNK         0.0000 
     42 H42         1.0277   53.2997   25.7800 H         1 UNK         0.0000 
     43 H43         3.3908   53.8519   20.7765 H         1 UNK         0.0000 
     44 H44         6.9372   55.0264   24.0783 H         1 UNK         0.0000 
     45 H45         4.8350   52.3031   19.4071 H         1 UNK         0.0000 
     46 H46         5.5216   52.6657   17.8411 H         1 UNK         0.0000 
     47 H47         3.6126   53.9049   17.0876 H         1 UNK         0.0000 
     48 H48         2.8956   54.0102   18.6542 H         1 UNK         0.0000 
     49 H49         3.2134   51.3681   17.1093 H         1 UNK         0.0000 
     50 H50         1.7630   52.3380   17.0947 H         1 UNK         0.0000 
     51 H51         0.6239   52.7589   19.4985 H         1 UNK         0.0000 
     52 H52         0.2430   50.9800   21.5490 H         1 UNK         0.0000 
     53 H53         2.1019   49.0760   21.2332 H         1 UNK         0.0000 
     54 H54         3.4772   49.7342   18.9583 H         1 UNK         0.0000 
     55 H55         6.6445   54.7152   29.0129 H         1 UNK         0.0000 
     56 H56         1.2266   51.4258   27.7387 H         1 UNK         0.0000 
     57 H57        -0.3420   50.8981   29.5526 H         1 UNK         0.0000 
     58 H58        -0.8361   52.5683   31.2817 H         1 UNK         0.0000 
     59 H59         0.1462   54.8330   31.1524 H         1 UNK         0.0000 
@<TRIPOS>BOND
     1    1    2 1    
     2    1   39 1    
     3    1   40 1    
     4    1   41 1    
     5    2   10 ar   
     6    2    3 ar   
     7    3    8 ar   
     8    3    4 ar   
     9    4    5 ar   
    10    4   42 1    
    11    5    6 ar   
    12    5   32 1    
    13    6   30 1    
    14    6    7 ar   
    15    7    8 ar   
    16    7   27 1    
    17    8    9 ar   
    18    9   14 ar   
    19    9   10 ar   
    20   10   11 ar   
    21   11   12 ar   
    22   11   43 1    
    23   12   13 ar   
    24   12   16 1    
    25   13   14 ar   
    26   13   15 1    
    27   14   44 1    
    28   16   17 2    
    29   16   18 2    
    30   16   19 1    
    31   19   20 1    
    32   19   45 1    
    33   19   46 1    
    34   20   21 1    
    35   20   47 1    
    36   20   48 1    
    37   21   22 1    
    38   21   49 1    
    39   21   50 1    
    40   22   26 ar   
    41   22   23 ar   
    42   23   24 ar   
    43   23   51 1    
    44   24   25 ar   
    45   24   52 1    
    46   25   26 ar   
    47   25   53 1    
    48   26   54 1    
    49   27   28 2    
    50   27   29 am   BACKBONE|DICT|INTERRES
    51   29   30 am   BACKBONE|DICT|INTERRES
    52   29   55 1    
    53   30   31 2    
    54   32   37 ar   
    55   32   33 ar   
    56   33   34 ar   
    57   33   56 1    
    58   34   35 ar   
    59   34   57 1    
    60   35   36 ar   
    61   35   58 1    
    62   36   37 ar   
    63   36   59 1    
    64   37   38 1    
@<TRIPOS>SUBSTRUCTURE
     1 UNK         1 GROUP             0       ****    0 ROOT    
