CHEMBL507613_78
                    3D
 Schrodinger Suite 2024-2.
 30 33  0  0  1  0            999 V2000
    0.4339   52.6200   24.6396 C   0  0  0  0  0  0
    1.6991   53.1863   25.0967 N   0  0  0  0  0  0
    2.0548   53.3519   26.4280 C   0  0  0  0  0  0
    1.3437   53.0747   27.6049 C   0  0  0  0  0  0
    1.9800   53.3413   28.8174 C   0  0  0  0  0  0
    3.2707   53.8570   28.8687 C   0  0  0  0  0  0
    3.9800   54.1286   27.7023 C   0  0  0  0  0  0
    3.3749   53.8819   26.4582 C   0  0  0  0  0  0
    3.8100   54.0299   25.1230 C   0  0  0  0  0  0
    2.7301   53.6275   24.2763 C   0  0  0  0  0  0
    2.8302   53.6843   22.8736 C   0  0  0  0  0  0
    4.0455   54.0953   22.3242 C   0  0  0  0  0  0
    5.1110   54.4428   23.1483 C   0  0  0  0  0  0
    5.0166   54.4375   24.5155 C   0  0  0  0  0  0
    6.3355   54.8804   25.0528 C   0  0  0  0  0  0
    6.7041   55.0347   26.2140 O   0  0  0  0  0  0
    7.1044   55.0799   23.9687 N   0  0  0  0  0  0
    6.4783   54.8967   22.7935 C   0  0  0  0  0  0
    6.9581   55.0961   21.6812 O   0  0  0  0  0  0
    3.8577   54.0966   30.0813 O   0  0  0  0  0  0
    0.4488   52.4504   23.5608 H   0  0  0  0  0  0
    0.2650   51.6618   25.1393 H   0  0  0  0  0  0
   -0.3825   53.2969   24.8816 H   0  0  0  0  0  0
    0.3408   52.6714   27.5865 H   0  0  0  0  0  0
    1.4557   53.1412   29.7395 H   0  0  0  0  0  0
    4.9792   54.5231   27.7710 H   0  0  0  0  0  0
    2.0161   53.4007   22.2255 H   0  0  0  0  0  0
    4.1506   54.1293   21.2490 H   0  0  0  0  0  0
    8.0934   55.3144   24.0218 H   0  0  0  0  0  0
    4.7596   54.4160   29.9971 H   0  0  0  0  0  0
  1  2  1  0  0  0
  1 21  1  0  0  0
  1 22  1  0  0  0
  1 23  1  0  0  0
  2 10  1  0  0  0
  2  3  1  0  0  0
  3  8  2  0  0  0
  3  4  1  0  0  0
  4  5  2  0  0  0
  4 24  1  0  0  0
  5  6  1  0  0  0
  5 25  1  0  0  0
  6  7  2  0  0  0
  6 20  1  0  0  0
  7  8  1  0  0  0
  7 26  1  0  0  0
  8  9  1  0  0  0
  9 14  2  0  0  0
  9 10  1  0  0  0
 10 11  2  0  0  0
 11 12  1  0  0  0
 11 27  1  0  0  0
 12 13  2  0  0  0
 12 28  1  0  0  0
 13 18  1  0  0  0
 13 14  1  0  0  0
 14 15  1  0  0  0
 15 16  2  0  0  0
 15 17  1  0  0  0
 17 18  1  0  0  0
 17 29  1  0  0  0
 18 19  2  0  0  0
 20 30  1  0  0  0
M  END
> <i_i_glide_confnum>
1

> <i_i_glide_lignum>
79

> <i_i_glide_posenum>
182

> <i_i_glide_rotatable_bonds>
1

> <i_m_Source_File_Index>
100

> <b_m_subgroup_collapsed>
0

> <r_i_docking_score>
-9.70259

> <r_i_glide_ecoul>
-8.53875

> <r_i_glide_eff_state_penalty>
0

> <r_i_glide_einternal>
7.19809e-05

> <r_i_glide_emodel>
-66.5921

> <r_i_glide_energy>
-39.5839

> <r_i_glide_erotb>
0

> <r_i_glide_esite>
-1.36852e-05

> <r_i_glide_evdw>
-31.0451

> <r_i_glide_gscore>
-9.70259

> <r_i_glide_hbond>
-0.846802

> <r_i_glide_ligand_efficiency>
-0.48513

> <r_i_glide_ligand_efficiency_ln>
-2.42824

> <r_i_glide_ligand_efficiency_sa>
-1.31684

> <r_i_glide_lipo>
-2.39032

> <r_i_glide_metal>
0

> <r_i_glide_rewards>
-3.63239

> <s_i_glide_gridfile>
wee1_glide-grid

> <s_m_Source_File>
wee1_actives_glide_SP.sdf

> <s_m_Source_Path>
/Users/zhangxujun/Desktop

> <s_m_entry_id>
238

> <s_m_entry_name>
wee1_actives_glide_SP.100

> <s_m_subgroup_title>
wee1_actives_glide_SP

> <s_m_subgroupid>
wee1_actives_glide_SP


$$$$
