CHEMBL272267_107
                    3D
 Schrodinger Suite 2024-2.
 63 68  0  0  1  0            999 V2000
    1.3287   53.3564   23.1184 C   0  0  0  0  0  0
    2.6114   53.7151   23.7139 N   0  0  0  0  0  0
    2.8620   53.7637   25.0738 C   0  0  0  0  0  0
    2.0002   53.5428   26.1580 C   0  0  0  0  0  0
    2.5022   53.7079   27.4541 C   0  0  0  0  0  0
    3.8604   54.0122   27.6323 C   0  0  0  0  0  0
    4.7144   54.2099   26.5736 C   0  0  0  0  0  0
    4.2282   54.1141   25.2536 C   0  0  0  0  0  0
    4.7867   54.3010   23.9677 C   0  0  0  0  0  0
    3.7691   54.0267   23.0191 C   0  0  0  0  0  0
    4.0048   54.0952   21.6427 C   0  0  0  0  0  0
    5.2681   54.5192   21.1918 C   0  0  0  0  0  0
    6.2697   54.8399   22.1339 C   0  0  0  0  0  0
    6.0521   54.6899   23.5027 C   0  0  0  0  0  0
    7.5049   55.3094   21.7689 O   0  0  0  0  0  0
    5.5233   54.5821   19.6916 C   0  0  0  0  0  0
    6.6562   54.4963   19.2194 O   0  0  0  0  0  0
    4.4337   54.6756   18.9007 N   0  0  0  0  0  0
    4.4142   54.4895   17.4467 C   0  0  0  0  0  0
    4.7342   53.0373   16.9968 C   0  0  0  0  0  0
    3.5043   52.0969   16.9317 N   0  3  0  0  0  0
    2.5467   52.2886   15.7472 C   0  0  0  0  0  0
    1.3107   51.4733   16.1410 C   0  0  0  0  0  0
    1.3636   51.2747   17.6633 C   0  0  0  0  0  0
    2.5962   52.0257   18.1681 C   0  0  0  0  0  0
    6.0578   54.5231   27.1318 C   0  0  0  0  0  0
    7.1040   54.7785   26.5435 O   0  0  0  0  0  0
    5.9045   54.4941   28.4665 N   0  0  0  0  0  0
    4.6641   54.1870   28.8789 C   0  0  0  0  0  0
    4.2993   54.0943   30.0483 O   0  0  0  0  0  0
    1.5700   53.5467   28.6002 C   0  0  0  0  0  0
    0.9363   52.3106   28.7941 C   0  0  0  0  0  0
    0.0930   52.1065   29.8822 C   0  0  0  0  0  0
   -0.0955   53.1230   30.8114 C   0  0  0  0  0  0
    0.4846   54.3713   30.6093 C   0  0  0  0  0  0
    1.2891   54.5991   29.4940 C   0  0  0  0  0  0
    1.8944   56.2062   29.2495 Cl  0  0  0  0  0  0
    0.5221   53.8296   23.6799 H   0  0  0  0  0  0
    1.2731   53.6982   22.0851 H   0  0  0  0  0  0
    1.2085   52.2721   23.1511 H   0  0  0  0  0  0
    0.9618   53.2905   26.0053 H   0  0  0  0  0  0
    3.2154   53.8379   20.9530 H   0  0  0  0  0  0
    6.8494   54.9225   24.1897 H   0  0  0  0  0  0
    8.1354   55.3405   22.4968 H   0  0  0  0  0  0
    3.5533   54.8962   19.3406 H   0  0  0  0  0  0
    5.1348   55.1755   16.9948 H   0  0  0  0  0  0
    3.4390   54.8082   17.0777 H   0  0  0  0  0  0
    5.4097   52.5229   17.6844 H   0  0  0  0  0  0
    5.1845   52.9948   16.0042 H   0  0  0  0  0  0
    3.0563   51.9589   14.8406 H   0  0  0  0  0  0
    2.3445   53.3585   15.6760 H   0  0  0  0  0  0
    1.3240   50.5054   15.6334 H   0  0  0  0  0  0
    0.3967   51.9858   15.8346 H   0  0  0  0  0  0
    0.4592   51.6442   18.1497 H   0  0  0  0  0  0
    1.4502   50.2146   17.9095 H   0  0  0  0  0  0
    2.3640   53.0482   18.4664 H   0  0  0  0  0  0
    3.1555   51.5359   18.9671 H   0  0  0  0  0  0
    6.6565   54.7301   29.1016 H   0  0  0  0  0  0
    1.1023   51.4948   28.1034 H   0  0  0  0  0  0
   -0.4137   51.1610   30.0165 H   0  0  0  0  0  0
   -0.7086   52.9416   31.6807 H   0  0  0  0  0  0
    0.3036   55.1702   31.3109 H   0  0  0  0  0  0
    3.9042   51.1594   16.8512 H   0  0  0  0  0  0
  1  2  1  0  0  0
  1 38  1  0  0  0
  1 39  1  0  0  0
  1 40  1  0  0  0
  2 10  1  0  0  0
  2  3  1  0  0  0
  3  8  2  0  0  0
  3  4  1  0  0  0
  4  5  2  0  0  0
  4 41  1  0  0  0
  5  6  1  0  0  0
  5 31  1  0  0  0
  6 29  1  0  0  0
  6  7  2  0  0  0
  7  8  1  0  0  0
  7 26  1  0  0  0
  8  9  1  0  0  0
  9 14  2  0  0  0
  9 10  1  0  0  0
 10 11  2  0  0  0
 11 12  1  0  0  0
 11 42  1  0  0  0
 12 13  2  0  0  0
 12 16  1  0  0  0
 13 14  1  0  0  0
 13 15  1  0  0  0
 14 43  1  0  0  0
 15 44  1  0  0  0
 16 17  2  0  0  0
 16 18  1  0  0  0
 18 19  1  0  0  0
 18 45  1  0  0  0
 19 20  1  0  0  0
 19 46  1  0  0  0
 19 47  1  0  0  0
 20 21  1  0  0  0
 20 48  1  0  0  0
 20 49  1  0  0  0
 21 25  1  0  0  0
 21 22  1  0  0  0
 21 63  1  0  0  0
 22 23  1  0  0  0
 22 50  1  0  0  0
 22 51  1  0  0  0
 23 24  1  0  0  0
 23 52  1  0  0  0
 23 53  1  0  0  0
 24 25  1  0  0  0
 24 54  1  0  0  0
 24 55  1  0  0  0
 25 56  1  0  0  0
 25 57  1  0  0  0
 26 27  2  0  0  0
 26 28  1  0  0  0
 28 29  1  0  0  0
 28 58  1  0  0  0
 29 30  2  0  0  0
 31 36  2  0  0  0
 31 32  1  0  0  0
 32 33  2  0  0  0
 32 59  1  0  0  0
 33 34  1  0  0  0
 33 60  1  0  0  0
 34 35  2  0  0  0
 34 61  1  0  0  0
 35 36  1  0  0  0
 35 62  1  0  0  0
 36 37  1  0  0  0
M  CHG  1  21   1
M  END
> <i_i_glide_confnum>
95

> <i_i_glide_lignum>
108

> <i_i_glide_posenum>
336

> <i_i_glide_rotatable_bonds>
7

> <i_m_Source_File_Index>
32

> <b_m_subgroup_collapsed>
0

> <r_i_docking_score>
-12.0299

> <r_i_glide_ecoul>
-16.3013

> <r_i_glide_eff_state_penalty>
0

> <r_i_glide_einternal>
10.9719

> <r_i_glide_emodel>
-120.77

> <r_i_glide_energy>
-69.4957

> <r_i_glide_erotb>
0.382687

> <r_i_glide_esite>
-0.1

> <r_i_glide_evdw>
-53.1944

> <r_i_glide_gscore>
-12.0299

> <r_i_glide_hbond>
-1.16118

> <r_i_glide_ligand_efficiency>
-0.325133

> <r_i_glide_ligand_efficiency_ln>
-2.60901

> <r_i_glide_ligand_efficiency_sa>
-1.08341

> <r_i_glide_lipo>
-3.80994

> <r_i_glide_metal>
0

> <r_i_glide_rewards>
-2.23657

> <s_i_glide_gridfile>
wee1_glide-grid

> <s_m_Source_File>
wee1_actives_glide_SP.sdf

> <s_m_Source_Path>
/Users/zhangxujun/Desktop

> <s_m_entry_id>
170

> <s_m_entry_name>
wee1_actives_glide_SP.32

> <s_m_subgroup_title>
wee1_actives_glide_SP

> <s_m_subgroupid>
wee1_actives_glide_SP


$$$$
