CHEMBL488572_103
                    3D
 Schrodinger Suite 2024-2.
 48 52  0  0  1  0            999 V2000
    5.6811   54.7654   21.0781 C   0  0  0  0  0  0
    4.3957   54.3264   21.3814 C   0  0  0  0  0  0
    4.0856   54.0981   22.7305 C   0  0  0  0  0  0
    5.0409   54.3303   23.7611 C   0  0  0  0  0  0
    6.3412   54.7409   23.4040 C   0  0  0  0  0  0
    6.6452   54.9573   22.0607 C   0  0  0  0  0  0
    7.9024   55.3624   21.6817 O   0  0  0  0  0  0
    4.3901   54.0969   24.9977 C   0  0  0  0  0  0
    3.0516   53.6938   24.7087 C   0  0  0  0  0  0
    2.9124   53.6528   23.3274 N   0  0  0  0  0  0
    1.7002   53.2355   22.6178 C   0  0  0  0  0  0
    1.9581   52.0320   21.6696 C   0  0  0  0  0  0
    0.6966   51.4573   21.0003 C   0  0  0  0  0  0
   -0.4076   51.8787   21.3569 O   0  0  0  0  0  0
    0.8306   50.4478   20.0984 N   0  0  0  0  0  0
   -0.3525   49.7623   19.5479 C   0  0  0  0  0  0
   -0.1703   48.2644   19.8779 C   0  0  0  0  0  0
    1.0659   47.7659   19.3689 O   0  0  0  0  0  0
    2.2206   48.4778   19.8227 C   0  0  0  0  0  0
    2.1202   49.9913   19.5381 C   0  0  0  0  0  0
    2.1290   53.3854   25.7316 C   0  0  0  0  0  0
    2.5551   53.5117   27.0530 C   0  0  0  0  0  0
    3.8542   53.9104   27.3382 C   0  0  0  0  0  0
    4.7671   54.1875   26.3561 C   0  0  0  0  0  0
    6.0337   54.5657   27.0342 C   0  0  0  0  0  0
    7.1021   54.8977   26.5354 O   0  0  0  0  0  0
    5.7726   54.4961   28.3540 N   0  0  0  0  0  0
    4.5122   54.1269   28.6511 C   0  0  0  0  0  0
    4.0259   54.0186   29.7770 O   0  0  0  0  0  0
    5.9439   54.9512   20.0475 H   0  0  0  0  0  0
    3.6705   54.1975   20.5895 H   0  0  0  0  0  0
    7.1000   54.9081   24.1491 H   0  0  0  0  0  0
    8.5434   55.3452   22.4086 H   0  0  0  0  0  0
    1.3240   54.1007   22.0818 H   0  0  0  0  0  0
    0.9287   52.9793   23.3445 H   0  0  0  0  0  0
    2.4401   51.2268   22.2282 H   0  0  0  0  0  0
    2.6301   52.3410   20.8742 H   0  0  0  0  0  0
   -0.2958   49.9031   18.4657 H   0  0  0  0  0  0
   -1.3127   50.1543   19.8905 H   0  0  0  0  0  0
   -0.2026   48.1249   20.9589 H   0  0  0  0  0  0
   -0.9938   47.6825   19.4654 H   0  0  0  0  0  0
    2.3463   48.3167   20.8949 H   0  0  0  0  0  0
    3.1040   48.0833   19.3238 H   0  0  0  0  0  0
    3.0050   50.5245   19.8824 H   0  0  0  0  0  0
    2.0346   50.1432   18.4608 H   0  0  0  0  0  0
    1.1190   53.0690   25.5219 H   0  0  0  0  0  0
    1.8592   53.2978   27.8502 H   0  0  0  0  0  0
    6.4547   54.7556   29.0524 H   0  0  0  0  0  0
  1  6  2  0  0  0
  1  2  1  0  0  0
  1 30  1  0  0  0
  2  3  2  0  0  0
  2 31  1  0  0  0
  3 10  1  0  0  0
  3  4  1  0  0  0
  4  5  2  0  0  0
  4  8  1  0  0  0
  5  6  1  0  0  0
  5 32  1  0  0  0
  6  7  1  0  0  0
  7 33  1  0  0  0
  8 24  2  0  0  0
  8  9  1  0  0  0
  9 10  1  0  0  0
  9 21  2  0  0  0
 10 11  1  0  0  0
 11 12  1  0  0  0
 11 34  1  0  0  0
 11 35  1  0  0  0
 12 13  1  0  0  0
 12 36  1  0  0  0
 12 37  1  0  0  0
 13 14  2  0  0  0
 13 15  1  0  0  0
 15 20  1  0  0  0
 15 16  1  0  0  0
 16 17  1  0  0  0
 16 38  1  0  0  0
 16 39  1  0  0  0
 17 18  1  0  0  0
 17 40  1  0  0  0
 17 41  1  0  0  0
 18 19  1  0  0  0
 19 20  1  0  0  0
 19 42  1  0  0  0
 19 43  1  0  0  0
 20 44  1  0  0  0
 20 45  1  0  0  0
 21 22  1  0  0  0
 21 46  1  0  0  0
 22 23  2  0  0  0
 22 47  1  0  0  0
 23 28  1  0  0  0
 23 24  1  0  0  0
 24 25  1  0  0  0
 25 26  2  0  0  0
 25 27  1  0  0  0
 27 28  1  0  0  0
 27 48  1  0  0  0
 28 29  2  0  0  0
M  END
> <i_i_glide_confnum>
23

> <i_i_glide_lignum>
104

> <i_i_glide_posenum>
78

> <i_i_glide_rotatable_bonds>
5

> <i_m_Source_File_Index>
103

> <b_m_subgroup_collapsed>
0

> <r_i_docking_score>
-10.3012

> <r_i_glide_ecoul>
-14.9344

> <r_i_glide_eff_state_penalty>
0

> <r_i_glide_einternal>
4.69915

> <r_i_glide_emodel>
-91.5439

> <r_i_glide_energy>
-56.6255

> <r_i_glide_erotb>
0.265074

> <r_i_glide_esite>
-0.0112371

> <r_i_glide_evdw>
-41.6911

> <r_i_glide_gscore>
-10.3012

> <r_i_glide_hbond>
-0.899379

> <r_i_glide_ligand_efficiency>
-0.355213

> <r_i_glide_ligand_efficiency_ln>
-2.35871

> <r_i_glide_ligand_efficiency_sa>
-1.09133

> <r_i_glide_lipo>
-2.61777

> <r_i_glide_metal>
0

> <r_i_glide_rewards>
-2.71314

> <s_i_glide_gridfile>
wee1_glide-grid

> <s_m_Source_File>
wee1_actives_glide_SP.sdf

> <s_m_Source_Path>
/Users/zhangxujun/Desktop

> <s_m_entry_id>
241

> <s_m_entry_name>
wee1_actives_glide_SP.103

> <s_m_subgroup_title>
wee1_actives_glide_SP

> <s_m_subgroupid>
wee1_actives_glide_SP


$$$$
