@<TRIPOS>MOLECULE
CHEMBL475325_75
34   37    1
SMALL
USER_CHARGES


@<TRIPOS>ATOM
      1 C1          5.6581   54.6183   21.0876 C.ar      1 UNK         0.0000 
      2 C2          4.3806   54.1581   21.4036 C.ar      1 UNK         0.0000 
      3 C3          4.0584   54.0305   22.7627 C.ar      1 UNK         0.0000 
      4 C4          5.0080   54.3136   23.7871 C.ar      1 UNK         0.0000 
      5 C5          6.3049   54.7291   23.4183 C.ar      1 UNK         0.0000 
      6 C6          6.6060   54.8969   22.0669 C.ar      1 UNK         0.0000 
      7 O7          7.8544   55.3176   21.6819 O.3       1 UNK         0.0000 
      8 C8          4.3655   54.0988   25.0294 C.ar      1 UNK         0.0000 
      9 C9          3.0241   53.6967   24.7518 C.ar      1 UNK         0.0000 
     10 N10         2.8724   53.6471   23.3746 N.pl3     1 UNK         0.0000 
     11 C11         1.6570   53.2115   22.6813 C.3       1 UNK         0.0000 
     12 C12         1.6223   51.6878   22.4454 C.3       1 UNK         0.0000 
     13 O13         1.5049   50.9819   23.6650 O.3       1 UNK         0.0000 
     14 C14         2.1030   53.4114   25.7759 C.ar      1 UNK         0.0000 
     15 C15         2.5331   53.5538   27.0962 C.ar      1 UNK         0.0000 
     16 C16         3.8393   53.9386   27.3730 C.ar      1 UNK         0.0000 
     17 C17         4.7538   54.1982   26.3830 C.ar      1 UNK         0.0000 
     18 C18         6.0325   54.5642   27.0503 C.2       1 UNK         0.0000 
     19 O19         7.1042   54.8922   26.5479 O.2       1 UNK         0.0000 
     20 N20         5.7758   54.4965   28.3718 N.am      1 UNK         0.0000 
     21 C21         4.5065   54.1658   28.6800 C.2       1 UNK         0.0000 
     22 O22         4.0215   54.0951   29.8078 O.2       1 UNK         0.0000 
     23 H23         5.9267   54.7450   20.0480 H         1 UNK         0.0000 
     24 H24         3.6696   53.9426   20.6193 H         1 UNK         0.0000 
     25 H25         7.0585   54.9481   24.1567 H         1 UNK         0.0000 
     26 H26         8.4976   55.3303   22.4038 H         1 UNK         0.0000 
     27 H27         0.7579   53.5866   23.1706 H         1 UNK         0.0000 
     28 H28         1.6627   53.6961   21.7068 H         1 UNK         0.0000 
     29 H29         0.8276   51.4101   21.7522 H         1 UNK         0.0000 
     30 H30         2.5600   51.3670   21.9871 H         1 UNK         0.0000 
     31 H31         1.5929   50.0382   23.4981 H         1 UNK         0.0000 
     32 H32         1.0938   53.0932   25.5564 H         1 UNK         0.0000 
     33 H33         1.8400   53.3493   27.9005 H         1 UNK         0.0000 
     34 H34         6.4682   54.7451   29.0653 H         1 UNK         0.0000 
@<TRIPOS>BOND
     1    1    6 ar   
     2    1    2 ar   
     3    1   23 1    
     4    2    3 ar   
     5    2   24 1    
     6    3   10 ar   
     7    3    4 ar   
     8    4    5 ar   
     9    4    8 ar   
    10    5    6 ar   
    11    5   25 1    
    12    6    7 1    
    13    7   26 1    
    14    8   17 ar   
    15    8    9 ar   
    16    9   10 ar   
    17    9   14 ar   
    18   10   11 1    
    19   11   12 1    
    20   11   27 1    
    21   11   28 1    
    22   12   13 1    
    23   12   29 1    
    24   12   30 1    
    25   13   31 1    
    26   14   15 ar   
    27   14   32 1    
    28   15   16 ar   
    29   15   33 1    
    30   16   21 1    
    31   16   17 ar   
    32   17   18 1    
    33   18   19 2    
    34   18   20 am   BACKBONE|DICT|INTERRES
    35   20   21 am   BACKBONE|DICT|INTERRES
    36   20   34 1    
    37   21   22 2    
@<TRIPOS>SUBSTRUCTURE
     1 UNK         1 GROUP             0       ****    0 ROOT    
