@<TRIPOS>MOLECULE
CHEMBL270866_30
63   68    1
SMALL
USER_CHARGES


@<TRIPOS>ATOM
      1 C1          1.5224   53.3352   22.7913 C.3       1 UNK         0.0000 
      2 N2          2.7818   53.7061   23.4226 N.pl3     1 UNK         0.0000 
      3 C3          2.9710   53.7733   24.7932 C.ar      1 UNK         0.0000 
      4 C4          2.0712   53.5444   25.8481 C.ar      1 UNK         0.0000 
      5 C5          2.5278   53.6908   27.1658 C.ar      1 UNK         0.0000 
      6 C6          3.8734   54.0098   27.3913 C.ar      1 UNK         0.0000 
      7 C7          4.7531   54.2381   26.3617 C.ar      1 UNK         0.0000 
      8 C8          4.3239   54.1375   25.0246 C.ar      1 UNK         0.0000 
      9 C9          4.9352   54.3249   23.7628 C.ar      1 UNK         0.0000 
     10 C10         3.9525   54.0636   22.7686 C.ar      1 UNK         0.0000 
     11 C11         4.2347   54.1896   21.4004 C.ar      1 UNK         0.0000 
     12 C12         5.5033   54.6459   21.0338 C.ar      1 UNK         0.0000 
     13 C13         6.4848   54.8989   21.9982 C.ar      1 UNK         0.0000 
     14 C14         6.2253   54.7104   23.3528 C.ar      1 UNK         0.0000 
     15 O15         7.6303   55.3279   21.6698 O.co2     1 UNK         0.0000 
     16 S16         5.8304   54.8953   19.2367 S.3       1 UNK         0.0000 
     17 O17         4.4886   54.7101   18.5252 O.2       1 UNK         0.0000 
     18 C18         6.1680   56.7265   19.3105 C.3       1 UNK         0.0000 
     19 C19         6.0545   57.4261   17.9434 C.3       1 UNK         0.0000 
     20 C20         4.6677   57.3021   17.2878 C.3       1 UNK         0.0000 
     21 N21         4.4108   58.4994   16.3498 N.4       1 UNK         0.0000 
     22 C22         2.9893   58.5445   15.7647 C.3       1 UNK         0.0000 
     23 C23         3.1073   59.4827   14.5624 C.3       1 UNK         0.0000 
     24 C24         4.5865   59.5114   14.1623 C.3       1 UNK         0.0000 
     25 C25         5.3244   58.5689   15.1151 C.3       1 UNK         0.0000 
     26 C26         6.0639   54.5799   26.9657 C.2       1 UNK         0.0000 
     27 O27         7.1044   54.8964   26.4104 O.2       1 UNK         0.0000 
     28 N28         5.8880   54.4965   28.2933 N.am      1 UNK         0.0000 
     29 C29         4.6442   54.1494   28.6629 C.2       1 UNK         0.0000 
     30 O30         4.2576   54.0017   29.8203 O.2       1 UNK         0.0000 
     31 C31         1.5806   53.4478   28.2882 C.ar      1 UNK         0.0000 
     32 C32         0.9886   52.1828   28.3949 C.ar      1 UNK         0.0000 
     33 C33         0.1429   51.8770   29.4558 C.ar      1 UNK         0.0000 
     34 C34        -0.0967   52.8215   30.4465 C.ar      1 UNK         0.0000 
     35 C35         0.4480   54.0977   30.3401 C.ar      1 UNK         0.0000 
     36 C36         1.2669   54.4250   29.2582 C.ar      1 UNK         0.0000 
     37 Cl37        1.8556   56.0518   29.1602 Cl        1 UNK         0.0000 
     38 H38         1.2529   52.3249   23.1005 H         1 UNK         0.0000 
     39 H39         0.7452   54.0291   23.1135 H         1 UNK         0.0000 
     40 H40         1.6037   53.3602   21.7045 H         1 UNK         0.0000 
     41 H41         1.0438   53.2735   25.6537 H         1 UNK         0.0000 
     42 H42         3.4887   53.9908   20.6458 H         1 UNK         0.0000 
     43 H43         7.0095   54.9152   24.0605 H         1 UNK         0.0000 
     44 H44         7.1807   56.8692   19.6849 H         1 UNK         0.0000 
     45 H45         5.5045   57.1903   20.0344 H         1 UNK         0.0000 
     46 H46         6.8029   57.0123   17.2655 H         1 UNK         0.0000 
     47 H47         6.3155   58.4791   18.0686 H         1 UNK         0.0000 
     48 H48         3.8720   57.3402   18.0323 H         1 UNK         0.0000 
     49 H49         4.5547   56.3914   16.6952 H         1 UNK         0.0000 
     50 H50         2.3044   58.8788   16.5453 H         1 UNK         0.0000 
     51 H51         2.7371   57.5207   15.4779 H         1 UNK         0.0000 
     52 H52         2.7666   60.4825   14.8385 H         1 UNK         0.0000 
     53 H53         2.4759   59.1438   13.7401 H         1 UNK         0.0000 
     54 H54         4.7285   59.2060   13.1245 H         1 UNK         0.0000 
     55 H55         4.9864   60.5232   14.2599 H         1 UNK         0.0000 
     56 H56         5.4028   57.5499   14.7305 H         1 UNK         0.0000 
     57 H57         6.3108   58.9106   15.4359 H         1 UNK         0.0000 
     58 H58         6.6187   54.7236   28.9534 H         1 UNK         0.0000 
     59 H59         1.1958   51.4205   27.6569 H         1 UNK         0.0000 
     60 H60        -0.3082   50.8967   29.5237 H         1 UNK         0.0000 
     61 H61        -0.7317   52.5648   31.2812 H         1 UNK         0.0000 
     62 H62         0.2299   54.8364   31.0976 H         1 UNK         0.0000 
     63 H63         4.5480   59.3592   16.8782 H         1 UNK         0.0000 
@<TRIPOS>BOND
     1    1    2 1    
     2    1   38 1    
     3    1   39 1    
     4    1   40 1    
     5    2   10 ar   
     6    2    3 ar   
     7    3    8 ar   
     8    3    4 ar   
     9    4    5 ar   
    10    4   41 1    
    11    5    6 ar   
    12    5   31 1    
    13    6   29 1    
    14    6    7 ar   
    15    7    8 ar   
    16    7   26 1    
    17    8    9 ar   
    18    9   14 ar   
    19    9   10 ar   
    20   10   11 ar   
    21   11   12 ar   
    22   11   42 1    
    23   12   13 ar   
    24   12   16 1    
    25   13   14 ar   
    26   13   15 1    
    27   14   43 1    
    28   16   17 2    
    29   16   18 1    
    30   18   19 1    
    31   18   44 1    
    32   18   45 1    
    33   19   20 1    
    34   19   46 1    
    35   19   47 1    
    36   20   21 1    
    37   20   48 1    
    38   20   49 1    
    39   21   25 1    
    40   21   22 1    
    41   21   63 1    
    42   22   23 1    
    43   22   50 1    
    44   22   51 1    
    45   23   24 1    
    46   23   52 1    
    47   23   53 1    
    48   24   25 1    
    49   24   54 1    
    50   24   55 1    
    51   25   56 1    
    52   25   57 1    
    53   26   27 2    
    54   26   28 am   BACKBONE|DICT|INTERRES
    55   28   29 am   BACKBONE|DICT|INTERRES
    56   28   58 1    
    57   29   30 2    
    58   31   36 ar   
    59   31   32 ar   
    60   32   33 ar   
    61   32   59 1    
    62   33   34 ar   
    63   33   60 1    
    64   34   35 ar   
    65   34   61 1    
    66   35   36 ar   
    67   35   62 1    
    68   36   37 1    
@<TRIPOS>SUBSTRUCTURE
     1 UNK         1 GROUP             0       ****    0 ROOT    
