@<TRIPOS>MOLECULE
CHEMBL181314_52
54   57    1
SMALL
USER_CHARGES


@<TRIPOS>ATOM
      1 C1          2.4209   53.6121   23.8930 C.3       1 UNK         0.0000 
      2 N2          3.0085   53.8770   25.2237 N.pl3     1 UNK         0.0000 
      3 C3          4.3690   54.2995   25.2650 C.ar      1 UNK         0.0000 
      4 C4          4.9778   54.4967   26.5112 C.ar      1 UNK         0.0000 
      5 C5          4.1587   54.3335   27.7144 C.ar      1 UNK         0.0000 
      6 C6          2.8553   53.9807   27.6240 C.ar      1 UNK         0.0000 
      7 C7          2.2331   53.6356   26.3344 C.ar      1 UNK         0.0000 
      8 O8          1.1044   53.1421   26.2756 O.2       1 UNK         0.0000 
      9 C9          2.0314   53.9187   28.8636 C.ar      1 UNK         0.0000 
     10 C10         1.5449   55.0874   29.4834 C.ar      1 UNK         0.0000 
     11 C11         0.7886   55.0082   30.6522 C.ar      1 UNK         0.0000 
     12 C12         0.5323   53.7774   31.2437 C.ar      1 UNK         0.0000 
     13 C13         0.9911   52.6247   30.6385 C.ar      1 UNK         0.0000 
     14 C14         1.7353   52.6813   29.4631 C.ar      1 UNK         0.0000 
     15 Cl15        2.3044   51.1961   28.7988 Cl        1 UNK         0.0000 
     16 O16        -0.0956   53.6967   32.4551 O.3       1 UNK         0.0000 
     17 Cl17        1.9044   56.6647   28.8817 Cl        1 UNK         0.0000 
     18 C18         6.3179   54.8707   26.5210 C.ar      1 UNK         0.0000 
     19 N19         7.0124   55.0652   25.3710 N.ar      1 UNK         0.0000 
     20 C20         6.3461   54.8899   24.2004 C.ar      1 UNK         0.0000 
     21 N21         5.0500   54.4967   24.0984 N.ar      1 UNK         0.0000 
     22 N22         7.1044   55.1782   23.0584 N.pl3     1 UNK         0.0000 
     23 C23         6.8624   55.2967   21.6815 C.ar      1 UNK         0.0000 
     24 C24         5.6363   55.0121   21.0733 C.ar      1 UNK         0.0000 
     25 C25         5.4903   55.1786   19.6978 C.ar      1 UNK         0.0000 
     26 C26         6.5572   55.6214   18.9187 C.ar      1 UNK         0.0000 
     27 C27         7.8065   55.8180   19.5155 C.ar      1 UNK         0.0000 
     28 C28         7.9445   55.6926   20.8927 C.ar      1 UNK         0.0000 
     29 O29         6.3139   55.8303   17.5784 O.3       1 UNK         0.0000 
     30 C30         7.0124   56.8682   16.8803 C.3       1 UNK         0.0000 
     31 C31         6.6319   58.3036   17.3360 C.3       1 UNK         0.0000 
     32 C32         7.4758   58.9264   18.4817 C.3       1 UNK         0.0000 
     33 C33         8.9053   59.3423   18.0817 C.2       1 UNK         0.0000 
     34 O34         9.5044   60.0967   18.8817 O.co2     1 UNK         0.0000 
     35 O35         9.3950   58.9150   17.0133 O.co2     1 UNK         0.0000 
     36 H36         1.4069   53.2104   23.9214 H         1 UNK         0.0000 
     37 H37         2.3893   54.5337   23.3105 H         1 UNK         0.0000 
     38 H38         3.0354   52.8967   23.3452 H         1 UNK         0.0000 
     39 H39         4.5834   54.5664   28.6819 H         1 UNK         0.0000 
     40 H40         0.4577   55.9137   31.1324 H         1 UNK         0.0000 
     41 H41         0.7874   51.6967   31.1268 H         1 UNK         0.0000 
     42 H42        -0.5606   52.8524   32.6423 H         1 UNK         0.0000 
     43 H43         6.8457   55.0380   27.4503 H         1 UNK         0.0000 
     44 H44         8.0867   55.3352   23.2836 H         1 UNK         0.0000 
     45 H45         4.7830   54.6831   21.6434 H         1 UNK         0.0000 
     46 H46         4.5326   54.9906   19.2345 H         1 UNK         0.0000 
     47 H47         8.6627   56.1192   18.9303 H         1 UNK         0.0000 
     48 H48         8.9091   55.8916   21.3382 H         1 UNK         0.0000 
     49 H49         6.7150   56.7598   15.8370 H         1 UNK         0.0000 
     50 H50         8.0884   56.6968   16.8797 H         1 UNK         0.0000 
     51 H51         5.5831   58.3008   17.6351 H         1 UNK         0.0000 
     52 H52         6.6696   58.9766   16.4770 H         1 UNK         0.0000 
     53 H53         7.5173   58.2634   19.3318 H         1 UNK         0.0000 
     54 H54         6.9736   59.8027   18.8817 H         1 UNK         0.0000 
@<TRIPOS>BOND
     1    1    2 1    
     2    1   36 1    
     3    1   37 1    
     4    1   38 1    
     5    2    7 ar   
     6    2    3 ar   
     7    3   21 ar   
     8    3    4 ar   
     9    4    5 ar   
    10    4   18 ar   
    11    5    6 ar   
    12    5   39 1    
    13    6    7 ar   
    14    6    9 1    
    15    7    8 2    
    16    9   14 ar   
    17    9   10 ar   
    18   10   11 ar   
    19   10   17 1    
    20   11   12 ar   
    21   11   40 1    
    22   12   13 ar   
    23   12   16 1    
    24   13   14 ar   
    25   13   41 1    
    26   14   15 1    
    27   16   42 1    
    28   18   19 ar   
    29   18   43 1    
    30   19   20 ar   
    31   20   21 ar   
    32   20   22 1    
    33   22   23 1    
    34   22   44 1    
    35   23   28 ar   
    36   23   24 ar   
    37   24   25 ar   
    38   24   45 1    
    39   25   26 ar   
    40   25   46 1    
    41   26   27 ar   
    42   26   29 1    
    43   27   28 ar   
    44   27   47 1    
    45   28   48 1    
    46   29   30 1    
    47   30   31 1    
    48   30   49 1    
    49   30   50 1    
    50   31   32 1    
    51   31   51 1    
    52   31   52 1    
    53   32   33 1    
    54   32   53 1    
    55   32   54 1    
    56   33   34 2    
    57   33   35 1    
@<TRIPOS>SUBSTRUCTURE
     1 UNK         1 GROUP             0       ****    0 ROOT    
