@<TRIPOS>MOLECULE
CHEMBL521200_63
50   55    1
SMALL
USER_CHARGES


@<TRIPOS>ATOM
      1 C1          0.0900   51.8676   29.3582 C.ar      1 UNK         0.0000 
      2 C2         -0.2007   52.8348   30.3116 C.ar      1 UNK         0.0000 
      3 C3          0.3079   54.1217   30.1720 C.ar      1 UNK         0.0000 
      4 C4          1.1487   54.4338   29.1014 C.ar      1 UNK         0.0000 
      5 C5          1.5253   53.4312   28.1838 C.ar      1 UNK         0.0000 
      6 C6          0.9612   52.1562   28.3130 C.ar      1 UNK         0.0000 
      7 C7          2.5127   53.6692   27.0967 C.ar      1 UNK         0.0000 
      8 C8          2.1031   53.5219   25.7655 C.ar      1 UNK         0.0000 
      9 C9          3.0348   53.7749   24.7448 C.ar      1 UNK         0.0000 
     10 C10         4.3762   54.1549   25.0238 C.ar      1 UNK         0.0000 
     11 C11         5.0293   54.3605   23.7837 C.ar      1 UNK         0.0000 
     12 C12         6.3329   54.7511   23.4146 C.ar      1 UNK         0.0000 
     13 C13         6.6447   54.9062   22.0644 C.ar      1 UNK         0.0000 
     14 C14         5.6923   54.6546   21.0828 C.ar      1 UNK         0.0000 
     15 C15         4.4049   54.2252   21.3985 C.ar      1 UNK         0.0000 
     16 C16         4.0801   54.0968   22.7573 C.ar      1 UNK         0.0000 
     17 N17         2.8935   53.7141   23.3681 N.pl3     1 UNK         0.0000 
     18 C18         1.6891   53.2617   22.6756 C.3       1 UNK         0.0000 
     19 C19         1.6563   51.7252   22.5608 C.3       1 UNK         0.0000 
     20 S20         3.0809   50.9090   21.7639 S.3       1 UNK         0.0000 
     21 N21         2.2541   49.8387   20.6300 N.pl3     1 UNK         0.0000 
     22 C22         2.4042   49.8330   19.2704 C.ar      1 UNK         0.0000 
     23 C23         1.5776   48.8148   18.8302 C.ar      1 UNK         0.0000 
     24 N24         0.9630   48.2528   19.8528 N.2       1 UNK         0.0000 
     25 N25         1.3856   48.8967   21.0033 N.2       1 UNK         0.0000 
     26 O26         7.9025   55.3025   21.6817 O.3       1 UNK         0.0000 
     27 C27         4.7581   54.2418   26.3756 C.ar      1 UNK         0.0000 
     28 C28         3.8457   54.0002   27.3717 C.ar      1 UNK         0.0000 
     29 C29         4.5667   54.1540   28.6700 C.2       1 UNK         0.0000 
     30 O30         4.1360   54.0206   29.8135 O.2       1 UNK         0.0000 
     31 N31         5.8250   54.4967   28.3456 N.am      1 UNK         0.0000 
     32 C32         6.0473   54.5810   27.0234 C.2       1 UNK         0.0000 
     33 O33         7.1043   54.8967   26.4985 O.2       1 UNK         0.0000 
     34 Cl34        1.6838   56.0744   28.9376 Cl        1 UNK         0.0000 
     35 H35        -0.3508   50.8891   29.4447 H         1 UNK         0.0000 
     36 H36        -0.8500   52.5925   31.1428 H         1 UNK         0.0000 
     37 H37         0.0460   54.8822   30.8931 H         1 UNK         0.0000 
     38 H38         1.2099   51.3743   27.6087 H         1 UNK         0.0000 
     39 H39         1.0858   53.2379   25.5391 H         1 UNK         0.0000 
     40 H40         7.0918   54.9542   24.1488 H         1 UNK         0.0000 
     41 H41         5.9619   54.7783   20.0443 H         1 UNK         0.0000 
     42 H42         3.6891   54.0226   20.6132 H         1 UNK         0.0000 
     43 H43         1.6956   53.6969   21.6812 H         1 UNK         0.0000 
     44 H44         0.8114   53.6519   23.1917 H         1 UNK         0.0000 
     45 H45         0.7758   51.4890   21.9616 H         1 UNK         0.0000 
     46 H46         1.4252   51.2618   23.5215 H         1 UNK         0.0000 
     47 H47         3.0912   50.4979   18.7601 H         1 UNK         0.0000 
     48 H48         1.4441   48.4889   17.8082 H         1 UNK         0.0000 
     49 H49         8.5401   55.2993   22.4101 H         1 UNK         0.0000 
     50 H50         6.5333   54.7239   29.0297 H         1 UNK         0.0000 
@<TRIPOS>BOND
     1    1    6 ar   
     2    1    2 ar   
     3    1   35 1    
     4    2    3 ar   
     5    2   36 1    
     6    3    4 ar   
     7    3   37 1    
     8    4    5 ar   
     9    4   34 1    
    10    5    6 ar   
    11    5    7 1    
    12    6   38 1    
    13    7   28 ar   
    14    7    8 ar   
    15    8    9 ar   
    16    8   39 1    
    17    9   17 ar   
    18    9   10 ar   
    19   10   11 ar   
    20   10   27 ar   
    21   11   16 ar   
    22   11   12 ar   
    23   12   13 ar   
    24   12   40 1    
    25   13   14 ar   
    26   13   26 1    
    27   14   15 ar   
    28   14   41 1    
    29   15   16 ar   
    30   15   42 1    
    31   16   17 ar   
    32   17   18 1    
    33   18   19 1    
    34   18   43 1    
    35   18   44 1    
    36   19   20 1    
    37   19   45 1    
    38   19   46 1    
    39   20   21 1    
    40   21   25 ar   
    41   21   22 ar   
    42   22   23 ar   
    43   22   47 1    
    44   23   24 ar   
    45   23   48 1    
    46   24   25 ar   
    47   26   49 1    
    48   27   32 1    
    49   27   28 ar   
    50   28   29 1    
    51   29   30 2    
    52   29   31 am   BACKBONE|DICT|INTERRES
    53   31   32 am   BACKBONE|DICT|INTERRES
    54   31   50 1    
    55   32   33 2    
@<TRIPOS>SUBSTRUCTURE
     1 UNK         1 GROUP             0       ****    0 ROOT    
