CHEMBL271071_38
                    3D
 Schrodinger Suite 2024-2.
 60 65  0  0  1  0            999 V2000
    0.0402   51.8640   29.2817 C   0  0  0  0  0  0
   -0.2187   52.8028   30.2730 C   0  0  0  0  0  0
    0.3453   54.0723   30.1902 C   0  0  0  0  0  0
    1.1963   54.3970   29.1322 C   0  0  0  0  0  0
    1.5275   53.4250   28.1629 C   0  0  0  0  0  0
    0.9175   52.1663   28.2444 C   0  0  0  0  0  0
    2.5105   53.6703   27.0681 C   0  0  0  0  0  0
    2.0913   53.5453   25.7339 C   0  0  0  0  0  0
    3.0261   53.7844   24.7145 C   0  0  0  0  0  0
    4.3755   54.1345   24.9887 C   0  0  0  0  0  0
    5.0270   54.3258   23.7445 C   0  0  0  0  0  0
    6.3316   54.6920   23.3694 C   0  0  0  0  0  0
    6.6240   54.9003   22.0230 C   0  0  0  0  0  0
    5.6557   54.7097   21.0262 C   0  0  0  0  0  0
    4.3693   54.2514   21.3672 C   0  0  0  0  0  0
    4.0694   54.0967   22.7247 C   0  0  0  0  0  0
    2.8846   53.7505   23.3419 N   0  0  0  0  0  0
    2.0291   53.5346   22.8513 H   0  0  0  0  0  0
    6.0488   55.0153   19.7324 O   0  0  0  0  0  0
    5.2284   54.7402   18.5970 C   0  0  0  0  0  0
    5.6491   53.4077   17.9559 C   0  0  0  0  0  0
    7.1443   53.3902   17.5876 C   0  0  0  0  0  0
    7.5044   52.0971   16.8214 N   0  3  0  0  0  0
    9.0248   51.8627   16.7287 C   0  0  0  0  0  0
    9.1776   50.9124   15.5473 C   0  0  0  0  0  0
    8.0855   51.3231   14.5605 C   0  0  0  0  0  0
    7.0160   52.0896   15.3542 C   0  0  0  0  0  0
    7.8999   55.2968   21.6818 O   0  0  0  0  0  0
    4.7617   54.2249   26.3388 C   0  0  0  0  0  0
    3.8506   53.9864   27.3385 C   0  0  0  0  0  0
    4.5852   54.1161   28.6336 C   0  0  0  0  0  0
    4.1709   53.9448   29.7784 O   0  0  0  0  0  0
    5.8352   54.4845   28.3051 N   0  0  0  0  0  0
    6.0509   54.5735   26.9836 C   0  0  0  0  0  0
    7.1044   54.8980   26.4571 O   0  0  0  0  0  0
    1.8037   56.0179   29.0625 Cl  0  0  0  0  0  0
   -0.4344   50.8964   29.3273 H   0  0  0  0  0  0
   -0.8864   52.5512   31.0877 H   0  0  0  0  0  0
    0.1143   54.8091   30.9456 H   0  0  0  0  0  0
    1.1328   51.4066   27.5057 H   0  0  0  0  0  0
    1.0683   53.2860   25.5032 H   0  0  0  0  0  0
    7.1028   54.8574   24.1012 H   0  0  0  0  0  0
    3.5997   54.0756   20.6328 H   0  0  0  0  0  0
    5.4076   55.5437   17.8812 H   0  0  0  0  0  0
    4.1568   54.7827   18.7839 H   0  0  0  0  0  0
    5.0376   53.2276   17.0720 H   0  0  0  0  0  0
    5.4291   52.5917   18.6454 H   0  0  0  0  0  0
    7.7665   53.4012   18.4817 H   0  0  0  0  0  0
    7.4414   54.2291   16.9552 H   0  0  0  0  0  0
    9.3885   51.4752   17.6807 H   0  0  0  0  0  0
    9.4867   52.8345   16.5408 H   0  0  0  0  0  0
    9.0595   49.8779   15.8735 H   0  0  0  0  0  0
   10.1709   50.9863   15.1012 H   0  0  0  0  0  0
    8.4998   51.9701   13.7843 H   0  0  0  0  0  0
    7.6607   50.4592   14.0491 H   0  0  0  0  0  0
    6.9514   53.1237   15.0099 H   0  0  0  0  0  0
    6.0286   51.6237   15.3456 H   0  0  0  0  0  0
    8.5164   55.2992   22.4278 H   0  0  0  0  0  0
    6.5471   54.7078   28.9867 H   0  0  0  0  0  0
    7.0718   51.3137   17.3067 H   0  0  0  0  0  0
  1  6  2  0  0  0
  1  2  1  0  0  0
  1 37  1  0  0  0
  2  3  2  0  0  0
  2 38  1  0  0  0
  3  4  1  0  0  0
  3 39  1  0  0  0
  4  5  2  0  0  0
  4 36  1  0  0  0
  5  6  1  0  0  0
  5  7  1  0  0  0
  6 40  1  0  0  0
  7 30  2  0  0  0
  7  8  1  0  0  0
  8  9  2  0  0  0
  8 41  1  0  0  0
  9 17  1  0  0  0
  9 10  1  0  0  0
 10 11  1  0  0  0
 10 29  2  0  0  0
 11 16  2  0  0  0
 11 12  1  0  0  0
 12 13  2  0  0  0
 12 42  1  0  0  0
 13 14  1  0  0  0
 13 28  1  0  0  0
 14 15  2  0  0  0
 14 19  1  0  0  0
 15 16  1  0  0  0
 15 43  1  0  0  0
 16 17  1  0  0  0
 17 18  1  0  0  0
 19 20  1  0  0  0
 20 21  1  0  0  0
 20 44  1  0  0  0
 20 45  1  0  0  0
 21 22  1  0  0  0
 21 46  1  0  0  0
 21 47  1  0  0  0
 22 23  1  0  0  0
 22 48  1  0  0  0
 22 49  1  0  0  0
 23 27  1  0  0  0
 23 24  1  0  0  0
 23 60  1  0  0  0
 24 25  1  0  0  0
 24 50  1  0  0  0
 24 51  1  0  0  0
 25 26  1  0  0  0
 25 52  1  0  0  0
 25 53  1  0  0  0
 26 27  1  0  0  0
 26 54  1  0  0  0
 26 55  1  0  0  0
 27 56  1  0  0  0
 27 57  1  0  0  0
 28 58  1  0  0  0
 29 34  1  0  0  0
 29 30  1  0  0  0
 30 31  1  0  0  0
 31 32  2  0  0  0
 31 33  1  0  0  0
 33 34  1  0  0  0
 33 59  1  0  0  0
 34 35  2  0  0  0
M  CHG  1  23   1
M  END
> <i_i_glide_confnum>
71

> <i_i_glide_lignum>
39

> <i_i_glide_posenum>
319

> <i_i_glide_rotatable_bonds>
7

> <i_m_Source_File_Index>
89

> <b_m_subgroup_collapsed>
0

> <r_i_docking_score>
-11.2362

> <r_i_glide_ecoul>
-16.4814

> <r_i_glide_eff_state_penalty>
0

> <r_i_glide_einternal>
2.93124

> <r_i_glide_emodel>
-121.866

> <r_i_glide_energy>
-69.8637

> <r_i_glide_erotb>
0.295552

> <r_i_glide_esite>
-0.0496123

> <r_i_glide_evdw>
-53.3824

> <r_i_glide_gscore>
-11.2362

> <r_i_glide_hbond>
-0.758753

> <r_i_glide_ligand_efficiency>
-0.321033

> <r_i_glide_ligand_efficiency_ln>
-2.46659

> <r_i_glide_ligand_efficiency_sa>
-1.05012

> <r_i_glide_lipo>
-3.82657

> <r_i_glide_metal>
0

> <r_i_glide_rewards>
-1.75545

> <s_i_glide_gridfile>
wee1_glide-grid

> <s_m_Source_File>
wee1_actives_glide_SP.sdf

> <s_m_Source_Path>
/Users/zhangxujun/Desktop

> <s_m_entry_id>
227

> <s_m_entry_name>
wee1_actives_glide_SP.89

> <s_m_subgroup_title>
wee1_actives_glide_SP

> <s_m_subgroupid>
wee1_actives_glide_SP


$$$$
