@<TRIPOS>MOLECULE
CHEMBL213422_81
35   39    1
SMALL
USER_CHARGES


@<TRIPOS>ATOM
      1 C1          5.2828   54.5055   21.2440 C.ar      1 UNK         0.0000 
      2 C2          4.0000   54.0901   21.5954 C.ar      1 UNK         0.0000 
      3 C3          3.7107   53.9916   22.9582 C.ar      1 UNK         0.0000 
      4 C4          4.6752   54.2728   23.9660 C.ar      1 UNK         0.0000 
      5 C5          5.9641   54.6795   23.5661 C.ar      1 UNK         0.0000 
      6 C6          6.2388   54.8241   22.2032 C.ar      1 UNK         0.0000 
      7 O7          7.4583   55.2965   21.8001 O.3       1 UNK         0.0000 
      8 C8          4.0469   54.0540   25.2205 C.ar      1 UNK         0.0000 
      9 C9          2.7129   53.6389   24.9570 C.ar      1 UNK         0.0000 
     10 N10         2.5421   53.6318   23.5913 N.pl3     1 UNK         0.0000 
     11 H11         1.6884   53.3762   23.1196 H         1 UNK         0.0000 
     12 C12         1.8154   53.2954   25.9754 C.ar      1 UNK         0.0000 
     13 C13         2.2567   53.3667   27.3045 C.ar      1 UNK         0.0000 
     14 C14         3.5648   53.8050   27.5765 C.ar      1 UNK         0.0000 
     15 C15         4.4484   54.1278   26.5682 C.ar      1 UNK         0.0000 
     16 C16         5.7438   54.4995   27.2012 C.2       1 UNK         0.0000 
     17 O17         6.7973   54.8537   26.6774 O.2       1 UNK         0.0000 
     18 N18         5.5279   54.4111   28.5235 N.am      1 UNK         0.0000 
     19 C19         4.2945   53.9959   28.8662 C.2       1 UNK         0.0000 
     20 O20         3.9035   53.8340   30.0215 O.2       1 UNK         0.0000 
     21 C21         1.2671   52.9222   28.3408 C.ar      1 UNK         0.0000 
     22 C22         0.9312   53.5420   29.5586 C.ar      1 UNK         0.0000 
     23 C23        -0.0143   52.7650   30.2182 C.ar      1 UNK         0.0000 
     24 N24        -0.3124   51.6993   29.4117 N.pl3     1 UNK         0.0000 
     25 H25        -0.9748   50.9634   29.6229 H         1 UNK         0.0000 
     26 C26         0.4554   51.7845   28.2782 C.ar      1 UNK         0.0000 
     27 H27         5.5215   54.6146   20.1946 H         1 UNK         0.0000 
     28 H28         3.2657   53.8662   20.8371 H         1 UNK         0.0000 
     29 H29         6.7354   54.9114   24.2802 H         1 UNK         0.0000 
     30 H30         7.5727   55.2878   20.8474 H         1 UNK         0.0000 
     31 H31         0.8121   52.9670   25.7413 H         1 UNK         0.0000 
     32 H32         6.2369   54.6539   29.1985 H         1 UNK         0.0000 
     33 H33         1.3606   54.4630   29.9317 H         1 UNK         0.0000 
     34 H34        -0.4955   52.8745   31.1837 H         1 UNK         0.0000 
     35 H35         0.3698   51.0133   27.5246 H         1 UNK         0.0000 
@<TRIPOS>BOND
     1    1    6 ar   
     2    1    2 ar   
     3    1   27 1    
     4    2    3 ar   
     5    2   28 1    
     6    3   10 ar   
     7    3    4 ar   
     8    4    5 ar   
     9    4    8 ar   
    10    5    6 ar   
    11    5   29 1    
    12    6    7 1    
    13    7   30 1    
    14    8   15 ar   
    15    8    9 ar   
    16    9   10 ar   
    17    9   12 ar   
    18   10   11 1    
    19   12   13 ar   
    20   12   31 1    
    21   13   14 ar   
    22   13   21 1    
    23   14   19 1    
    24   14   15 ar   
    25   15   16 1    
    26   16   17 2    
    27   16   18 am   BACKBONE|DICT|INTERRES
    28   18   19 am   BACKBONE|DICT|INTERRES
    29   18   32 1    
    30   19   20 2    
    31   21   26 ar   
    32   21   22 ar   
    33   22   23 ar   
    34   22   33 1    
    35   23   24 ar   
    36   23   34 1    
    37   24   25 1    
    38   24   26 ar   
    39   26   35 1    
@<TRIPOS>SUBSTRUCTURE
     1 UNK         1 GROUP             0       ****    0 ROOT    
