@<TRIPOS>MOLECULE
CHEMBL507613_78
30   33    1
SMALL
USER_CHARGES


@<TRIPOS>ATOM
      1 C1          0.4339   52.6200   24.6396 C.3       1 UNK         0.0000 
      2 N2          1.6991   53.1863   25.0967 N.pl3     1 UNK         0.0000 
      3 C3          2.0548   53.3519   26.4280 C.ar      1 UNK         0.0000 
      4 C4          1.3437   53.0747   27.6049 C.ar      1 UNK         0.0000 
      5 C5          1.9800   53.3413   28.8174 C.ar      1 UNK         0.0000 
      6 C6          3.2707   53.8570   28.8687 C.ar      1 UNK         0.0000 
      7 C7          3.9800   54.1286   27.7023 C.ar      1 UNK         0.0000 
      8 C8          3.3749   53.8819   26.4582 C.ar      1 UNK         0.0000 
      9 C9          3.8100   54.0299   25.1230 C.ar      1 UNK         0.0000 
     10 C10         2.7301   53.6275   24.2763 C.ar      1 UNK         0.0000 
     11 C11         2.8302   53.6843   22.8736 C.ar      1 UNK         0.0000 
     12 C12         4.0455   54.0953   22.3242 C.ar      1 UNK         0.0000 
     13 C13         5.1110   54.4428   23.1483 C.ar      1 UNK         0.0000 
     14 C14         5.0166   54.4375   24.5155 C.ar      1 UNK         0.0000 
     15 C15         6.3355   54.8804   25.0528 C.2       1 UNK         0.0000 
     16 O16         6.7041   55.0347   26.2140 O.2       1 UNK         0.0000 
     17 N17         7.1044   55.0799   23.9687 N.am      1 UNK         0.0000 
     18 C18         6.4783   54.8967   22.7935 C.2       1 UNK         0.0000 
     19 O19         6.9581   55.0961   21.6812 O.2       1 UNK         0.0000 
     20 O20         3.8577   54.0966   30.0813 O.3       1 UNK         0.0000 
     21 H21         0.4488   52.4504   23.5608 H         1 UNK         0.0000 
     22 H22         0.2650   51.6618   25.1393 H         1 UNK         0.0000 
     23 H23        -0.3825   53.2969   24.8816 H         1 UNK         0.0000 
     24 H24         0.3408   52.6714   27.5865 H         1 UNK         0.0000 
     25 H25         1.4557   53.1412   29.7395 H         1 UNK         0.0000 
     26 H26         4.9792   54.5231   27.7710 H         1 UNK         0.0000 
     27 H27         2.0161   53.4007   22.2255 H         1 UNK         0.0000 
     28 H28         4.1506   54.1293   21.2490 H         1 UNK         0.0000 
     29 H29         8.0934   55.3144   24.0218 H         1 UNK         0.0000 
     30 H30         4.7596   54.4160   29.9971 H         1 UNK         0.0000 
@<TRIPOS>BOND
     1    1    2 1    
     2    1   21 1    
     3    1   22 1    
     4    1   23 1    
     5    2   10 ar   
     6    2    3 ar   
     7    3    8 ar   
     8    3    4 ar   
     9    4    5 ar   
    10    4   24 1    
    11    5    6 ar   
    12    5   25 1    
    13    6    7 ar   
    14    6   20 1    
    15    7    8 ar   
    16    7   26 1    
    17    8    9 ar   
    18    9   14 ar   
    19    9   10 ar   
    20   10   11 ar   
    21   11   12 ar   
    22   11   27 1    
    23   12   13 ar   
    24   12   28 1    
    25   13   18 1    
    26   13   14 ar   
    27   14   15 1    
    28   15   16 2    
    29   15   17 am   BACKBONE|DICT|INTERRES
    30   17   18 am   BACKBONE|DICT|INTERRES
    31   17   29 1    
    32   18   19 2    
    33   20   30 1    
@<TRIPOS>SUBSTRUCTURE
     1 UNK         1 GROUP             0       ****    0 ROOT    
