@<TRIPOS>MOLECULE
CHEMBL484808_112
37   40    1
SMALL
USER_CHARGES


@<TRIPOS>ATOM
      1 C1          5.5860   54.6616   21.1346 C.ar      1 UNK         0.0000 
      2 C2          4.3045   54.2344   21.4741 C.ar      1 UNK         0.0000 
      3 C3          4.0125   54.0739   22.8361 C.ar      1 UNK         0.0000 
      4 C4          4.9893   54.3146   23.8442 C.ar      1 UNK         0.0000 
      5 C5          6.2890   54.7082   23.4527 C.ar      1 UNK         0.0000 
      6 C6          6.5624   54.8970   22.0956 C.ar      1 UNK         0.0000 
      7 O7          7.8091   55.2976   21.6817 O.3       1 UNK         0.0000 
      8 C8          4.3596   54.0968   25.0951 C.ar      1 UNK         0.0000 
      9 C9          3.0125   53.6970   24.8360 C.ar      1 UNK         0.0000 
     10 N10         2.8322   53.6962   23.4614 N.pl3     1 UNK         0.0000 
     11 C11         1.5810   53.3714   22.7722 C.3       1 UNK         0.0000 
     12 C12         1.6228   52.0081   22.0324 C.3       1 UNK         0.0000 
     13 C13         1.6615   50.7751   22.9435 C.2       1 UNK         0.0000 
     14 O14         1.1045   50.7808   24.0368 O.2       1 UNK         0.0000 
     15 N15         2.3041   49.6971   22.4980 N.am      1 UNK         0.0000 
     16 C16         2.1103   53.3866   25.8705 C.ar      1 UNK         0.0000 
     17 C17         2.5599   53.5095   27.1846 C.ar      1 UNK         0.0000 
     18 C18         3.8646   53.9091   27.4444 C.ar      1 UNK         0.0000 
     19 C19         4.7619   54.1867   26.4447 C.ar      1 UNK         0.0000 
     20 C20         6.0417   54.5615   27.0995 C.2       1 UNK         0.0000 
     21 O21         7.1016   54.8964   26.5813 O.2       1 UNK         0.0000 
     22 N22         5.8009   54.4964   28.4237 N.am      1 UNK         0.0000 
     23 C23         4.5426   54.1371   28.7437 C.2       1 UNK         0.0000 
     24 O24         4.0711   54.0423   29.8754 O.2       1 UNK         0.0000 
     25 H25         5.8294   54.8071   20.0925 H         1 UNK         0.0000 
     26 H26         3.5640   54.0636   20.7057 H         1 UNK         0.0000 
     27 H27         7.0641   54.8943   24.1773 H         1 UNK         0.0000 
     28 H28         8.4665   55.2969   22.3902 H         1 UNK         0.0000 
     29 H29         0.7533   53.4054   23.4831 H         1 UNK         0.0000 
     30 H30         1.3857   54.1838   22.0816 H         1 UNK         0.0000 
     31 H31         0.7280   51.9172   21.4161 H         1 UNK         0.0000 
     32 H32         2.4627   51.9832   21.3368 H         1 UNK         0.0000 
     33 H33         2.7283   49.6786   21.5831 H         1 UNK         0.0000 
     34 H34         2.3706   48.8895   23.1070 H         1 UNK         0.0000 
     35 H35         1.0967   53.0688   25.6755 H         1 UNK         0.0000 
     36 H36         1.8798   53.2893   27.9961 H         1 UNK         0.0000 
     37 H37         6.4954   54.7536   29.1112 H         1 UNK         0.0000 
@<TRIPOS>BOND
     1    1    6 ar   
     2    1    2 ar   
     3    1   25 1    
     4    2    3 ar   
     5    2   26 1    
     6    3   10 ar   
     7    3    4 ar   
     8    4    5 ar   
     9    4    8 ar   
    10    5    6 ar   
    11    5   27 1    
    12    6    7 1    
    13    7   28 1    
    14    8   19 ar   
    15    8    9 ar   
    16    9   10 ar   
    17    9   16 ar   
    18   10   11 1    
    19   11   12 1    
    20   11   29 1    
    21   11   30 1    
    22   12   13 1    
    23   12   31 1    
    24   12   32 1    
    25   13   14 2    
    26   13   15 am   BACKBONE|DICT|INTERRES
    27   15   33 1    
    28   15   34 1    
    29   16   17 ar   
    30   16   35 1    
    31   17   18 ar   
    32   17   36 1    
    33   18   23 1    
    34   18   19 ar   
    35   19   20 1    
    36   20   21 2    
    37   20   22 am   BACKBONE|DICT|INTERRES
    38   22   23 am   BACKBONE|DICT|INTERRES
    39   22   37 1    
    40   23   24 2    
@<TRIPOS>SUBSTRUCTURE
     1 UNK         1 GROUP             0       ****    0 ROOT    
