@<TRIPOS>MOLECULE
CHEMBL214172_62
36   40    1
SMALL
USER_CHARGES


@<TRIPOS>ATOM
      1 C1          0.4877   53.8983   30.2197 C.ar      1 UNK         0.0000 
      2 C2          1.3453   54.2162   29.1652 C.ar      1 UNK         0.0000 
      3 C3          1.6237   53.2668   28.1712 C.ar      1 UNK         0.0000 
      4 C4          0.9794   52.0254   28.2706 C.ar      1 UNK         0.0000 
      5 N5          0.1336   51.7009   29.2812 N.ar      1 UNK         0.0000 
      6 C6         -0.0919   52.6286   30.2434 C.ar      1 UNK         0.0000 
      7 C7          2.5574   53.5550   27.0482 C.ar      1 UNK         0.0000 
      8 C8          2.0808   53.4176   25.7357 C.ar      1 UNK         0.0000 
      9 C9          2.9556   53.6969   24.6765 C.ar      1 UNK         0.0000 
     10 C10         4.3040   54.0976   24.8826 C.ar      1 UNK         0.0000 
     11 C11         4.8859   54.3048   23.6048 C.ar      1 UNK         0.0000 
     12 C12         6.1491   54.7380   23.1554 C.ar      1 UNK         0.0000 
     13 C13         6.3604   54.8967   21.7857 C.ar      1 UNK         0.0000 
     14 C14         5.3756   54.5614   20.8623 C.ar      1 UNK         0.0000 
     15 C15         4.1253   54.0966   21.2621 C.ar      1 UNK         0.0000 
     16 C16         3.8882   54.0021   22.6361 C.ar      1 UNK         0.0000 
     17 N17         2.7452   53.6419   23.3156 N.pl3     1 UNK         0.0000 
     18 H18         1.8769   53.3805   22.8715 H         1 UNK         0.0000 
     19 O19         7.5576   55.3815   21.3343 O.3       1 UNK         0.0000 
     20 C20         4.7522   54.2037   26.2139 C.ar      1 UNK         0.0000 
     21 C21         3.8919   53.9395   27.2559 C.ar      1 UNK         0.0000 
     22 C22         4.6712   54.1322   28.5160 C.2       1 UNK         0.0000 
     23 O23         4.3043   54.0128   29.6832 O.2       1 UNK         0.0000 
     24 N24         5.9043   54.4969   28.1265 N.am      1 UNK         0.0000 
     25 C25         6.0687   54.5717   26.7967 C.2       1 UNK         0.0000 
     26 O26         7.1044   54.8966   26.2257 O.2       1 UNK         0.0000 
     27 H27         0.2833   54.6141   31.0021 H         1 UNK         0.0000 
     28 H28         1.8069   55.1930   29.1319 H         1 UNK         0.0000 
     29 H29         1.1433   51.2492   27.5363 H         1 UNK         0.0000 
     30 H30        -0.7518   52.3334   31.0488 H         1 UNK         0.0000 
     31 H31         1.0589   53.1166   25.5508 H         1 UNK         0.0000 
     32 H32         6.9429   54.9920   23.8393 H         1 UNK         0.0000 
     33 H33         5.5691   54.6726   19.8054 H         1 UNK         0.0000 
     34 H34         3.3648   53.8558   20.5320 H         1 UNK         0.0000 
     35 H35         7.6547   55.3144   20.3821 H         1 UNK         0.0000 
     36 H36         6.6365   54.7373   28.7810 H         1 UNK         0.0000 
@<TRIPOS>BOND
     1    1    6 ar   
     2    1    2 ar   
     3    1   27 1    
     4    2    3 ar   
     5    2   28 1    
     6    3    4 ar   
     7    3    7 1    
     8    4    5 ar   
     9    4   29 1    
    10    5    6 ar   
    11    6   30 1    
    12    7   21 ar   
    13    7    8 ar   
    14    8    9 ar   
    15    8   31 1    
    16    9   17 ar   
    17    9   10 ar   
    18   10   11 ar   
    19   10   20 ar   
    20   11   16 ar   
    21   11   12 ar   
    22   12   13 ar   
    23   12   32 1    
    24   13   14 ar   
    25   13   19 1    
    26   14   15 ar   
    27   14   33 1    
    28   15   16 ar   
    29   15   34 1    
    30   16   17 ar   
    31   17   18 1    
    32   19   35 1    
    33   20   25 1    
    34   20   21 ar   
    35   21   22 1    
    36   22   23 2    
    37   22   24 am   BACKBONE|DICT|INTERRES
    38   24   25 am   BACKBONE|DICT|INTERRES
    39   24   36 1    
    40   25   26 2    
@<TRIPOS>SUBSTRUCTURE
     1 UNK         1 GROUP             0       ****    0 ROOT    
