@<TRIPOS>MOLECULE
CHEMBL510668_116
60   65    1
SMALL
USER_CHARGES


@<TRIPOS>ATOM
      1 C1         -0.1112   52.7889   30.4394 C.ar      1 UNK         0.0000 
      2 C2          0.5148   54.0280   30.3584 C.ar      1 UNK         0.0000 
      3 C3          1.3471   54.3014   29.2775 C.ar      1 UNK         0.0000 
      4 C4          1.5872   53.3280   28.2993 C.ar      1 UNK         0.0000 
      5 C5          0.9098   52.1063   28.3714 C.ar      1 UNK         0.0000 
      6 C6          0.0506   51.8422   29.4326 C.ar      1 UNK         0.0000 
      7 C7          2.5549   53.5797   27.1978 C.ar      1 UNK         0.0000 
      8 C8          2.1190   53.4456   25.8734 C.ar      1 UNK         0.0000 
      9 C9          3.0208   53.7315   24.8337 C.ar      1 UNK         0.0000 
     10 C10         4.3695   54.0970   25.0848 C.ar      1 UNK         0.0000 
     11 C11         4.9991   54.3066   23.8314 C.ar      1 UNK         0.0000 
     12 C12         6.3046   54.6765   23.4371 C.ar      1 UNK         0.0000 
     13 C13         6.5739   54.8964   22.0866 C.ar      1 UNK         0.0000 
     14 C14         5.5856   54.7098   21.1279 C.ar      1 UNK         0.0000 
     15 C15         4.2975   54.3024   21.4672 C.ar      1 UNK         0.0000 
     16 C16         4.0106   54.1101   22.8264 C.ar      1 UNK         0.0000 
     17 N17         2.8279   53.7535   23.4625 N.pl3     1 UNK         0.0000 
     18 C18         1.5558   53.4484   22.8120 C.3       1 UNK         0.0000 
     19 C19         1.4104   51.9429   22.4849 C.3       1 UNK         0.0000 
     20 C20         2.3155   51.3997   21.3555 C.3       1 UNK         0.0000 
     21 N21         2.0410   52.0966   19.9976 N.4       1 UNK         0.0000 
     22 C22         0.6147   51.8355   19.4602 C.3       1 UNK         0.0000 
     23 C23         0.4599   52.5250   18.0900 C.3       1 UNK         0.0000 
     24 O24         1.4707   52.0997   17.1817 O.3       1 UNK         0.0000 
     25 C25         2.8128   52.3322   17.6040 C.3       1 UNK         0.0000 
     26 C26         3.1042   51.6603   18.9587 C.3       1 UNK         0.0000 
     27 O27         7.8236   55.2968   21.6825 O.3       1 UNK         0.0000 
     28 C28         4.7762   54.1869   26.4282 C.ar      1 UNK         0.0000 
     29 C29         3.8869   53.9420   27.4455 C.ar      1 UNK         0.0000 
     30 C30         4.6295   54.1416   28.7273 C.2       1 UNK         0.0000 
     31 O31         4.2251   54.0375   29.8826 O.2       1 UNK         0.0000 
     32 N32         5.8770   54.4909   28.3723 N.am      1 UNK         0.0000 
     33 C33         6.0687   54.5602   27.0470 C.2       1 UNK         0.0000 
     34 O34         7.1043   54.8974   26.4951 O.2       1 UNK         0.0000 
     35 H35        -0.7517   52.5637   31.2805 H         1 UNK         0.0000 
     36 H36         0.3599   54.7667   31.1312 H         1 UNK         0.0000 
     37 H37         1.8409   55.2601   29.2220 H         1 UNK         0.0000 
     38 H38         1.0629   51.3482   27.6166 H         1 UNK         0.0000 
     39 H39        -0.4705   50.8970   29.4907 H         1 UNK         0.0000 
     40 H40         1.0961   53.1679   25.6695 H         1 UNK         0.0000 
     41 H41         7.0919   54.8263   24.1541 H         1 UNK         0.0000 
     42 H42         5.8235   54.8910   20.0892 H         1 UNK         0.0000 
     43 H43         3.5470   54.1942   20.7013 H         1 UNK         0.0000 
     44 H44         1.4670   54.0842   21.9375 H         1 UNK         0.0000 
     45 H45         0.7465   53.7732   23.4682 H         1 UNK         0.0000 
     46 H46         0.3664   51.7208   22.2663 H         1 UNK         0.0000 
     47 H47         1.6160   51.3684   23.3897 H         1 UNK         0.0000 
     48 H48         2.1671   50.3307   21.1856 H         1 UNK         0.0000 
     49 H49         3.3703   51.5703   21.5804 H         1 UNK         0.0000 
     50 H50        -0.0897   52.2724   20.1686 H         1 UNK         0.0000 
     51 H51         0.4710   50.7543   19.4022 H         1 UNK         0.0000 
     52 H52        -0.5152   52.3016   17.6561 H         1 UNK         0.0000 
     53 H53         0.5121   53.6089   18.2140 H         1 UNK         0.0000 
     54 H54         3.4969   51.9437   16.8470 H         1 UNK         0.0000 
     55 H55         2.9918   53.4066   17.6826 H         1 UNK         0.0000 
     56 H56         3.0970   50.5704   18.8817 H         1 UNK         0.0000 
     57 H57         4.0764   51.9878   19.3306 H         1 UNK         0.0000 
     58 H58         8.4788   55.2975   22.3948 H         1 UNK         0.0000 
     59 H59         6.5954   54.7402   29.0392 H         1 UNK         0.0000 
     60 H60         2.1317   53.0999   20.1105 H         1 UNK         0.0000 
@<TRIPOS>BOND
     1    1    6 ar   
     2    1    2 ar   
     3    1   35 1    
     4    2    3 ar   
     5    2   36 1    
     6    3    4 ar   
     7    3   37 1    
     8    4    5 ar   
     9    4    7 1    
    10    5    6 ar   
    11    5   38 1    
    12    6   39 1    
    13    7   29 ar   
    14    7    8 ar   
    15    8    9 ar   
    16    8   40 1    
    17    9   17 ar   
    18    9   10 ar   
    19   10   11 ar   
    20   10   28 ar   
    21   11   16 ar   
    22   11   12 ar   
    23   12   13 ar   
    24   12   41 1    
    25   13   14 ar   
    26   13   27 1    
    27   14   15 ar   
    28   14   42 1    
    29   15   16 ar   
    30   15   43 1    
    31   16   17 ar   
    32   17   18 1    
    33   18   19 1    
    34   18   44 1    
    35   18   45 1    
    36   19   20 1    
    37   19   46 1    
    38   19   47 1    
    39   20   21 1    
    40   20   48 1    
    41   20   49 1    
    42   21   26 1    
    43   21   22 1    
    44   21   60 1    
    45   22   23 1    
    46   22   50 1    
    47   22   51 1    
    48   23   24 1    
    49   23   52 1    
    50   23   53 1    
    51   24   25 1    
    52   25   26 1    
    53   25   54 1    
    54   25   55 1    
    55   26   56 1    
    56   26   57 1    
    57   27   58 1    
    58   28   33 1    
    59   28   29 ar   
    60   29   30 1    
    61   30   31 2    
    62   30   32 am   BACKBONE|DICT|INTERRES
    63   32   33 am   BACKBONE|DICT|INTERRES
    64   32   59 1    
    65   33   34 2    
@<TRIPOS>SUBSTRUCTURE
     1 UNK         1 GROUP             0       ****    0 ROOT    
