@<TRIPOS>MOLECULE
CHEMBL270866_27
64   69    1
SMALL
USER_CHARGES


@<TRIPOS>ATOM
      1 C1          1.4395   53.7206   22.9790 C.3       1 UNK         0.0000 
      2 N2          2.7384   53.9490   23.5943 N.pl3     1 UNK         0.0000 
      3 C3          2.9615   53.9175   24.9523 C.ar      1 UNK         0.0000 
      4 C4          2.0640   53.6652   25.9969 C.ar      1 UNK         0.0000 
      5 C5          2.5302   53.7418   27.3109 C.ar      1 UNK         0.0000 
      6 C6          3.8777   54.0410   27.5437 C.ar      1 UNK         0.0000 
      7 C7          4.7594   54.2714   26.5174 C.ar      1 UNK         0.0000 
      8 C8          4.3318   54.2173   25.1792 C.ar      1 UNK         0.0000 
      9 C9          4.9451   54.4047   23.9132 C.ar      1 UNK         0.0000 
     10 C10         3.9134   54.2801   22.9450 C.ar      1 UNK         0.0000 
     11 C11         4.1525   54.4960   21.5905 C.ar      1 UNK         0.0000 
     12 C12         5.4560   54.7581   21.1833 C.ar      1 UNK         0.0000 
     13 C13         6.4925   54.9053   22.1071 C.ar      1 UNK         0.0000 
     14 C14         6.2544   54.7109   23.4725 C.ar      1 UNK         0.0000 
     15 O15         7.7426   55.2959   21.6870 O.3       1 UNK         0.0000 
     16 S16         5.7338   54.9785   19.3891 S.3       1 UNK         0.0000 
     17 O17         4.4921   55.6969   18.8606 O.2       1 UNK         0.0000 
     18 C18         5.5734   53.2004   18.8480 C.3       1 UNK         0.0000 
     19 C19         4.1410   52.6144   18.9635 C.3       1 UNK         0.0000 
     20 C20         3.9681   51.6133   20.1297 C.3       1 UNK         0.0000 
     21 N21         2.5375   51.0384   20.1443 N.4       1 UNK         0.0000 
     22 C22         2.2211   50.2204   21.4086 C.3       1 UNK         0.0000 
     23 C23         0.9699   49.4362   21.0215 C.3       1 UNK         0.0000 
     24 C24         1.0612   49.2022   19.5111 C.3       1 UNK         0.0000 
     25 C25         2.2306   50.0494   19.0008 C.3       1 UNK         0.0000 
     26 C26         6.0710   54.5845   27.1221 C.2       1 UNK         0.0000 
     27 O27         7.1044   54.8968   26.5536 O.2       1 UNK         0.0000 
     28 N28         5.8954   54.4963   28.4511 N.am      1 UNK         0.0000 
     29 C29         4.6406   54.1785   28.8179 C.2       1 UNK         0.0000 
     30 O30         4.2367   54.0629   29.9726 O.2       1 UNK         0.0000 
     31 C31         1.5710   53.4698   28.4092 C.ar      1 UNK         0.0000 
     32 C32         0.9973   52.1957   28.4859 C.ar      1 UNK         0.0000 
     33 C33         0.1070   51.8778   29.5031 C.ar      1 UNK         0.0000 
     34 C34        -0.1857   52.8174   30.4829 C.ar      1 UNK         0.0000 
     35 C35         0.3514   54.1002   30.4103 C.ar      1 UNK         0.0000 
     36 C36         1.2058   54.4417   29.3624 C.ar      1 UNK         0.0000 
     37 Cl37        1.7584   56.0824   29.2589 Cl        1 UNK         0.0000 
     38 H38         1.0375   52.7681   23.3229 H         1 UNK         0.0000 
     39 H39         0.7622   54.5184   23.2819 H         1 UNK         0.0000 
     40 H40         1.5143   53.6956   21.8938 H         1 UNK         0.0000 
     41 H41         1.0298   53.4250   25.7991 H         1 UNK         0.0000 
     42 H42         3.3562   54.4563   20.8680 H         1 UNK         0.0000 
     43 H43         7.0655   54.8329   24.1697 H         1 UNK         0.0000 
     44 H44         8.4029   55.3002   22.3937 H         1 UNK         0.0000 
     45 H45         6.3045   52.5756   19.3517 H         1 UNK         0.0000 
     46 H46         5.8774   53.1805   17.8009 H         1 UNK         0.0000 
     47 H47         3.9183   52.0964   18.0309 H         1 UNK         0.0000 
     48 H48         3.3909   53.4027   18.9956 H         1 UNK         0.0000 
     49 H49         4.1031   52.0569   21.1103 H         1 UNK         0.0000 
     50 H50         4.6449   50.7628   20.0820 H         1 UNK         0.0000 
     51 H51         2.1120   50.8972   22.2565 H         1 UNK         0.0000 
     52 H52         3.0881   49.5784   21.5888 H         1 UNK         0.0000 
     53 H53         0.0766   50.0121   21.2705 H         1 UNK         0.0000 
     54 H54         0.9048   48.4970   21.5721 H         1 UNK         0.0000 
     55 H55         1.2404   48.1489   19.2847 H         1 UNK         0.0000 
     56 H56         0.1330   49.4811   19.0094 H         1 UNK         0.0000 
     57 H57         3.1258   49.4393   18.8738 H         1 UNK         0.0000 
     58 H58         2.0555   50.6022   18.0760 H         1 UNK         0.0000 
     59 H59         6.6271   54.7235   29.1114 H         1 UNK         0.0000 
     60 H60         1.2437   51.4390   27.7553 H         1 UNK         0.0000 
     61 H61        -0.3438   50.8967   29.5456 H         1 UNK         0.0000 
     62 H62        -0.8640   52.5556   31.2816 H         1 UNK         0.0000 
     63 H63         0.0885   54.8351   31.1572 H         1 UNK         0.0000 
     64 H64         1.8950   51.8175   20.0856 H         1 UNK         0.0000 
@<TRIPOS>BOND
     1    1    2 1    
     2    1   38 1    
     3    1   39 1    
     4    1   40 1    
     5    2   10 ar   
     6    2    3 ar   
     7    3    8 ar   
     8    3    4 ar   
     9    4    5 ar   
    10    4   41 1    
    11    5    6 ar   
    12    5   31 1    
    13    6   29 1    
    14    6    7 ar   
    15    7    8 ar   
    16    7   26 1    
    17    8    9 ar   
    18    9   14 ar   
    19    9   10 ar   
    20   10   11 ar   
    21   11   12 ar   
    22   11   42 1    
    23   12   13 ar   
    24   12   16 1    
    25   13   14 ar   
    26   13   15 1    
    27   14   43 1    
    28   15   44 1    
    29   16   17 2    
    30   16   18 1    
    31   18   19 1    
    32   18   45 1    
    33   18   46 1    
    34   19   20 1    
    35   19   47 1    
    36   19   48 1    
    37   20   21 1    
    38   20   49 1    
    39   20   50 1    
    40   21   25 1    
    41   21   22 1    
    42   21   64 1    
    43   22   23 1    
    44   22   51 1    
    45   22   52 1    
    46   23   24 1    
    47   23   53 1    
    48   23   54 1    
    49   24   25 1    
    50   24   55 1    
    51   24   56 1    
    52   25   57 1    
    53   25   58 1    
    54   26   27 2    
    55   26   28 am   BACKBONE|DICT|INTERRES
    56   28   29 am   BACKBONE|DICT|INTERRES
    57   28   59 1    
    58   29   30 2    
    59   31   36 ar   
    60   31   32 ar   
    61   32   33 ar   
    62   32   60 1    
    63   33   34 ar   
    64   33   61 1    
    65   34   35 ar   
    66   34   62 1    
    67   35   36 ar   
    68   35   63 1    
    69   36   37 1    
@<TRIPOS>SUBSTRUCTURE
     1 UNK         1 GROUP             0       ****    0 ROOT    
