@<TRIPOS>MOLECULE
CHEMBL472689_74
58   63    1
SMALL
USER_CHARGES


@<TRIPOS>ATOM
      1 C1          1.4202   53.3616   23.0250 C.3       1 UNK         0.0000 
      2 N2          2.6972   53.6841   23.6426 N.pl3     1 UNK         0.0000 
      3 C3          2.9034   53.7438   25.0121 C.ar      1 UNK         0.0000 
      4 C4          2.0109   53.5283   26.0755 C.ar      1 UNK         0.0000 
      5 C5          2.4785   53.7016   27.3850 C.ar      1 UNK         0.0000 
      6 C6          3.8327   54.0049   27.5954 C.ar      1 UNK         0.0000 
      7 C7          4.7139   54.1961   26.5588 C.ar      1 UNK         0.0000 
      8 C8          4.2637   54.0968   25.2276 C.ar      1 UNK         0.0000 
      9 C9          4.8553   54.2861   23.9578 C.ar      1 UNK         0.0000 
     10 C10         3.8664   54.0208   22.9752 C.ar      1 UNK         0.0000 
     11 C11         4.1395   54.1291   21.6038 C.ar      1 UNK         0.0000 
     12 C12         5.4083   54.5844   21.2132 C.ar      1 UNK         0.0000 
     13 C13         6.3868   54.8659   22.1819 C.ar      1 UNK         0.0000 
     14 C14         6.1349   54.6811   23.5382 C.ar      1 UNK         0.0000 
     15 O15         7.6422   55.3004   21.8389 O.3       1 UNK         0.0000 
     16 C16         5.6980   54.7874   19.7433 C.2       1 UNK         0.0000 
     17 O17         6.2821   55.7962   19.3462 O.2       1 UNK         0.0000 
     18 N18         5.3083   53.7902   18.9292 N.am      1 UNK         0.0000 
     19 C19         5.5759   53.7421   17.4926 C.3       1 UNK         0.0000 
     20 C20         4.4719   54.3283   16.5866 C.3       1 UNK         0.0000 
     21 N21         4.3665   55.7816   16.6501 N.pl3     1 UNK         0.0000 
     22 C22         5.3755   56.6943   16.4383 C.ar      1 UNK         0.0000 
     23 C23         4.8657   57.9781   16.5680 C.ar      1 UNK         0.0000 
     24 C24         3.5040   57.8507   16.8415 C.ar      1 UNK         0.0000 
     25 C25         3.2146   56.4953   16.8819 C.ar      1 UNK         0.0000 
     26 C26         6.0442   54.5075   27.1503 C.2       1 UNK         0.0000 
     27 O27         7.1044   54.7624   26.5892 O.2       1 UNK         0.0000 
     28 N28         5.8586   54.4823   28.4797 N.am      1 UNK         0.0000 
     29 C29         4.6052   54.1822   28.8609 C.2       1 UNK         0.0000 
     30 O30         4.2113   54.0967   30.0230 O.2       1 UNK         0.0000 
     31 C31         1.5289   53.5458   28.5224 C.ar      1 UNK         0.0000 
     32 C32         0.9107   52.3058   28.7375 C.ar      1 UNK         0.0000 
     33 C33         0.0874   52.1002   29.8441 C.ar      1 UNK         0.0000 
     34 C34        -0.0952   53.1209   30.7724 C.ar      1 UNK         0.0000 
     35 C35         0.4628   54.3755   30.5424 C.ar      1 UNK         0.0000 
     36 C36         1.2452   54.6032   29.4106 C.ar      1 UNK         0.0000 
     37 Cl37        1.8340   56.2120   29.1452 Cl        1 UNK         0.0000 
     38 H38         0.7025   54.1413   23.2819 H         1 UNK         0.0000 
     39 H39         1.5092   53.2995   21.9407 H         1 UNK         0.0000 
     40 H40         1.0649   52.4034   23.4061 H         1 UNK         0.0000 
     41 H41         0.9771   53.2726   25.8948 H         1 UNK         0.0000 
     42 H42         3.3741   53.9352   20.8650 H         1 UNK         0.0000 
     43 H43         6.9151   54.8968   24.2472 H         1 UNK         0.0000 
     44 H44         8.2604   55.3064   22.5808 H         1 UNK         0.0000 
     45 H45         4.8833   52.9706   19.3351 H         1 UNK         0.0000 
     46 H46         5.5781   52.6707   17.2807 H         1 UNK         0.0000 
     47 H47         6.5863   54.0114   17.1769 H         1 UNK         0.0000 
     48 H48         3.5109   53.8377   16.7484 H         1 UNK         0.0000 
     49 H49         4.7091   54.0819   15.5516 H         1 UNK         0.0000 
     50 H50         6.3784   56.3551   16.2314 H         1 UNK         0.0000 
     51 H51         5.4088   58.9098   16.4776 H         1 UNK         0.0000 
     52 H52         2.8094   58.6658   16.9944 H         1 UNK         0.0000 
     53 H53         2.2848   55.9781   17.0668 H         1 UNK         0.0000 
     54 H54         6.5942   54.7160   29.1331 H         1 UNK         0.0000 
     55 H55         1.0820   51.4859   28.0533 H         1 UNK         0.0000 
     56 H56        -0.3999   51.1479   29.9935 H         1 UNK         0.0000 
     57 H57        -0.6803   52.9459   31.6647 H         1 UNK         0.0000 
     58 H58         0.2873   55.1760   31.2463 H         1 UNK         0.0000 
@<TRIPOS>BOND
     1    1    2 1    
     2    1   38 1    
     3    1   39 1    
     4    1   40 1    
     5    2   10 ar   
     6    2    3 ar   
     7    3    8 ar   
     8    3    4 ar   
     9    4    5 ar   
    10    4   41 1    
    11    5    6 ar   
    12    5   31 1    
    13    6   29 1    
    14    6    7 ar   
    15    7    8 ar   
    16    7   26 1    
    17    8    9 ar   
    18    9   14 ar   
    19    9   10 ar   
    20   10   11 ar   
    21   11   12 ar   
    22   11   42 1    
    23   12   13 ar   
    24   12   16 1    
    25   13   14 ar   
    26   13   15 1    
    27   14   43 1    
    28   15   44 1    
    29   16   17 2    
    30   16   18 am   BACKBONE|DICT|INTERRES
    31   18   19 1    
    32   18   45 1    
    33   19   20 1    
    34   19   46 1    
    35   19   47 1    
    36   20   21 1    
    37   20   48 1    
    38   20   49 1    
    39   21   25 ar   
    40   21   22 ar   
    41   22   23 ar   
    42   22   50 1    
    43   23   24 ar   
    44   23   51 1    
    45   24   25 ar   
    46   24   52 1    
    47   25   53 1    
    48   26   27 2    
    49   26   28 am   BACKBONE|DICT|INTERRES
    50   28   29 am   BACKBONE|DICT|INTERRES
    51   28   54 1    
    52   29   30 2    
    53   31   36 ar   
    54   31   32 ar   
    55   32   33 ar   
    56   32   55 1    
    57   33   34 ar   
    58   33   56 1    
    59   34   35 ar   
    60   34   57 1    
    61   35   36 ar   
    62   35   58 1    
    63   36   37 1    
@<TRIPOS>SUBSTRUCTURE
     1 UNK         1 GROUP             0       ****    0 ROOT    
