@<TRIPOS>MOLECULE
CHEMBL471329_118
50   55    1
SMALL
USER_CHARGES


@<TRIPOS>ATOM
      1 C1          0.6028   54.2977   30.6473 C.ar      1 UNK         0.0000 
      2 C2         -0.0950   53.1052   30.7943 C.ar      1 UNK         0.0000 
      3 C3         -0.0526   52.1459   29.7874 C.ar      1 UNK         0.0000 
      4 C4          0.7438   52.3439   28.6620 C.ar      1 UNK         0.0000 
      5 C5          1.5313   53.5095   28.5399 C.ar      1 UNK         0.0000 
      6 C6          1.3996   54.5005   29.5241 C.ar      1 UNK         0.0000 
      7 C7          2.4809   53.7231   27.4043 C.ar      1 UNK         0.0000 
      8 C8          1.9905   53.6149   26.0998 C.ar      1 UNK         0.0000 
      9 C9          2.8706   53.8192   25.0296 C.ar      1 UNK         0.0000 
     10 C10         4.2381   54.1388   25.2236 C.ar      1 UNK         0.0000 
     11 C11         4.8141   54.3132   23.9437 C.ar      1 UNK         0.0000 
     12 C12         6.0933   54.6904   23.4955 C.ar      1 UNK         0.0000 
     13 C13         6.3166   54.8347   22.1289 C.ar      1 UNK         0.0000 
     14 C14         5.3235   54.5194   21.2071 C.ar      1 UNK         0.0000 
     15 C15         4.0553   54.0974   21.6043 C.ar      1 UNK         0.0000 
     16 C16         3.7992   54.0429   22.9802 C.ar      1 UNK         0.0000 
     17 N17         2.6266   53.7722   23.6697 N.pl3     1 UNK         0.0000 
     18 C18         1.3212   53.4758   23.0879 C.3       1 UNK         0.0000 
     19 C19         1.0212   51.9616   23.1045 C.3       1 UNK         0.0000 
     20 C20        -0.4323   51.6195   22.7101 C.3       1 UNK         0.0000 
     21 C21        -1.4916   52.1453   23.6750 C.ar      1 UNK         0.0000 
     22 N22        -1.4966   51.8712   24.9586 N.2       1 UNK         0.0000 
     23 N23        -2.6156   52.4965   25.4571 N.ar      1 UNK         0.0000 
     24 N24        -3.2448   53.1203   24.4111 N.ar      1 UNK         0.0000 
     25 N25        -2.4959   52.8912   23.2816 N.ar      1 UNK         0.0000 
     26 O26         7.5273   55.2969   21.6835 O.3       1 UNK         0.0000 
     27 C27         4.7083   54.2255   26.5484 C.ar      1 UNK         0.0000 
     28 C28         3.8419   54.0240   27.5994 C.ar      1 UNK         0.0000 
     29 C29         4.6456   54.1861   28.8488 C.2       1 UNK         0.0000 
     30 O30         4.2819   54.0965   30.0185 O.2       1 UNK         0.0000 
     31 N31         5.8947   54.4761   28.4459 N.am      1 UNK         0.0000 
     32 C32         6.0527   54.5200   27.1146 C.2       1 UNK         0.0000 
     33 O33         7.1044   54.7777   26.5358 O.2       1 UNK         0.0000 
     34 Cl34        0.7247   51.1041   27.4542 Cl        1 UNK         0.0000 
     35 H35         0.5466   55.0560   31.4152 H         1 UNK         0.0000 
     36 H36        -0.6808   52.9195   31.6813 H         1 UNK         0.0000 
     37 H37        -0.6346   51.2407   29.8873 H         1 UNK         0.0000 
     38 H38         1.9536   55.4262   29.4380 H         1 UNK         0.0000 
     39 H39         0.9529   53.3727   25.9222 H         1 UNK         0.0000 
     40 H40         6.8887   54.9284   24.1817 H         1 UNK         0.0000 
     41 H41         5.5340   54.6202   20.1514 H         1 UNK         0.0000 
     42 H42         3.2910   53.8872   20.8700 H         1 UNK         0.0000 
     43 H43         1.2711   53.8785   22.0810 H         1 UNK         0.0000 
     44 H44         0.5737   54.0257   23.6626 H         1 UNK         0.0000 
     45 H45         1.2245   51.5378   24.0908 H         1 UNK         0.0000 
     46 H46         1.7061   51.4554   22.4233 H         1 UNK         0.0000 
     47 H47        -0.5297   50.5358   22.6304 H         1 UNK         0.0000 
     48 H48        -0.6099   51.9901   21.6982 H         1 UNK         0.0000 
     49 H49         8.1925   55.3598   22.3811 H         1 UNK         0.0000 
     50 H50         6.6450   54.6938   29.0875 H         1 UNK         0.0000 
@<TRIPOS>BOND
     1    1    6 ar   
     2    1    2 ar   
     3    1   35 1    
     4    2    3 ar   
     5    2   36 1    
     6    3    4 ar   
     7    3   37 1    
     8    4    5 ar   
     9    4   34 1    
    10    5    6 ar   
    11    5    7 1    
    12    6   38 1    
    13    7   28 ar   
    14    7    8 ar   
    15    8    9 ar   
    16    8   39 1    
    17    9   17 ar   
    18    9   10 ar   
    19   10   11 ar   
    20   10   27 ar   
    21   11   16 ar   
    22   11   12 ar   
    23   12   13 ar   
    24   12   40 1    
    25   13   14 ar   
    26   13   26 1    
    27   14   15 ar   
    28   14   41 1    
    29   15   16 ar   
    30   15   42 1    
    31   16   17 ar   
    32   17   18 1    
    33   18   19 1    
    34   18   43 1    
    35   18   44 1    
    36   19   20 1    
    37   19   45 1    
    38   19   46 1    
    39   20   21 1    
    40   20   47 1    
    41   20   48 1    
    42   21   25 ar   
    43   21   22 ar   
    44   22   23 ar   
    45   23   24 ar   
    46   24   25 ar   
    47   26   49 1    
    48   27   32 1    
    49   27   28 ar   
    50   28   29 1    
    51   29   30 2    
    52   29   31 am   BACKBONE|DICT|INTERRES
    53   31   32 am   BACKBONE|DICT|INTERRES
    54   31   50 1    
    55   32   33 2    
@<TRIPOS>SUBSTRUCTURE
     1 UNK         1 GROUP             0       ****    0 ROOT    
