@<TRIPOS>MOLECULE
CHEMBL403679_23
63   68    1
SMALL
USER_CHARGES


@<TRIPOS>ATOM
      1 C1          0.1105   51.8410   29.2818 C.ar      1 UNK         0.0000 
      2 C2         -0.1882   52.8030   30.2403 C.ar      1 UNK         0.0000 
      3 C3          0.3074   54.0966   30.1044 C.ar      1 UNK         0.0000 
      4 C4          1.1401   54.4212   29.0308 C.ar      1 UNK         0.0000 
      5 C5          1.5189   53.4276   28.1044 C.ar      1 UNK         0.0000 
      6 C6          0.9700   52.1453   28.2311 C.ar      1 UNK         0.0000 
      7 C7          2.4979   53.6783   27.0121 C.ar      1 UNK         0.0000 
      8 C8          2.0821   53.5473   25.6780 C.ar      1 UNK         0.0000 
      9 C9          3.0175   53.7922   24.6629 C.ar      1 UNK         0.0000 
     10 C10         4.3654   54.1476   24.9446 C.ar      1 UNK         0.0000 
     11 C11         5.0192   54.3383   23.7036 C.ar      1 UNK         0.0000 
     12 C12         6.3222   54.7150   23.3400 C.ar      1 UNK         0.0000 
     13 C13         6.6339   54.8977   21.9960 C.ar      1 UNK         0.0000 
     14 C14         5.6791   54.6671   20.9929 C.ar      1 UNK         0.0000 
     15 C15         4.3865   54.2344   21.3201 C.ar      1 UNK         0.0000 
     16 C16         4.0709   54.0966   22.6767 C.ar      1 UNK         0.0000 
     17 N17         2.8822   53.7564   23.2888 N.pl3     1 UNK         0.0000 
     18 H18         2.0291   53.5346   22.7955 H         1 UNK         0.0000 
     19 C19         6.0260   54.8853   19.5187 C.3       1 UNK         0.0000 
     20 C20         5.4998   56.2296   18.9768 C.3       1 UNK         0.0000 
     21 C21         6.1319   56.6408   17.6327 C.3       1 UNK         0.0000 
     22 C22         5.4848   57.8914   16.9982 C.3       1 UNK         0.0000 
     23 N23         4.0345   57.5968   16.5316 N.4       1 UNK         0.0000 
     24 C24         4.0062   56.7023   15.2652 C.3       1 UNK         0.0000 
     25 C25         2.5538   56.5319   14.7812 C.3       1 UNK         0.0000 
     26 O26         1.9339   57.7962   14.5715 O.3       1 UNK         0.0000 
     27 C27         1.8642   58.6229   15.7292 C.3       1 UNK         0.0000 
     28 C28         3.2646   58.9210   16.3052 C.3       1 UNK         0.0000 
     29 O29         7.9041   55.3202   21.6817 O.3       1 UNK         0.0000 
     30 C30         4.7500   54.2403   26.2953 C.ar      1 UNK         0.0000 
     31 C31         3.8340   54.0017   27.2898 C.ar      1 UNK         0.0000 
     32 C32         4.5582   54.1477   28.5889 C.2       1 UNK         0.0000 
     33 O33         4.1316   54.0032   29.7322 O.2       1 UNK         0.0000 
     34 N34         5.8160   54.4946   28.2666 N.am      1 UNK         0.0000 
     35 C35         6.0409   54.5798   26.9472 C.2       1 UNK         0.0000 
     36 O36         7.1044   54.8961   26.4309 O.2       1 UNK         0.0000 
     37 Cl37        1.6665   56.0654   28.8816 Cl        1 UNK         0.0000 
     38 H38        -0.3181   50.8551   29.3625 H         1 UNK         0.0000 
     39 H39        -0.8288   52.5471   31.0734 H         1 UNK         0.0000 
     40 H40         0.0407   54.8503   30.8310 H         1 UNK         0.0000 
     41 H41         1.2249   51.3693   27.5237 H         1 UNK         0.0000 
     42 H42         1.0617   53.2788   25.4487 H         1 UNK         0.0000 
     43 H43         7.0795   54.9043   24.0808 H         1 UNK         0.0000 
     44 H44         3.6482   54.0571   20.5503 H         1 UNK         0.0000 
     45 H45         5.6209   54.0621   18.9276 H         1 UNK         0.0000 
     46 H46         7.1056   54.8264   19.3790 H         1 UNK         0.0000 
     47 H47         5.6999   57.0177   19.7053 H         1 UNK         0.0000 
     48 H48         4.4147   56.1690   18.8812 H         1 UNK         0.0000 
     49 H49         6.1149   55.8034   16.9364 H         1 UNK         0.0000 
     50 H50         7.1911   56.8486   17.7951 H         1 UNK         0.0000 
     51 H51         6.0243   58.2460   16.1173 H         1 UNK         0.0000 
     52 H52         5.4337   58.7152   17.7150 H         1 UNK         0.0000 
     53 H53         4.4184   55.7296   15.5369 H         1 UNK         0.0000 
     54 H54         4.6359   57.1742   14.5076 H         1 UNK         0.0000 
     55 H55         2.5252   55.9651   13.8496 H         1 UNK         0.0000 
     56 H56         1.9854   55.9582   15.5165 H         1 UNK         0.0000 
     57 H57         1.3553   59.5548   15.4778 H         1 UNK         0.0000 
     58 H58         1.2533   58.1230   16.4817 H         1 UNK         0.0000 
     59 H59         3.8589   59.5469   15.6350 H         1 UNK         0.0000 
     60 H60         3.1765   59.4124   17.2798 H         1 UNK         0.0000 
     61 H61         8.5145   55.2990   22.4330 H         1 UNK         0.0000 
     62 H62         6.5252   54.7148   28.9527 H         1 UNK         0.0000 
     63 H63         3.5415   57.1021   17.2625 H         1 UNK         0.0000 
@<TRIPOS>BOND
     1    1    6 ar   
     2    1    2 ar   
     3    1   38 1    
     4    2    3 ar   
     5    2   39 1    
     6    3    4 ar   
     7    3   40 1    
     8    4    5 ar   
     9    4   37 1    
    10    5    6 ar   
    11    5    7 1    
    12    6   41 1    
    13    7   31 ar   
    14    7    8 ar   
    15    8    9 ar   
    16    8   42 1    
    17    9   17 ar   
    18    9   10 ar   
    19   10   11 ar   
    20   10   30 ar   
    21   11   16 ar   
    22   11   12 ar   
    23   12   13 ar   
    24   12   43 1    
    25   13   14 ar   
    26   13   29 1    
    27   14   15 ar   
    28   14   19 1    
    29   15   16 ar   
    30   15   44 1    
    31   16   17 ar   
    32   17   18 1    
    33   19   20 1    
    34   19   45 1    
    35   19   46 1    
    36   20   21 1    
    37   20   47 1    
    38   20   48 1    
    39   21   22 1    
    40   21   49 1    
    41   21   50 1    
    42   22   23 1    
    43   22   51 1    
    44   22   52 1    
    45   23   28 1    
    46   23   24 1    
    47   23   63 1    
    48   24   25 1    
    49   24   53 1    
    50   24   54 1    
    51   25   26 1    
    52   25   55 1    
    53   25   56 1    
    54   26   27 1    
    55   27   28 1    
    56   27   57 1    
    57   27   58 1    
    58   28   59 1    
    59   28   60 1    
    60   29   61 1    
    61   30   35 1    
    62   30   31 ar   
    63   31   32 1    
    64   32   33 2    
    65   32   34 am   BACKBONE|DICT|INTERRES
    66   34   35 am   BACKBONE|DICT|INTERRES
    67   34   62 1    
    68   35   36 2    
@<TRIPOS>SUBSTRUCTURE
     1 UNK         1 GROUP             0       ****    0 ROOT    
