@<TRIPOS>MOLECULE
CHEMBL488899_13
50   55    1
SMALL
USER_CHARGES


@<TRIPOS>ATOM
      1 C1         -0.1516   52.7813   30.4649 C.ar      1 UNK         0.0000 
      2 C2          0.0299   51.8417   29.4566 C.ar      1 UNK         0.0000 
      3 C3          0.9088   52.1149   28.4157 C.ar      1 UNK         0.0000 
      4 C4          1.5857   53.3390   28.3654 C.ar      1 UNK         0.0000 
      5 C5          1.3380   54.3009   29.3533 C.ar      1 UNK         0.0000 
      6 C6          0.4826   54.0179   30.4132 C.ar      1 UNK         0.0000 
      7 C7          2.5493   53.6044   27.2652 C.ar      1 UNK         0.0000 
      8 C8          2.1024   53.4773   25.9449 C.ar      1 UNK         0.0000 
      9 C9          2.9970   53.7595   24.9007 C.ar      1 UNK         0.0000 
     10 C10         4.3503   54.1216   25.1390 C.ar      1 UNK         0.0000 
     11 C11         4.9679   54.3288   23.8786 C.ar      1 UNK         0.0000 
     12 C12         6.2643   54.7118   23.4662 C.ar      1 UNK         0.0000 
     13 C13         6.5212   54.8967   22.1066 C.ar      1 UNK         0.0000 
     14 C14         5.5334   54.6507   21.1588 C.ar      1 UNK         0.0000 
     15 C15         4.2549   54.2284   21.5171 C.ar      1 UNK         0.0000 
     16 C16         3.9768   54.0969   22.8844 C.ar      1 UNK         0.0000 
     17 N17         2.7920   53.7795   23.5335 N.pl3     1 UNK         0.0000 
     18 C18         1.5176   53.5112   22.8818 C.3       1 UNK         0.0000 
     19 C19         1.4514   52.0666   22.3549 C.3       1 UNK         0.0000 
     20 N20         0.1647   51.8430   21.7182 N.pl3     1 UNK         0.0000 
     21 C21        -1.0318   51.5623   22.3256 C.ar      1 UNK         0.0000 
     22 C22        -1.9565   51.4731   21.2958 C.ar      1 UNK         0.0000 
     23 N23        -1.4044   51.6967   20.1162 N.2       1 UNK         0.0000 
     24 C24        -0.1381   51.9172   20.3807 C.ar      1 UNK         0.0000 
     25 O25         7.7634   55.2968   21.6817 O.3       1 UNK         0.0000 
     26 C26         4.7676   54.2083   26.4800 C.ar      1 UNK         0.0000 
     27 C27         3.8833   53.9650   27.5033 C.ar      1 UNK         0.0000 
     28 C28         4.6329   54.1667   28.7801 C.2       1 UNK         0.0000 
     29 O29         4.2291   54.0803   29.9372 O.2       1 UNK         0.0000 
     30 N30         5.8830   54.4954   28.4162 N.am      1 UNK         0.0000 
     31 C31         6.0692   54.5670   27.0890 C.2       1 UNK         0.0000 
     32 O32         7.1044   54.8967   26.5305 O.2       1 UNK         0.0000 
     33 H33        -0.8184   52.5505   31.2817 H         1 UNK         0.0000 
     34 H34        -0.4945   50.8966   29.4957 H         1 UNK         0.0000 
     35 H35         1.0712   51.3652   27.6543 H         1 UNK         0.0000 
     36 H36         1.8335   55.2603   29.3163 H         1 UNK         0.0000 
     37 H37         0.3141   54.7490   31.1906 H         1 UNK         0.0000 
     38 H38         1.0780   53.1986   25.7476 H         1 UNK         0.0000 
     39 H39         7.0519   54.8970   24.1753 H         1 UNK         0.0000 
     40 H40         5.7644   54.7855   20.1122 H         1 UNK         0.0000 
     41 H41         3.5044   54.0545   20.7592 H         1 UNK         0.0000 
     42 H42         0.7072   53.7184   23.5809 H         1 UNK         0.0000 
     43 H43         1.4108   54.2343   22.0817 H         1 UNK         0.0000 
     44 H44         2.2363   51.8735   21.6214 H         1 UNK         0.0000 
     45 H45         1.5658   51.3374   23.1586 H         1 UNK         0.0000 
     46 H46        -1.1096   51.4479   23.3975 H         1 UNK         0.0000 
     47 H47        -3.0080   51.2483   21.3990 H         1 UNK         0.0000 
     48 H48         0.6367   52.1509   19.6640 H         1 UNK         0.0000 
     49 H49         8.4268   55.3032   22.3850 H         1 UNK         0.0000 
     50 H50         6.6058   54.7442   29.0787 H         1 UNK         0.0000 
@<TRIPOS>BOND
     1    1    6 ar   
     2    1    2 ar   
     3    1   33 1    
     4    2    3 ar   
     5    2   34 1    
     6    3    4 ar   
     7    3   35 1    
     8    4    5 ar   
     9    4    7 1    
    10    5    6 ar   
    11    5   36 1    
    12    6   37 1    
    13    7   27 ar   
    14    7    8 ar   
    15    8    9 ar   
    16    8   38 1    
    17    9   17 ar   
    18    9   10 ar   
    19   10   11 ar   
    20   10   26 ar   
    21   11   16 ar   
    22   11   12 ar   
    23   12   13 ar   
    24   12   39 1    
    25   13   14 ar   
    26   13   25 1    
    27   14   15 ar   
    28   14   40 1    
    29   15   16 ar   
    30   15   41 1    
    31   16   17 ar   
    32   17   18 1    
    33   18   19 1    
    34   18   42 1    
    35   18   43 1    
    36   19   20 1    
    37   19   44 1    
    38   19   45 1    
    39   20   24 ar   
    40   20   21 ar   
    41   21   22 ar   
    42   21   46 1    
    43   22   23 ar   
    44   22   47 1    
    45   23   24 ar   
    46   24   48 1    
    47   25   49 1    
    48   26   31 1    
    49   26   27 ar   
    50   27   28 1    
    51   28   29 2    
    52   28   30 am   BACKBONE|DICT|INTERRES
    53   30   31 am   BACKBONE|DICT|INTERRES
    54   30   50 1    
    55   31   32 2    
@<TRIPOS>SUBSTRUCTURE
     1 UNK         1 GROUP             0       ****    0 ROOT    
