@<TRIPOS>MOLECULE
CHEMBL181233_65
42   45    1
SMALL
USER_CHARGES


@<TRIPOS>ATOM
      1 C1          6.7863   54.2195   27.5437 C.3       1 UNK         0.0000 
      2 N2          5.3723   54.1840   27.1125 N.pl3     1 UNK         0.0000 
      3 C3          5.1121   54.2791   25.7127 C.ar      1 UNK         0.0000 
      4 C4          3.7884   54.1767   25.2643 C.ar      1 UNK         0.0000 
      5 C5          2.7275   54.0792   26.2675 C.ar      1 UNK         0.0000 
      6 C6          3.0209   54.0006   27.5846 C.ar      1 UNK         0.0000 
      7 C7          4.4080   54.0138   28.0795 C.ar      1 UNK         0.0000 
      8 O8          4.6600   53.8903   29.2817 O.2       1 UNK         0.0000 
      9 C9          1.9213   53.8562   28.5756 C.ar      1 UNK         0.0000 
     10 C10         1.5982   54.9138   29.4510 C.ar      1 UNK         0.0000 
     11 C11         0.6835   54.7171   30.4818 C.ar      1 UNK         0.0000 
     12 C12        -0.0030   53.5108   30.5897 C.ar      1 UNK         0.0000 
     13 C13         0.1944   52.5140   29.6454 C.ar      1 UNK         0.0000 
     14 C14         1.1915   52.6529   28.6751 C.ar      1 UNK         0.0000 
     15 Cl15        1.5045   51.3138   27.6206 Cl        1 UNK         0.0000 
     16 O16        -0.6265   51.4199   29.6818 O.3       1 UNK         0.0000 
     17 Cl17        2.3043   56.4848   29.2983 Cl        1 UNK         0.0000 
     18 C18         3.5733   54.1391   23.8887 C.ar      1 UNK         0.0000 
     19 N19         4.5905   54.2938   23.0068 N.ar      1 UNK         0.0000 
     20 C20         5.8340   54.5001   23.5188 C.ar      1 UNK         0.0000 
     21 N21         6.1454   54.4604   24.8390 N.ar      1 UNK         0.0000 
     22 N22         6.8848   54.8972   22.6812 N.pl3     1 UNK         0.0000 
     23 C23         6.9792   55.2970   21.3331 C.ar      1 UNK         0.0000 
     24 C24         8.2396   55.6966   20.8815 C.ar      1 UNK         0.0000 
     25 C25         8.4305   56.0936   19.5610 C.ar      1 UNK         0.0000 
     26 C26         7.3520   56.0971   18.6826 C.ar      1 UNK         0.0000 
     27 C27         6.0888   55.7025   19.1150 C.ar      1 UNK         0.0000 
     28 C28         5.9040   55.3009   20.4361 C.ar      1 UNK         0.0000 
     29 H29         7.3565   53.4392   27.0356 H         1 UNK         0.0000 
     30 H30         7.2291   55.1824   27.2879 H         1 UNK         0.0000 
     31 H31         6.9320   54.0778   28.6167 H         1 UNK         0.0000 
     32 H32         1.6951   54.0511   25.9487 H         1 UNK         0.0000 
     33 H33         0.4883   55.5100   31.1876 H         1 UNK         0.0000 
     34 H34        -0.7116   53.3394   31.3878 H         1 UNK         0.0000 
     35 H35        -0.4726   50.7707   28.9882 H         1 UNK         0.0000 
     36 H36         2.5836   54.0201   23.4709 H         1 UNK         0.0000 
     37 H37         7.7504   55.0043   23.1952 H         1 UNK         0.0000 
     38 H38         9.0867   55.6968   21.5527 H         1 UNK         0.0000 
     39 H39         9.4142   56.3906   19.2254 H         1 UNK         0.0000 
     40 H40         7.4944   56.4037   17.6566 H         1 UNK         0.0000 
     41 H41         5.2552   55.7034   18.4296 H         1 UNK         0.0000 
     42 H42         4.9134   54.9957   20.7265 H         1 UNK         0.0000 
@<TRIPOS>BOND
     1    1    2 1    
     2    1   29 1    
     3    1   30 1    
     4    1   31 1    
     5    2    7 ar   
     6    2    3 ar   
     7    3   21 ar   
     8    3    4 ar   
     9    4    5 ar   
    10    4   18 ar   
    11    5    6 ar   
    12    5   32 1    
    13    6    7 ar   
    14    6    9 1    
    15    7    8 2    
    16    9   14 ar   
    17    9   10 ar   
    18   10   11 ar   
    19   10   17 1    
    20   11   12 ar   
    21   11   33 1    
    22   12   13 ar   
    23   12   34 1    
    24   13   14 ar   
    25   13   16 1    
    26   14   15 1    
    27   16   35 1    
    28   18   19 ar   
    29   18   36 1    
    30   19   20 ar   
    31   20   21 ar   
    32   20   22 1    
    33   22   23 1    
    34   22   37 1    
    35   23   28 ar   
    36   23   24 ar   
    37   24   25 ar   
    38   24   38 1    
    39   25   26 ar   
    40   25   39 1    
    41   26   27 ar   
    42   26   40 1    
    43   27   28 ar   
    44   27   41 1    
    45   28   42 1    
@<TRIPOS>SUBSTRUCTURE
     1 UNK         1 GROUP             0       ****    0 ROOT    
