CHEMBL386398_24
                    3D
 Schrodinger Suite 2024-2.
 36 40  0  0  1  0            999 V2000
    0.0412   53.9732   30.0069 C   0  0  0  0  0  0
    0.4846   53.1768   31.0547 C   0  0  0  0  0  0
    1.6867   52.4938   30.9276 C   0  0  0  0  0  0
    2.4318   52.5782   29.7507 C   0  0  0  0  0  0
    2.0001   53.3966   28.6827 C   0  0  0  0  0  0
    0.7963   54.0954   28.8455 C   0  0  0  0  0  0
    2.7643   53.5730   27.4062 C   0  0  0  0  0  0
    2.1392   53.2977   26.1759 C   0  0  0  0  0  0
    2.8654   53.5325   24.9951 C   0  0  0  0  0  0
    4.1978   54.0060   24.9899 C   0  0  0  0  0  0
    4.5899   54.0966   23.6485 C   0  0  0  0  0  0
    5.7598   54.4973   22.9788 C   0  0  0  0  0  0
    5.7482   54.5525   21.5839 C   0  0  0  0  0  0
    4.6528   54.0961   20.8507 C   0  0  0  0  0  0
    3.5030   53.6280   21.4867 C   0  0  0  0  0  0
    3.4822   53.6742   22.8850 C   0  0  0  0  0  0
    2.4360   53.3267   23.7069 O   0  0  0  0  0  0
    6.8188   55.0945   20.9250 O   0  0  0  0  0  0
    4.8029   54.2505   26.2270 C   0  0  0  0  0  0
    4.0891   54.0508   27.3855 C   0  0  0  0  0  0
    4.9723   54.4969   28.4942 C   0  0  0  0  0  0
    4.7036   54.6109   29.6821 O   0  0  0  0  0  0
    6.1443   54.8184   27.9277 N   0  0  0  0  0  0
    6.1573   54.7369   26.5897 C   0  0  0  0  0  0
    7.0984   55.0373   25.8634 O   0  0  0  0  0  0
    3.8843   51.6472   29.6817 Cl  0  0  0  0  0  0
   -0.8953   54.4965   30.0823 H   0  0  0  0  0  0
   -0.0953   53.0757   31.9614 H   0  0  0  0  0  0
    2.0267   51.8832   31.7523 H   0  0  0  0  0  0
    0.4325   54.7467   28.0691 H   0  0  0  0  0  0
    1.1259   52.9230   26.1385 H   0  0  0  0  0  0
    6.6238   54.8404   23.5194 H   0  0  0  0  0  0
    4.6864   54.1260   19.7698 H   0  0  0  0  0  0
    2.6480   53.2917   20.9167 H   0  0  0  0  0  0
    7.5596   55.2972   21.4998 H   0  0  0  0  0  0
    6.9195   55.1830   28.4719 H   0  0  0  0  0  0
  1  6  2  0  0  0
  1  2  1  0  0  0
  1 27  1  0  0  0
  2  3  2  0  0  0
  2 28  1  0  0  0
  3  4  1  0  0  0
  3 29  1  0  0  0
  4  5  2  0  0  0
  4 26  1  0  0  0
  5  6  1  0  0  0
  5  7  1  0  0  0
  6 30  1  0  0  0
  7 20  2  0  0  0
  7  8  1  0  0  0
  8  9  2  0  0  0
  8 31  1  0  0  0
  9 17  1  0  0  0
  9 10  1  0  0  0
 10 11  1  0  0  0
 10 19  2  0  0  0
 11 16  2  0  0  0
 11 12  1  0  0  0
 12 13  2  0  0  0
 12 32  1  0  0  0
 13 14  1  0  0  0
 13 18  1  0  0  0
 14 15  2  0  0  0
 14 33  1  0  0  0
 15 16  1  0  0  0
 15 34  1  0  0  0
 16 17  1  0  0  0
 18 35  1  0  0  0
 19 24  1  0  0  0
 19 20  1  0  0  0
 20 21  1  0  0  0
 21 22  2  0  0  0
 21 23  1  0  0  0
 23 24  1  0  0  0
 23 36  1  0  0  0
 24 25  2  0  0  0
M  END
> <i_i_glide_confnum>
2

> <i_i_glide_lignum>
25

> <i_i_glide_posenum>
35

> <i_i_glide_rotatable_bonds>
2

> <i_m_Source_File_Index>
9

> <b_m_subgroup_collapsed>
0

> <r_i_docking_score>
-9.23242

> <r_i_glide_ecoul>
-9.03621

> <r_i_glide_eff_state_penalty>
0

> <r_i_glide_einternal>
0.73285

> <r_i_glide_emodel>
-80.213

> <r_i_glide_energy>
-48.7095

> <r_i_glide_erotb>
0.101666

> <r_i_glide_esite>
0

> <r_i_glide_evdw>
-39.6733

> <r_i_glide_gscore>
-9.23242

> <r_i_glide_hbond>
-0.608

> <r_i_glide_ligand_efficiency>
-0.355093

> <r_i_glide_ligand_efficiency_ln>
-2.1682

> <r_i_glide_ligand_efficiency_sa>
-1.05196

> <r_i_glide_lipo>
-2.81884

> <r_i_glide_metal>
0

> <r_i_glide_rewards>
-2.56815

> <s_i_glide_gridfile>
wee1_glide-grid

> <s_m_Source_File>
wee1_actives_glide_SP.sdf

> <s_m_Source_Path>
/Users/zhangxujun/Desktop

> <s_m_entry_id>
147

> <s_m_entry_name>
wee1_actives_glide_SP.9

> <s_m_subgroup_title>
wee1_actives_glide_SP

> <s_m_subgroupid>
wee1_actives_glide_SP


$$$$
