CHEMBL487757_8
                    3D
 Schrodinger Suite 2024-2.
 52 57  0  0  1  0            999 V2000
    0.1688   51.8817   29.4867 C   0  0  0  0  0  0
   -0.0960   52.8468   30.4508 C   0  0  0  0  0  0
    0.4095   54.1350   30.3102 C   0  0  0  0  0  0
    1.2178   54.4539   29.2190 C   0  0  0  0  0  0
    1.5679   53.4552   28.2879 C   0  0  0  0  0  0
    1.0120   52.1777   28.4227 C   0  0  0  0  0  0
    2.5246   53.6968   27.1795 C   0  0  0  0  0  0
    2.0776   53.5650   25.8603 C   0  0  0  0  0  0
    2.9883   53.8019   24.8184 C   0  0  0  0  0  0
    4.3399   54.1631   25.0667 C   0  0  0  0  0  0
    4.9671   54.3557   23.8141 C   0  0  0  0  0  0
    6.2662   54.7404   23.4245 C   0  0  0  0  0  0
    6.5521   54.8967   22.0719 C   0  0  0  0  0  0
    5.5877   54.6235   21.1061 C   0  0  0  0  0  0
    4.3049   54.1921   21.4426 C   0  0  0  0  0  0
    3.9962   54.0860   22.8073 C   0  0  0  0  0  0
    2.8121   53.7379   23.4458 N   0  0  0  0  0  0
    1.5694   53.3290   22.7935 C   0  0  0  0  0  0
    1.3363   51.8152   22.9921 C   0  0  0  0  0  0
    0.0319   51.1486   21.8009 S   0  0  0  0  0  0
   -1.0831   52.0967   21.6842 O   0  0  0  0  0  0
   -0.1907   49.7266   22.0813 O   0  0  0  0  0  0
    0.8952   51.2012   20.3211 N   0  0  0  0  0  0
    1.8172   50.2990   19.8574 C   0  0  0  0  0  0
    2.3044   50.8949   18.7072 C   0  0  0  0  0  0
    1.7167   52.0595   18.4989 N   0  0  0  0  0  0
    0.8193   52.2747   19.5297 N   0  0  0  0  0  0
    7.8053   55.2971   21.6817 O   0  0  0  0  0  0
    4.7553   54.2519   26.4091 C   0  0  0  0  0  0
    3.8650   54.0169   27.4250 C   0  0  0  0  0  0
    4.6150   54.1650   28.7082 C   0  0  0  0  0  0
    4.2071   54.0340   29.8600 O   0  0  0  0  0  0
    5.8678   54.4967   28.3554 N   0  0  0  0  0  0
    6.0589   54.5830   27.0299 C   0  0  0  0  0  0
    7.1044   54.8967   26.4825 O   0  0  0  0  0  0
    1.7475   56.0954   29.0463 Cl  0  0  0  0  0  0
   -0.2669   50.8969   29.5766 H   0  0  0  0  0  0
   -0.7376   52.5982   31.2817 H   0  0  0  0  0  0
    0.1618   54.8907   31.0415 H   0  0  0  0  0  0
    1.2437   51.4001   27.7082 H   0  0  0  0  0  0
    1.0500   53.2996   25.6600 H   0  0  0  0  0  0
    7.0366   54.9482   24.1445 H   0  0  0  0  0  0
    5.8434   54.7365   20.0623 H   0  0  0  0  0  0
    3.5790   53.9866   20.6676 H   0  0  0  0  0  0
    1.6322   53.5892   21.7383 H   0  0  0  0  0  0
    0.7485   53.9137   23.2107 H   0  0  0  0  0  0
    0.9888   51.5833   23.9973 H   0  0  0  0  0  0
    2.2396   51.2339   22.8066 H   0  0  0  0  0  0
    2.0489   49.3804   20.3781 H   0  0  0  0  0  0
    3.0830   50.5081   18.0639 H   0  0  0  0  0  0
    8.4499   55.3071   22.4026 H   0  0  0  0  0  0
    6.5924   54.7192   29.0237 H   0  0  0  0  0  0
  1  6  2  0  0  0
  1  2  1  0  0  0
  1 37  1  0  0  0
  2  3  2  0  0  0
  2 38  1  0  0  0
  3  4  1  0  0  0
  3 39  1  0  0  0
  4  5  2  0  0  0
  4 36  1  0  0  0
  5  6  1  0  0  0
  5  7  1  0  0  0
  6 40  1  0  0  0
  7 30  2  0  0  0
  7  8  1  0  0  0
  8  9  2  0  0  0
  8 41  1  0  0  0
  9 17  1  0  0  0
  9 10  1  0  0  0
 10 11  1  0  0  0
 10 29  2  0  0  0
 11 16  2  0  0  0
 11 12  1  0  0  0
 12 13  2  0  0  0
 12 42  1  0  0  0
 13 14  1  0  0  0
 13 28  1  0  0  0
 14 15  2  0  0  0
 14 43  1  0  0  0
 15 16  1  0  0  0
 15 44  1  0  0  0
 16 17  1  0  0  0
 17 18  1  0  0  0
 18 19  1  0  0  0
 18 45  1  0  0  0
 18 46  1  0  0  0
 19 20  1  0  0  0
 19 47  1  0  0  0
 19 48  1  0  0  0
 20 21  2  0  0  0
 20 22  2  0  0  0
 20 23  1  0  0  0
 23 27  1  0  0  0
 23 24  1  0  0  0
 24 25  2  0  0  0
 24 49  1  0  0  0
 25 26  1  0  0  0
 25 50  1  0  0  0
 26 27  2  0  0  0
 28 51  1  0  0  0
 29 34  1  0  0  0
 29 30  1  0  0  0
 30 31  1  0  0  0
 31 32  2  0  0  0
 31 33  1  0  0  0
 33 34  1  0  0  0
 33 52  1  0  0  0
 34 35  2  0  0  0
M  END
> <i_i_glide_confnum>
28

> <i_i_glide_lignum>
9

> <i_i_glide_posenum>
297

> <i_i_glide_rotatable_bonds>
6

> <i_m_Source_File_Index>
25

> <b_m_subgroup_collapsed>
0

> <r_i_docking_score>
-11.9155

> <r_i_glide_ecoul>
-16.5319

> <r_i_glide_eff_state_penalty>
0

> <r_i_glide_einternal>
3.07118

> <r_i_glide_emodel>
-124.132

> <r_i_glide_energy>
-71.9333

> <r_i_glide_erotb>
0.211332

> <r_i_glide_esite>
-0.0677043

> <r_i_glide_evdw>
-55.4014

> <r_i_glide_gscore>
-11.9155

> <r_i_glide_hbond>
-0.894983

> <r_i_glide_ligand_efficiency>
-0.330987

> <r_i_glide_ligand_efficiency_ln>
-2.59965

> <r_i_glide_ligand_efficiency_sa>
-1.09289

> <r_i_glide_lipo>
-3.90194

> <r_i_glide_metal>
0

> <r_i_glide_rewards>
-2.01238

> <s_i_glide_gridfile>
wee1_glide-grid

> <s_m_Source_File>
wee1_actives_glide_SP.sdf

> <s_m_Source_Path>
/Users/zhangxujun/Desktop

> <s_m_entry_id>
163

> <s_m_entry_name>
wee1_actives_glide_SP.25

> <s_m_subgroup_title>
wee1_actives_glide_SP

> <s_m_subgroupid>
wee1_actives_glide_SP


$$$$
