@<TRIPOS>MOLECULE
CHEMBL472542_31
47   51    1
SMALL
USER_CHARGES


@<TRIPOS>ATOM
      1 C1          0.5745   54.1184   30.3457 C.ar      1 UNK         0.0000 
      2 C2         -0.1500   52.9362   30.4377 C.ar      1 UNK         0.0000 
      3 C3         -0.0998   52.0025   29.4112 C.ar      1 UNK         0.0000 
      4 C4          0.7281   52.2094   28.3102 C.ar      1 UNK         0.0000 
      5 C5          1.5335   53.3673   28.2332 C.ar      1 UNK         0.0000 
      6 C6          1.3928   54.3353   29.2397 C.ar      1 UNK         0.0000 
      7 C7          2.5216   53.5994   27.1352 C.ar      1 UNK         0.0000 
      8 C8          2.0907   53.5150   25.8043 C.ar      1 UNK         0.0000 
      9 C9          3.0104   53.7648   24.7748 C.ar      1 UNK         0.0000 
     10 C10         4.3632   54.1034   25.0387 C.ar      1 UNK         0.0000 
     11 C11         5.0000   54.3129   23.7922 C.ar      1 UNK         0.0000 
     12 C12         6.3048   54.6886   23.4140 C.ar      1 UNK         0.0000 
     13 C13         6.5921   54.8977   22.0662 C.ar      1 UNK         0.0000 
     14 C14         5.6203   54.6909   21.0941 C.ar      1 UNK         0.0000 
     15 C15         4.3297   54.2756   21.4180 C.ar      1 UNK         0.0000 
     16 C16         4.0253   54.1044   22.7770 C.ar      1 UNK         0.0000 
     17 N17         2.8320   53.7681   23.4013 N.pl3     1 UNK         0.0000 
     18 C18         1.5631   53.4795   22.7325 C.3       1 UNK         0.0000 
     19 C19         1.3566   51.9779   22.4097 C.3       1 UNK         0.0000 
     20 C20         2.3187   51.3847   21.3728 C.2       1 UNK         0.0000 
     21 O21         3.1043   50.4979   21.6823 O.2       1 UNK         0.0000 
     22 N22         2.2566   51.8485   20.1262 N.am      1 UNK         0.0000 
     23 O23         7.8467   55.2990   21.6817 O.3       1 UNK         0.0000 
     24 C24         4.7665   54.1813   26.3848 C.ar      1 UNK         0.0000 
     25 C25         3.8656   53.9295   27.3931 C.ar      1 UNK         0.0000 
     26 C26         4.6163   54.0853   28.6790 C.2       1 UNK         0.0000 
     27 O27         4.2196   53.9430   29.8321 O.2       1 UNK         0.0000 
     28 N28         5.8640   54.4444   28.3355 N.am      1 UNK         0.0000 
     29 C29         6.0612   54.5437   27.0140 C.2       1 UNK         0.0000 
     30 O30         7.1044   54.8966   26.4805 O.2       1 UNK         0.0000 
     31 Cl31        0.7044   50.9940   27.0812 Cl        1 UNK         0.0000 
     32 H32         0.5055   54.8601   31.1280 H         1 UNK         0.0000 
     33 H33        -0.7944   52.7514   31.2820 H         1 UNK         0.0000 
     34 H34        -0.6999   51.1048   29.4764 H         1 UNK         0.0000 
     35 H35         1.9595   55.2541   29.1899 H         1 UNK         0.0000 
     36 H36         1.0608   53.2783   25.5815 H         1 UNK         0.0000 
     37 H37         7.0799   54.8522   24.1402 H         1 UNK         0.0000 
     38 H38         5.8723   54.8495   20.0557 H         1 UNK         0.0000 
     39 H39         3.5932   54.1346   20.6409 H         1 UNK         0.0000 
     40 H40         0.7510   53.8424   23.3631 H         1 UNK         0.0000 
     41 H41         1.5125   54.0957   21.8417 H         1 UNK         0.0000 
     42 H42         1.4305   51.3938   23.3284 H         1 UNK         0.0000 
     43 H43         0.3404   51.8188   22.0482 H         1 UNK         0.0000 
     44 H44         1.6465   52.6117   19.8786 H         1 UNK         0.0000 
     45 H45         2.8782   51.4530   19.4340 H         1 UNK         0.0000 
     46 H46         8.4896   55.2968   22.4047 H         1 UNK         0.0000 
     47 H47         6.5803   54.6750   29.0089 H         1 UNK         0.0000 
@<TRIPOS>BOND
     1    1    6 ar   
     2    1    2 ar   
     3    1   32 1    
     4    2    3 ar   
     5    2   33 1    
     6    3    4 ar   
     7    3   34 1    
     8    4    5 ar   
     9    4   31 1    
    10    5    6 ar   
    11    5    7 1    
    12    6   35 1    
    13    7   25 ar   
    14    7    8 ar   
    15    8    9 ar   
    16    8   36 1    
    17    9   17 ar   
    18    9   10 ar   
    19   10   11 ar   
    20   10   24 ar   
    21   11   16 ar   
    22   11   12 ar   
    23   12   13 ar   
    24   12   37 1    
    25   13   14 ar   
    26   13   23 1    
    27   14   15 ar   
    28   14   38 1    
    29   15   16 ar   
    30   15   39 1    
    31   16   17 ar   
    32   17   18 1    
    33   18   19 1    
    34   18   40 1    
    35   18   41 1    
    36   19   20 1    
    37   19   42 1    
    38   19   43 1    
    39   20   21 2    
    40   20   22 am   BACKBONE|DICT|INTERRES
    41   22   44 1    
    42   22   45 1    
    43   23   46 1    
    44   24   29 1    
    45   24   25 ar   
    46   25   26 1    
    47   26   27 2    
    48   26   28 am   BACKBONE|DICT|INTERRES
    49   28   29 am   BACKBONE|DICT|INTERRES
    50   28   47 1    
    51   29   30 2    
@<TRIPOS>SUBSTRUCTURE
     1 UNK         1 GROUP             0       ****    0 ROOT    
