@<TRIPOS>MOLECULE
CHEMBL452078_50
64   69    1
SMALL
USER_CHARGES


@<TRIPOS>ATOM
      1 C1          1.9977   51.2680   15.9888 C.3       1 UNK         0.0000 
      2 N2          2.3046   51.2943   17.4989 N.4       1 UNK         0.0000 
      3 C3          1.8421   49.9934   18.1951 C.3       1 UNK         0.0000 
      4 C4          2.3252   50.0387   19.6625 C.3       1 UNK         0.0000 
      5 N5          1.7607   51.2014   20.3670 N.3       1 UNK         0.0000 
      6 C6          2.0952   52.4567   19.6791 C.3       1 UNK         0.0000 
      7 C7          1.6565   52.4949   18.2048 C.3       1 UNK         0.0000 
      8 C8          2.2041   51.2154   21.7719 C.3       1 UNK         0.0000 
      9 C9          1.2592   52.0090   22.7128 C.3       1 UNK         0.0000 
     10 C10         1.5223   53.5245   22.9104 C.3       1 UNK         0.0000 
     11 N11         2.8111   53.8061   23.5376 N.pl3     1 UNK         0.0000 
     12 C12         3.9953   54.1516   22.8988 C.ar      1 UNK         0.0000 
     13 C13         4.2697   54.3730   21.5437 C.ar      1 UNK         0.0000 
     14 C14         5.5606   54.7513   21.1915 C.ar      1 UNK         0.0000 
     15 C15         6.5657   54.8985   22.1365 C.ar      1 UNK         0.0000 
     16 C16         6.3067   54.6705   23.4908 C.ar      1 UNK         0.0000 
     17 C17         4.9975   54.3212   23.8960 C.ar      1 UNK         0.0000 
     18 C18         4.3684   54.1208   25.1519 C.ar      1 UNK         0.0000 
     19 C19         3.0092   53.7974   24.9022 C.ar      1 UNK         0.0000 
     20 C20         2.0915   53.5562   25.9328 C.ar      1 UNK         0.0000 
     21 C21         2.5286   53.6475   27.2566 C.ar      1 UNK         0.0000 
     22 C22         3.8739   53.9536   27.5092 C.ar      1 UNK         0.0000 
     23 C23         4.7727   54.1941   26.4982 C.ar      1 UNK         0.0000 
     24 C24         6.0667   54.5456   27.1268 C.2       1 UNK         0.0000 
     25 O25         7.1044   54.8938   26.5821 O.2       1 UNK         0.0000 
     26 N26         5.8687   54.4454   28.4515 N.am      1 UNK         0.0000 
     27 C27         4.6162   54.0964   28.7956 C.2       1 UNK         0.0000 
     28 O28         4.1969   53.9590   29.9431 O.2       1 UNK         0.0000 
     29 C29         1.5398   53.4111   28.3487 C.ar      1 UNK         0.0000 
     30 C30         1.2243   54.4214   29.2825 C.ar      1 UNK         0.0000 
     31 C31         0.3762   54.1481   30.3549 C.ar      1 UNK         0.0000 
     32 C32        -0.2129   52.8956   30.4759 C.ar      1 UNK         0.0000 
     33 C33         0.0097   51.9226   29.5149 C.ar      1 UNK         0.0000 
     34 C34         0.8832   52.1680   28.4615 C.ar      1 UNK         0.0000 
     35 Cl35        1.1044   50.8955   27.3122 Cl        1 UNK         0.0000 
     36 Cl36        1.8245   56.0415   29.1279 Cl        1 UNK         0.0000 
     37 O37         7.8077   55.2969   21.7057 O.3       1 UNK         0.0000 
     38 H38         0.9386   51.0439   15.8487 H         1 UNK         0.0000 
     39 H39         2.2609   52.2442   15.5797 H         1 UNK         0.0000 
     40 H40         2.6439   50.4966   15.5602 H         1 UNK         0.0000 
     41 H41         2.3042   49.1560   17.6742 H         1 UNK         0.0000 
     42 H42         0.7568   49.9190   18.1048 H         1 UNK         0.0000 
     43 H43         2.0418   49.1102   20.1605 H         1 UNK         0.0000 
     44 H44         3.4152   50.1220   19.6647 H         1 UNK         0.0000 
     45 H45         3.1822   52.5536   19.6958 H         1 UNK         0.0000 
     46 H46         1.6319   53.2966   20.1734 H         1 UNK         0.0000 
     47 H47         2.0508   53.3904   17.7218 H         1 UNK         0.0000 
     48 H48         0.5747   52.4344   18.0720 H         1 UNK         0.0000 
     49 H49         2.2725   50.1965   22.1592 H         1 UNK         0.0000 
     50 H50         3.2185   51.6142   21.8244 H         1 UNK         0.0000 
     51 H51         0.2437   51.9302   22.3211 H         1 UNK         0.0000 
     52 H52         1.2421   51.5227   23.6896 H         1 UNK         0.0000 
     53 H53         1.4722   54.0963   22.0010 H         1 UNK         0.0000 
     54 H54         0.7394   53.9563   23.5350 H         1 UNK         0.0000 
     55 H55         3.5051   54.3292   20.7903 H         1 UNK         0.0000 
     56 H56         5.7827   54.9510   20.1529 H         1 UNK         0.0000 
     57 H57         7.1014   54.8040   24.2047 H         1 UNK         0.0000 
     58 H58         1.0604   53.3142   25.7206 H         1 UNK         0.0000 
     59 H59         6.5845   54.6800   29.1258 H         1 UNK         0.0000 
     60 H60         0.1560   54.9153   31.0825 H         1 UNK         0.0000 
     61 H61        -0.8944   52.6836   31.2817 H         1 UNK         0.0000 
     62 H62        -0.4941   50.9683   29.5946 H         1 UNK         0.0000 
     63 H63         8.4757   55.2974   22.4065 H         1 UNK         0.0000 
     64 H64         3.3156   51.3348   17.6017 H         1 UNK         0.0000 
@<TRIPOS>BOND
     1    1    2 1    
     2    1   38 1    
     3    1   39 1    
     4    1   40 1    
     5    2    7 1    
     6    2    3 1    
     7    2   64 1    
     8    3    4 1    
     9    3   41 1    
    10    3   42 1    
    11    4    5 1    
    12    4   43 1    
    13    4   44 1    
    14    5    6 1    
    15    5    8 1    
    16    6    7 1    
    17    6   45 1    
    18    6   46 1    
    19    7   47 1    
    20    7   48 1    
    21    8    9 1    
    22    8   49 1    
    23    8   50 1    
    24    9   10 1    
    25    9   51 1    
    26    9   52 1    
    27   10   11 1    
    28   10   53 1    
    29   10   54 1    
    30   11   19 ar   
    31   11   12 ar   
    32   12   17 ar   
    33   12   13 ar   
    34   13   14 ar   
    35   13   55 1    
    36   14   15 ar   
    37   14   56 1    
    38   15   16 ar   
    39   15   37 1    
    40   16   17 ar   
    41   16   57 1    
    42   17   18 ar   
    43   18   23 ar   
    44   18   19 ar   
    45   19   20 ar   
    46   20   21 ar   
    47   20   58 1    
    48   21   22 ar   
    49   21   29 1    
    50   22   27 1    
    51   22   23 ar   
    52   23   24 1    
    53   24   25 2    
    54   24   26 am   BACKBONE|DICT|INTERRES
    55   26   27 am   BACKBONE|DICT|INTERRES
    56   26   59 1    
    57   27   28 2    
    58   29   34 ar   
    59   29   30 ar   
    60   30   31 ar   
    61   30   36 1    
    62   31   32 ar   
    63   31   60 1    
    64   32   33 ar   
    65   32   61 1    
    66   33   34 ar   
    67   33   62 1    
    68   34   35 1    
    69   37   63 1    
@<TRIPOS>SUBSTRUCTURE
     1 UNK         1 GROUP             0       ****    0 ROOT    
