@<TRIPOS>MOLECULE
CHEMBL366922_17
54   57    1
SMALL
USER_CHARGES


@<TRIPOS>ATOM
      1 C1          2.3505   53.8845   23.3797 C.3       1 UNK         0.0000 
      2 N2          2.8645   53.9054   24.7706 N.pl3     1 UNK         0.0000 
      3 C3          4.2434   54.1827   24.9542 C.ar      1 UNK         0.0000 
      4 C4          4.7878   54.1614   26.2435 C.ar      1 UNK         0.0000 
      5 C5          3.8780   53.8945   27.3609 C.ar      1 UNK         0.0000 
      6 C6          2.5503   53.7015   27.1564 C.ar      1 UNK         0.0000 
      7 C7          1.9964   53.6089   25.7891 C.ar      1 UNK         0.0000 
      8 O8          0.8369   53.2730   25.5621 O.2       1 UNK         0.0000 
      9 C9          1.6391   53.6513   28.3484 C.ar      1 UNK         0.0000 
     10 C10         1.5254   54.7744   29.2023 C.ar      1 UNK         0.0000 
     11 C11         0.7777   54.7131   30.3737 C.ar      1 UNK         0.0000 
     12 C12         0.0658   53.5698   30.6882 C.ar      1 UNK         0.0000 
     13 C13         0.0555   52.4951   29.8090 C.ar      1 UNK         0.0000 
     14 C14         0.8893   52.4973   28.6771 C.ar      1 UNK         0.0000 
     15 Cl15        1.0025   51.0535   27.7183 Cl        1 UNK         0.0000 
     16 O16        -0.7968   51.4610   30.0838 O.3       1 UNK         0.0000 
     17 Cl17        2.3040   56.2812   28.8816 Cl        1 UNK         0.0000 
     18 C18         6.1422   54.4724   26.3705 C.ar      1 UNK         0.0000 
     19 N19         6.9079   54.7834   25.2906 N.ar      1 UNK         0.0000 
     20 C20         6.2969   54.7758   24.0751 C.ar      1 UNK         0.0000 
     21 N21         4.9954   54.4833   23.8654 N.ar      1 UNK         0.0000 
     22 N22         7.1044   55.1189   22.9902 N.pl3     1 UNK         0.0000 
     23 C23         6.9169   55.2966   21.6097 C.ar      1 UNK         0.0000 
     24 C24         5.7092   55.0822   20.9352 C.ar      1 UNK         0.0000 
     25 C25         5.6190   55.3311   19.5668 C.ar      1 UNK         0.0000 
     26 C26         6.7215   55.8103   18.8592 C.ar      1 UNK         0.0000 
     27 C27         7.9437   55.9665   19.5260 C.ar      1 UNK         0.0000 
     28 C28         8.0367   55.6977   20.8847 C.ar      1 UNK         0.0000 
     29 O29         6.5366   56.1048   17.5219 O.3       1 UNK         0.0000 
     30 C30         7.4111   57.0380   16.8808 C.3       1 UNK         0.0000 
     31 C31         7.2162   58.4780   17.4150 C.3       1 UNK         0.0000 
     32 C32         8.3214   59.4831   17.0051 C.3       1 UNK         0.0000 
     33 C33         9.5501   59.4281   17.9319 C.2       1 UNK         0.0000 
     34 O34        10.1241   58.3286   18.0790 O.co2     1 UNK         0.0000 
     35 O35         9.9044   60.4965   18.4820 O.co2     1 UNK         0.0000 
     36 H36         1.2872   53.6557   23.2941 H         1 UNK         0.0000 
     37 H37         2.5084   54.8540   22.9037 H         1 UNK         0.0000 
     38 H38         2.8880   53.1403   22.7910 H         1 UNK         0.0000 
     39 H39         4.2562   53.9647   28.3723 H         1 UNK         0.0000 
     40 H40         0.7398   55.5631   31.0396 H         1 UNK         0.0000 
     41 H41        -0.4972   53.5359   31.6077 H         1 UNK         0.0000 
     42 H42        -1.1723   51.4821   30.9744 H         1 UNK         0.0000 
     43 H43         6.6270   54.4933   27.3367 H         1 UNK         0.0000 
     44 H44         8.0705   55.2661   23.2779 H         1 UNK         0.0000 
     45 H45         4.8258   54.7383   21.4454 H         1 UNK         0.0000 
     46 H46         4.6803   55.1813   19.0542 H         1 UNK         0.0000 
     47 H47         8.8319   56.3049   19.0147 H         1 UNK         0.0000 
     48 H48         8.9899   55.8406   21.3733 H         1 UNK         0.0000 
     49 H49         7.1806   57.0239   15.8149 H         1 UNK         0.0000 
     50 H50         8.4464   56.7058   16.9461 H         1 UNK         0.0000 
     51 H51         7.0968   58.4833   18.5002 H         1 UNK         0.0000 
     52 H52         6.2627   58.8465   17.0327 H         1 UNK         0.0000 
     53 H53         7.9054   60.4914   17.0305 H         1 UNK         0.0000 
     54 H54         8.6384   59.3168   15.9743 H         1 UNK         0.0000 
@<TRIPOS>BOND
     1    1    2 1    
     2    1   36 1    
     3    1   37 1    
     4    1   38 1    
     5    2    7 ar   
     6    2    3 ar   
     7    3   21 ar   
     8    3    4 ar   
     9    4    5 ar   
    10    4   18 ar   
    11    5    6 ar   
    12    5   39 1    
    13    6    7 ar   
    14    6    9 1    
    15    7    8 2    
    16    9   14 ar   
    17    9   10 ar   
    18   10   11 ar   
    19   10   17 1    
    20   11   12 ar   
    21   11   40 1    
    22   12   13 ar   
    23   12   41 1    
    24   13   14 ar   
    25   13   16 1    
    26   14   15 1    
    27   16   42 1    
    28   18   19 ar   
    29   18   43 1    
    30   19   20 ar   
    31   20   21 ar   
    32   20   22 1    
    33   22   23 1    
    34   22   44 1    
    35   23   28 ar   
    36   23   24 ar   
    37   24   25 ar   
    38   24   45 1    
    39   25   26 ar   
    40   25   46 1    
    41   26   27 ar   
    42   26   29 1    
    43   27   28 ar   
    44   27   47 1    
    45   28   48 1    
    46   29   30 1    
    47   30   31 1    
    48   30   49 1    
    49   30   50 1    
    50   31   32 1    
    51   31   51 1    
    52   31   52 1    
    53   32   33 1    
    54   32   53 1    
    55   32   54 1    
    56   33   34 2    
    57   33   35 1    
@<TRIPOS>SUBSTRUCTURE
     1 UNK         1 GROUP             0       ****    0 ROOT    
