@<TRIPOS>MOLECULE
CHEMBL452079_97
58   63    1
SMALL
USER_CHARGES


@<TRIPOS>ATOM
      1 C1         -0.0957   52.8515   30.4236 C.ar      1 UNK         0.0000 
      2 C2          0.0494   51.9192   29.4010 C.ar      1 UNK         0.0000 
      3 C3          0.8788   52.2046   28.3218 C.ar      1 UNK         0.0000 
      4 C4          1.5483   53.4313   28.2515 C.ar      1 UNK         0.0000 
      5 C5          1.3225   54.3919   29.2458 C.ar      1 UNK         0.0000 
      6 C6          0.5174   54.0966   30.3414 C.ar      1 UNK         0.0000 
      7 C7          2.5155   53.6864   27.1496 C.ar      1 UNK         0.0000 
      8 C8          2.0827   53.5689   25.8218 C.ar      1 UNK         0.0000 
      9 C9          3.0086   53.7819   24.7858 C.ar      1 UNK         0.0000 
     10 C10         4.3594   54.1406   25.0489 C.ar      1 UNK         0.0000 
     11 C11         5.0042   54.3345   23.8030 C.ar      1 UNK         0.0000 
     12 C12         6.3041   54.7330   23.4231 C.ar      1 UNK         0.0000 
     13 C13         6.6004   54.8968   22.0714 C.ar      1 UNK         0.0000 
     14 C14         5.6471   54.6192   21.0986 C.ar      1 UNK         0.0000 
     15 C15         4.3677   54.1732   21.4246 C.ar      1 UNK         0.0000 
     16 C16         4.0475   54.0596   22.7865 C.ar      1 UNK         0.0000 
     17 N17         2.8549   53.7114   23.4083 N.pl3     1 UNK         0.0000 
     18 C18         1.6218   53.3520   22.7083 C.3       1 UNK         0.0000 
     19 C19         1.3384   51.8264   22.6864 C.3       1 UNK         0.0000 
     20 C20         0.4054   51.3108   23.7971 C.3       1 UNK         0.0000 
     21 N21        -0.8474   52.0595   23.8386 N.pl3     1 UNK         0.0000 
     22 C22        -1.8073   51.8762   24.8438 C.ar      1 UNK         0.0000 
     23 C23        -1.6302   50.9969   25.9179 C.ar      1 UNK         0.0000 
     24 C24        -2.6264   50.8695   26.8818 C.ar      1 UNK         0.0000 
     25 C25        -3.7923   51.6242   26.7796 C.ar      1 UNK         0.0000 
     26 C26        -3.9755   52.5025   25.7145 C.ar      1 UNK         0.0000 
     27 C27        -2.9831   52.6234   24.7452 C.ar      1 UNK         0.0000 
     28 O28         7.8501   55.3098   21.6817 O.3       1 UNK         0.0000 
     29 C29         4.7568   54.2394   26.3956 C.ar      1 UNK         0.0000 
     30 C30         3.8554   54.0113   27.4061 C.ar      1 UNK         0.0000 
     31 C31         4.5981   54.1746   28.6940 C.2       1 UNK         0.0000 
     32 O32         4.1883   54.0648   29.8475 O.2       1 UNK         0.0000 
     33 N33         5.8549   54.4965   28.3476 N.am      1 UNK         0.0000 
     34 C34         6.0551   54.5805   27.0243 C.2       1 UNK         0.0000 
     35 O35         7.1044   54.8964   26.4849 O.2       1 UNK         0.0000 
     36 H36        -0.7109   52.6106   31.2797 H         1 UNK         0.0000 
     37 H37        -0.4591   50.9673   29.4604 H         1 UNK         0.0000 
     38 H38         1.0229   51.4565   27.5555 H         1 UNK         0.0000 
     39 H39         1.8141   55.3528   29.1958 H         1 UNK         0.0000 
     40 H40         0.3789   54.8235   31.1286 H         1 UNK         0.0000 
     41 H41         1.0509   53.3318   25.6122 H         1 UNK         0.0000 
     42 H42         7.0671   54.9485   24.1490 H         1 UNK         0.0000 
     43 H43         5.9091   54.7392   20.0572 H         1 UNK         0.0000 
     44 H44         3.6517   53.9656   20.6424 H         1 UNK         0.0000 
     45 H45         1.6963   53.6968   21.6817 H         1 UNK         0.0000 
     46 H46         0.8050   53.9309   23.1384 H         1 UNK         0.0000 
     47 H47         2.2728   51.2625   22.6962 H         1 UNK         0.0000 
     48 H48         0.8738   51.5855   21.7288 H         1 UNK         0.0000 
     49 H49         0.8914   51.3798   24.7687 H         1 UNK         0.0000 
     50 H50         0.1833   50.2520   23.6538 H         1 UNK         0.0000 
     51 H51        -1.2058   52.3745   22.9505 H         1 UNK         0.0000 
     52 H52        -0.7387   50.3964   26.0154 H         1 UNK         0.0000 
     53 H53        -2.4962   50.1710   27.6975 H         1 UNK         0.0000 
     54 H54        -4.5631   51.5179   27.5289 H         1 UNK         0.0000 
     55 H55        -4.8836   53.0821   25.6374 H         1 UNK         0.0000 
     56 H56        -3.1299   53.3085   23.9233 H         1 UNK         0.0000 
     57 H57         8.4926   55.3187   22.4054 H         1 UNK         0.0000 
     58 H58         6.5754   54.7200   29.0202 H         1 UNK         0.0000 
@<TRIPOS>BOND
     1    1    6 ar   
     2    1    2 ar   
     3    1   36 1    
     4    2    3 ar   
     5    2   37 1    
     6    3    4 ar   
     7    3   38 1    
     8    4    5 ar   
     9    4    7 1    
    10    5    6 ar   
    11    5   39 1    
    12    6   40 1    
    13    7   30 ar   
    14    7    8 ar   
    15    8    9 ar   
    16    8   41 1    
    17    9   17 ar   
    18    9   10 ar   
    19   10   11 ar   
    20   10   29 ar   
    21   11   16 ar   
    22   11   12 ar   
    23   12   13 ar   
    24   12   42 1    
    25   13   14 ar   
    26   13   28 1    
    27   14   15 ar   
    28   14   43 1    
    29   15   16 ar   
    30   15   44 1    
    31   16   17 ar   
    32   17   18 1    
    33   18   19 1    
    34   18   45 1    
    35   18   46 1    
    36   19   20 1    
    37   19   47 1    
    38   19   48 1    
    39   20   21 1    
    40   20   49 1    
    41   20   50 1    
    42   21   22 1    
    43   21   51 1    
    44   22   27 ar   
    45   22   23 ar   
    46   23   24 ar   
    47   23   52 1    
    48   24   25 ar   
    49   24   53 1    
    50   25   26 ar   
    51   25   54 1    
    52   26   27 ar   
    53   26   55 1    
    54   27   56 1    
    55   28   57 1    
    56   29   34 1    
    57   29   30 ar   
    58   30   31 1    
    59   31   32 2    
    60   31   33 am   BACKBONE|DICT|INTERRES
    61   33   34 am   BACKBONE|DICT|INTERRES
    62   33   58 1    
    63   34   35 2    
@<TRIPOS>SUBSTRUCTURE
     1 UNK         1 GROUP             0       ****    0 ROOT    
