@<TRIPOS>MOLECULE
CHEMBL515352_9
59   64    1
SMALL
USER_CHARGES


@<TRIPOS>ATOM
      1 C1         -3.5544   46.4013   24.4735 C.ar      1 UNK         0.0000 
      2 C2         -2.7909   46.9056   25.5254 C.ar      1 UNK         0.0000 
      3 C3         -1.7495   47.7895   25.2608 C.ar      1 UNK         0.0000 
      4 C4         -1.4675   48.1566   23.9421 C.ar      1 UNK         0.0000 
      5 C5         -2.2292   47.6393   22.8894 C.ar      1 UNK         0.0000 
      6 C6         -3.2718   46.7558   23.1549 C.ar      1 UNK         0.0000 
      7 S7         -0.1703   49.3501   23.5958 S.o2      1 UNK         0.0000 
      8 O8          0.7042   49.3327   24.7730 O.2       1 UNK         0.0000 
      9 O9          0.3901   48.9148   22.3102 O.2       1 UNK         0.0000 
     10 N10        -1.0482   50.6430   23.4872 N.2       1 UNK         0.0000 
     11 C11        -0.5229   51.8286   23.3089 C.2       1 UNK         0.0000 
     12 O12        -1.2387   52.8294   23.2824 O.2       1 UNK         0.0000 
     13 C13         1.0068   52.0349   23.1271 C.3       1 UNK         0.0000 
     14 C14         1.4663   53.5012   22.8805 C.3       1 UNK         0.0000 
     15 N15         2.7581   53.7848   23.5103 N.pl3     1 UNK         0.0000 
     16 C16         3.9426   54.0967   22.8570 C.ar      1 UNK         0.0000 
     17 C17         4.2346   54.2046   21.4884 C.ar      1 UNK         0.0000 
     18 C18         5.5137   54.6308   21.1352 C.ar      1 UNK         0.0000 
     19 C19         6.4937   54.8958   22.0875 C.ar      1 UNK         0.0000 
     20 C20         6.2280   54.7269   23.4445 C.ar      1 UNK         0.0000 
     21 C21         4.9318   54.3487   23.8518 C.ar      1 UNK         0.0000 
     22 C22         4.3222   54.1590   25.1133 C.ar      1 UNK         0.0000 
     23 C23         2.9620   53.8200   24.8804 C.ar      1 UNK         0.0000 
     24 C24         2.0628   53.5884   25.9320 C.ar      1 UNK         0.0000 
     25 C25         2.5242   53.7037   27.2491 C.ar      1 UNK         0.0000 
     26 C26         3.8707   54.0165   27.4781 C.ar      1 UNK         0.0000 
     27 C27         4.7520   54.2470   26.4512 C.ar      1 UNK         0.0000 
     28 C28         6.0631   54.5813   27.0581 C.2       1 UNK         0.0000 
     29 O29         7.1044   54.8949   26.5003 O.2       1 UNK         0.0000 
     30 N30         5.8841   54.4965   28.3863 N.am      1 UNK         0.0000 
     31 C31         4.6360   54.1554   28.7509 C.2       1 UNK         0.0000 
     32 O32         4.2375   54.0164   29.9058 O.2       1 UNK         0.0000 
     33 C33         1.5682   53.4452   28.3609 C.ar      1 UNK         0.0000 
     34 C34         0.9639   52.1826   28.4332 C.ar      1 UNK         0.0000 
     35 C35         0.0912   51.8680   29.4683 C.ar      1 UNK         0.0000 
     36 C36        -0.1589   52.8001   30.4693 C.ar      1 UNK         0.0000 
     37 C37         0.3972   54.0734   30.3961 C.ar      1 UNK         0.0000 
     38 C38         1.2401   54.4103   29.3377 C.ar      1 UNK         0.0000 
     39 Cl39        1.8319   56.0394   29.2721 Cl        1 UNK         0.0000 
     40 O40         7.7397   55.3001   21.6818 O.3       1 UNK         0.0000 
     41 H41        -4.3767   45.7346   24.6824 H         1 UNK         0.0000 
     42 H42        -3.0101   46.6323   26.5487 H         1 UNK         0.0000 
     43 H43        -1.1714   48.1935   26.0815 H         1 UNK         0.0000 
     44 H44        -2.0185   47.9365   21.8714 H         1 UNK         0.0000 
     45 H45        -3.8684   46.3631   22.3444 H         1 UNK         0.0000 
     46 H46         1.4933   51.6308   24.0141 H         1 UNK         0.0000 
     47 H47         1.3440   51.4194   22.2919 H         1 UNK         0.0000 
     48 H48         1.5342   53.6965   21.8107 H         1 UNK         0.0000 
     49 H49         0.7701   54.2389   23.2819 H         1 UNK         0.0000 
     50 H50         3.4957   54.0152   20.7214 H         1 UNK         0.0000 
     51 H51         5.7517   54.7526   20.0900 H         1 UNK         0.0000 
     52 H52         7.0125   54.9259   24.1539 H         1 UNK         0.0000 
     53 H53         1.0315   53.3293   25.7397 H         1 UNK         0.0000 
     54 H54         6.6110   54.7245   29.0489 H         1 UNK         0.0000 
     55 H55         1.1735   51.4321   27.6829 H         1 UNK         0.0000 
     56 H56        -0.3819   50.8976   29.5044 H         1 UNK         0.0000 
     57 H57        -0.8199   52.5377   31.2816 H         1 UNK         0.0000 
     58 H58         0.1628   54.8032   31.1579 H         1 UNK         0.0000 
     59 H59         8.3983   55.2978   22.3909 H         1 UNK         0.0000 
@<TRIPOS>BOND
     1    1    6 ar   
     2    1    2 ar   
     3    1   41 1    
     4    2    3 ar   
     5    2   42 1    
     6    3    4 ar   
     7    3   43 1    
     8    4    5 ar   
     9    4    7 1    
    10    5    6 ar   
    11    5   44 1    
    12    6   45 1    
    13    7    8 2    
    14    7    9 2    
    15    7   10 1    
    16   10   11 1    
    17   11   12 2    
    18   11   13 1    
    19   13   14 1    
    20   13   46 1    
    21   13   47 1    
    22   14   15 1    
    23   14   48 1    
    24   14   49 1    
    25   15   23 ar   
    26   15   16 ar   
    27   16   21 ar   
    28   16   17 ar   
    29   17   18 ar   
    30   17   50 1    
    31   18   19 ar   
    32   18   51 1    
    33   19   20 ar   
    34   19   40 1    
    35   20   21 ar   
    36   20   52 1    
    37   21   22 ar   
    38   22   27 ar   
    39   22   23 ar   
    40   23   24 ar   
    41   24   25 ar   
    42   24   53 1    
    43   25   26 ar   
    44   25   33 1    
    45   26   31 1    
    46   26   27 ar   
    47   27   28 1    
    48   28   29 2    
    49   28   30 am   BACKBONE|DICT|INTERRES
    50   30   31 am   BACKBONE|DICT|INTERRES
    51   30   54 1    
    52   31   32 2    
    53   33   38 ar   
    54   33   34 ar   
    55   34   35 ar   
    56   34   55 1    
    57   35   36 ar   
    58   35   56 1    
    59   36   37 ar   
    60   36   57 1    
    61   37   38 ar   
    62   37   58 1    
    63   38   39 1    
    64   40   59 1    
@<TRIPOS>SUBSTRUCTURE
     1 UNK         1 GROUP             0       ****    0 ROOT    
