CHEMBL257857_40
                    3D
 Schrodinger Suite 2024-2.
 65 70  0  0  1  0            999 V2000
    1.5102   53.6304   22.8791 C   0  0  0  0  0  0
    2.7991   53.8810   23.5086 N   0  0  0  0  0  0
    3.0026   53.8414   24.8723 C   0  0  0  0  0  0
    2.0955   53.5753   25.9076 C   0  0  0  0  0  0
    2.5442   53.6513   27.2314 C   0  0  0  0  0  0
    3.8837   53.9836   27.4779 C   0  0  0  0  0  0
    4.7743   54.2222   26.4599 C   0  0  0  0  0  0
    4.3649   54.1548   25.1163 C   0  0  0  0  0  0
    4.9934   54.3532   23.8589 C   0  0  0  0  0  0
    3.9797   54.2364   22.8744 C   0  0  0  0  0  0
    4.2373   54.4967   21.5286 C   0  0  0  0  0  0
    5.5341   54.8348   21.1414 C   0  0  0  0  0  0
    6.5581   54.9201   22.0883 C   0  0  0  0  0  0
    6.3047   54.6699   23.4409 C   0  0  0  0  0  0
    7.8220   55.2969   21.6972 O   0  0  0  0  0  0
    5.8986   55.2411   19.4186 S   0  0  0  0  0  0
    6.8716   54.2546   18.9385 O   0  0  0  0  0  0
    6.2404   56.6680   19.4233 O   0  0  0  0  0  0
    4.3195   55.0450   18.3728 C   0  0  0  0  0  0
    4.0074   53.5801   17.9744 C   0  0  0  0  0  0
    3.3650   52.7363   19.0874 C   0  0  0  0  0  0
    3.1044   51.2967   18.6367 N   0  3  0  0  0  0
    2.1279   51.1152   17.4559 C   0  0  0  0  0  0
    1.5039   49.7265   17.6575 C   0  0  0  0  0  0
    2.0712   49.1684   18.9636 C   0  0  0  0  0  0
    2.5482   50.3863   19.7431 C   0  0  0  0  0  0
    6.0724   54.5689   27.0749 C   0  0  0  0  0  0
    7.1044   54.8966   26.5141 O   0  0  0  0  0  0
    5.8837   54.4965   28.4014 N   0  0  0  0  0  0
    4.6319   54.1620   28.7586 C   0  0  0  0  0  0
    4.2227   54.0628   29.9128 O   0  0  0  0  0  0
    1.5763   53.3834   28.3319 C   0  0  0  0  0  0
    1.3343   54.3675   29.3023 C   0  0  0  0  0  0
    0.4807   54.1214   30.3754 C   0  0  0  0  0  0
   -0.1690   52.8955   30.4697 C   0  0  0  0  0  0
    0.0120   51.9294   29.4887 C   0  0  0  0  0  0
    0.8875   52.1594   28.4313 C   0  0  0  0  0  0
    1.1036   50.8876   27.2817 Cl  0  0  0  0  0  0
    0.7908   54.3619   23.2491 H   0  0  0  0  0  0
    1.5786   53.6967   21.7949 H   0  0  0  0  0  0
    1.1704   52.6295   23.1470 H   0  0  0  0  0  0
    1.0649   53.3317   25.6959 H   0  0  0  0  0  0
    3.4307   54.5114   20.8259 H   0  0  0  0  0  0
    7.1114   54.7637   24.1475 H   0  0  0  0  0  0
    8.4688   55.2968   22.4159 H   0  0  0  0  0  0
    4.5185   55.6207   17.4685 H   0  0  0  0  0  0
    3.5014   55.5488   18.8818 H   0  0  0  0  0  0
    4.9115   53.0870   17.6112 H   0  0  0  0  0  0
    3.3266   53.6046   17.1227 H   0  0  0  0  0  0
    2.4049   53.1267   19.4290 H   0  0  0  0  0  0
    4.0553   52.5734   19.9125 H   0  0  0  0  0  0
    2.7092   51.2181   16.5373 H   0  0  0  0  0  0
    1.3796   51.9067   17.5273 H   0  0  0  0  0  0
    1.7461   49.0701   16.8197 H   0  0  0  0  0  0
    0.4173   49.8069   17.7053 H   0  0  0  0  0  0
    1.3338   48.5880   19.5191 H   0  0  0  0  0  0
    2.9201   48.5116   18.7578 H   0  0  0  0  0  0
    1.7392   50.9335   20.2314 H   0  0  0  0  0  0
    3.3398   50.1965   20.4688 H   0  0  0  0  0  0
    6.6058   54.7419   29.0658 H   0  0  0  0  0  0
    1.8339   55.3239   29.2412 H   0  0  0  0  0  0
    0.3203   54.8793   31.1283 H   0  0  0  0  0  0
   -0.8474   52.6933   31.2823 H   0  0  0  0  0  0
   -0.5190   50.9903   29.5612 H   0  0  0  0  0  0
    4.0275   50.9027   18.3734 H   0  0  0  0  0  0
  1  2  1  0  0  0
  1 39  1  0  0  0
  1 40  1  0  0  0
  1 41  1  0  0  0
  2 10  1  0  0  0
  2  3  1  0  0  0
  3  8  2  0  0  0
  3  4  1  0  0  0
  4  5  2  0  0  0
  4 42  1  0  0  0
  5  6  1  0  0  0
  5 32  1  0  0  0
  6 30  1  0  0  0
  6  7  2  0  0  0
  7  8  1  0  0  0
  7 27  1  0  0  0
  8  9  1  0  0  0
  9 14  2  0  0  0
  9 10  1  0  0  0
 10 11  2  0  0  0
 11 12  1  0  0  0
 11 43  1  0  0  0
 12 13  2  0  0  0
 12 16  1  0  0  0
 13 14  1  0  0  0
 13 15  1  0  0  0
 14 44  1  0  0  0
 15 45  1  0  0  0
 16 17  2  0  0  0
 16 18  2  0  0  0
 16 19  1  0  0  0
 19 20  1  0  0  0
 19 46  1  0  0  0
 19 47  1  0  0  0
 20 21  1  0  0  0
 20 48  1  0  0  0
 20 49  1  0  0  0
 21 22  1  0  0  0
 21 50  1  0  0  0
 21 51  1  0  0  0
 22 26  1  0  0  0
 22 23  1  0  0  0
 22 65  1  0  0  0
 23 24  1  0  0  0
 23 52  1  0  0  0
 23 53  1  0  0  0
 24 25  1  0  0  0
 24 54  1  0  0  0
 24 55  1  0  0  0
 25 26  1  0  0  0
 25 56  1  0  0  0
 25 57  1  0  0  0
 26 58  1  0  0  0
 26 59  1  0  0  0
 27 28  2  0  0  0
 27 29  1  0  0  0
 29 30  1  0  0  0
 29 60  1  0  0  0
 30 31  2  0  0  0
 32 37  2  0  0  0
 32 33  1  0  0  0
 33 34  2  0  0  0
 33 61  1  0  0  0
 34 35  1  0  0  0
 34 62  1  0  0  0
 35 36  2  0  0  0
 35 63  1  0  0  0
 36 37  1  0  0  0
 36 64  1  0  0  0
 37 38  1  0  0  0
M  CHG  1  22   1
M  END
> <i_i_glide_confnum>
190

> <i_i_glide_lignum>
41

> <i_i_glide_posenum>
2

> <i_i_glide_rotatable_bonds>
7

> <i_m_Source_File_Index>
119

> <b_m_subgroup_collapsed>
0

> <r_i_docking_score>
-12.0536

> <r_i_glide_ecoul>
-19.1494

> <r_i_glide_eff_state_penalty>
0

> <r_i_glide_einternal>
4.98536

> <r_i_glide_emodel>
-128.582

> <r_i_glide_energy>
-72.2382

> <r_i_glide_erotb>
0.267203

> <r_i_glide_esite>
-0.1

> <r_i_glide_evdw>
-53.0888

> <r_i_glide_gscore>
-12.0536

> <r_i_glide_hbond>
-0.814817

> <r_i_glide_ligand_efficiency>
-0.317201

> <r_i_glide_ligand_efficiency_ln>
-2.59912

> <r_i_glide_ligand_efficiency_sa>
-1.06642

> <r_i_glide_lipo>
-3.50689

> <r_i_glide_metal>
0

> <r_i_glide_rewards>
-2.37227

> <s_i_glide_gridfile>
wee1_glide-grid

> <s_m_Source_File>
wee1_actives_glide_SP.sdf

> <s_m_Source_Path>
/Users/zhangxujun/Desktop

> <s_m_entry_id>
257

> <s_m_entry_name>
wee1_actives_glide_SP.119

> <s_m_subgroup_title>
wee1_actives_glide_SP

> <s_m_subgroupid>
wee1_actives_glide_SP


$$$$
