@<TRIPOS>MOLECULE
CHEMBL209907_88
27   30    1
SMALL
USER_CHARGES


@<TRIPOS>ATOM
      1 C1          5.3261   54.5001   21.1757 C.ar      1 UNK         0.0000 
      2 C2          4.0558   54.0614   21.5448 C.ar      1 UNK         0.0000 
      3 C3          3.7832   53.9729   22.9116 C.ar      1 UNK         0.0000 
      4 C4          4.7543   54.2813   23.9065 C.ar      1 UNK         0.0000 
      5 C5          6.0325   54.7052   23.4883 C.ar      1 UNK         0.0000 
      6 C6          6.2901   54.8368   22.1215 C.ar      1 UNK         0.0000 
      7 O7          7.5043   55.2999   21.6924 O.3       1 UNK         0.0000 
      8 C8          4.1433   54.0718   25.1684 C.ar      1 UNK         0.0000 
      9 C9          2.8065   53.6341   24.9217 C.ar      1 UNK         0.0000 
     10 N10         2.6248   53.5982   23.5575 N.pl3     1 UNK         0.0000 
     11 H11         1.7727   53.3203   23.0932 H         1 UNK         0.0000 
     12 C12         1.9191   53.3009   25.9579 C.ar      1 UNK         0.0000 
     13 C13         2.3731   53.4522   27.2698 C.ar      1 UNK         0.0000 
     14 C14         3.6722   53.8811   27.5212 C.ar      1 UNK         0.0000 
     15 C15         4.5575   54.1747   26.5134 C.ar      1 UNK         0.0000 
     16 C16         5.8443   54.5598   27.1548 C.2       1 UNK         0.0000 
     17 O17         6.9026   54.8946   26.6275 O.2       1 UNK         0.0000 
     18 N18         5.6114   54.4942   28.4811 N.am      1 UNK         0.0000 
     19 C19         4.3613   54.1148   28.8149 C.2       1 UNK         0.0000 
     20 O20         3.9041   54.0070   29.9523 O.2       1 UNK         0.0000 
     21 H21         5.5525   54.5954   20.1227 H         1 UNK         0.0000 
     22 H22         3.3143   53.8188   20.7970 H         1 UNK         0.0000 
     23 H23         6.8068   54.9576   24.1941 H         1 UNK         0.0000 
     24 H24         7.5988   55.2944   20.7374 H         1 UNK         0.0000 
     25 H25         0.9142   52.9579   25.7580 H         1 UNK         0.0000 
     26 H26         1.7039   53.2206   28.0877 H         1 UNK         0.0000 
     27 H27         6.3140   54.7476   29.1611 H         1 UNK         0.0000 
@<TRIPOS>BOND
     1    1    6 ar   
     2    1    2 ar   
     3    1   21 1    
     4    2    3 ar   
     5    2   22 1    
     6    3   10 ar   
     7    3    4 ar   
     8    4    5 ar   
     9    4    8 ar   
    10    5    6 ar   
    11    5   23 1    
    12    6    7 1    
    13    7   24 1    
    14    8   15 ar   
    15    8    9 ar   
    16    9   10 ar   
    17    9   12 ar   
    18   10   11 1    
    19   12   13 ar   
    20   12   25 1    
    21   13   14 ar   
    22   13   26 1    
    23   14   19 1    
    24   14   15 ar   
    25   15   16 1    
    26   16   17 2    
    27   16   18 am   BACKBONE|DICT|INTERRES
    28   18   19 am   BACKBONE|DICT|INTERRES
    29   18   27 1    
    30   19   20 2    
@<TRIPOS>SUBSTRUCTURE
     1 UNK         1 GROUP             0       ****    0 ROOT    
