@<TRIPOS>MOLECULE
CHEMBL488572_103
48   52    1
SMALL
USER_CHARGES


@<TRIPOS>ATOM
      1 C1          5.6811   54.7654   21.0781 C.ar      1 UNK         0.0000 
      2 C2          4.3957   54.3264   21.3814 C.ar      1 UNK         0.0000 
      3 C3          4.0856   54.0981   22.7305 C.ar      1 UNK         0.0000 
      4 C4          5.0409   54.3303   23.7611 C.ar      1 UNK         0.0000 
      5 C5          6.3412   54.7409   23.4040 C.ar      1 UNK         0.0000 
      6 C6          6.6452   54.9573   22.0607 C.ar      1 UNK         0.0000 
      7 O7          7.9024   55.3624   21.6817 O.3       1 UNK         0.0000 
      8 C8          4.3901   54.0969   24.9977 C.ar      1 UNK         0.0000 
      9 C9          3.0516   53.6938   24.7087 C.ar      1 UNK         0.0000 
     10 N10         2.9124   53.6528   23.3274 N.pl3     1 UNK         0.0000 
     11 C11         1.7002   53.2355   22.6178 C.3       1 UNK         0.0000 
     12 C12         1.9581   52.0320   21.6696 C.3       1 UNK         0.0000 
     13 C13         0.6966   51.4573   21.0003 C.2       1 UNK         0.0000 
     14 O14        -0.4076   51.8787   21.3569 O.2       1 UNK         0.0000 
     15 N15         0.8306   50.4478   20.0984 N.am      1 UNK         0.0000 
     16 C16        -0.3525   49.7623   19.5479 C.3       1 UNK         0.0000 
     17 C17        -0.1703   48.2644   19.8779 C.3       1 UNK         0.0000 
     18 O18         1.0659   47.7659   19.3689 O.3       1 UNK         0.0000 
     19 C19         2.2206   48.4778   19.8227 C.3       1 UNK         0.0000 
     20 C20         2.1202   49.9913   19.5381 C.3       1 UNK         0.0000 
     21 C21         2.1290   53.3854   25.7316 C.ar      1 UNK         0.0000 
     22 C22         2.5551   53.5117   27.0530 C.ar      1 UNK         0.0000 
     23 C23         3.8542   53.9104   27.3382 C.ar      1 UNK         0.0000 
     24 C24         4.7671   54.1875   26.3561 C.ar      1 UNK         0.0000 
     25 C25         6.0337   54.5657   27.0342 C.2       1 UNK         0.0000 
     26 O26         7.1021   54.8977   26.5354 O.2       1 UNK         0.0000 
     27 N27         5.7726   54.4961   28.3540 N.am      1 UNK         0.0000 
     28 C28         4.5122   54.1269   28.6511 C.2       1 UNK         0.0000 
     29 O29         4.0259   54.0186   29.7770 O.2       1 UNK         0.0000 
     30 H30         5.9439   54.9512   20.0475 H         1 UNK         0.0000 
     31 H31         3.6705   54.1975   20.5895 H         1 UNK         0.0000 
     32 H32         7.1000   54.9081   24.1491 H         1 UNK         0.0000 
     33 H33         8.5434   55.3452   22.4086 H         1 UNK         0.0000 
     34 H34         1.3240   54.1007   22.0818 H         1 UNK         0.0000 
     35 H35         0.9287   52.9793   23.3445 H         1 UNK         0.0000 
     36 H36         2.4401   51.2268   22.2282 H         1 UNK         0.0000 
     37 H37         2.6301   52.3410   20.8742 H         1 UNK         0.0000 
     38 H38        -0.2958   49.9031   18.4657 H         1 UNK         0.0000 
     39 H39        -1.3127   50.1543   19.8905 H         1 UNK         0.0000 
     40 H40        -0.2026   48.1249   20.9589 H         1 UNK         0.0000 
     41 H41        -0.9938   47.6825   19.4654 H         1 UNK         0.0000 
     42 H42         2.3463   48.3167   20.8949 H         1 UNK         0.0000 
     43 H43         3.1040   48.0833   19.3238 H         1 UNK         0.0000 
     44 H44         3.0050   50.5245   19.8824 H         1 UNK         0.0000 
     45 H45         2.0346   50.1432   18.4608 H         1 UNK         0.0000 
     46 H46         1.1190   53.0690   25.5219 H         1 UNK         0.0000 
     47 H47         1.8592   53.2978   27.8502 H         1 UNK         0.0000 
     48 H48         6.4547   54.7556   29.0524 H         1 UNK         0.0000 
@<TRIPOS>BOND
     1    1    6 ar   
     2    1    2 ar   
     3    1   30 1    
     4    2    3 ar   
     5    2   31 1    
     6    3   10 ar   
     7    3    4 ar   
     8    4    5 ar   
     9    4    8 ar   
    10    5    6 ar   
    11    5   32 1    
    12    6    7 1    
    13    7   33 1    
    14    8   24 ar   
    15    8    9 ar   
    16    9   10 ar   
    17    9   21 ar   
    18   10   11 1    
    19   11   12 1    
    20   11   34 1    
    21   11   35 1    
    22   12   13 1    
    23   12   36 1    
    24   12   37 1    
    25   13   14 2    
    26   13   15 am   BACKBONE|DICT|INTERRES
    27   15   20 1    
    28   15   16 1    
    29   16   17 1    
    30   16   38 1    
    31   16   39 1    
    32   17   18 1    
    33   17   40 1    
    34   17   41 1    
    35   18   19 1    
    36   19   20 1    
    37   19   42 1    
    38   19   43 1    
    39   20   44 1    
    40   20   45 1    
    41   21   22 ar   
    42   21   46 1    
    43   22   23 ar   
    44   22   47 1    
    45   23   28 1    
    46   23   24 ar   
    47   24   25 1    
    48   25   26 2    
    49   25   27 am   BACKBONE|DICT|INTERRES
    50   27   28 am   BACKBONE|DICT|INTERRES
    51   27   48 1    
    52   28   29 2    
@<TRIPOS>SUBSTRUCTURE
     1 UNK         1 GROUP             0       ****    0 ROOT    
