@<TRIPOS>MOLECULE
CHEMBL472208_3
51   56    1
SMALL
USER_CHARGES


@<TRIPOS>ATOM
      1 C1          0.1608   51.8829   29.4615 C.ar      1 UNK         0.0000 
      2 C2         -0.0964   52.8443   30.4329 C.ar      1 UNK         0.0000 
      3 C3          0.4072   54.1335   30.2873 C.ar      1 UNK         0.0000 
      4 C4          1.2085   54.4546   29.1910 C.ar      1 UNK         0.0000 
      5 C5          1.5564   53.4584   28.2564 C.ar      1 UNK         0.0000 
      6 C6          0.9960   52.1823   28.3899 C.ar      1 UNK         0.0000 
      7 C7          2.5213   53.7008   27.1524 C.ar      1 UNK         0.0000 
      8 C8          2.0847   53.5848   25.8280 C.ar      1 UNK         0.0000 
      9 C9          3.0050   53.8177   24.7919 C.ar      1 UNK         0.0000 
     10 C10         4.3593   54.1582   25.0515 C.ar      1 UNK         0.0000 
     11 C11         4.9999   54.3475   23.8032 C.ar      1 UNK         0.0000 
     12 C12         6.3043   54.7256   23.4213 C.ar      1 UNK         0.0000 
     13 C13         6.5969   54.8967   22.0703 C.ar      1 UNK         0.0000 
     14 C14         5.6347   54.6413   21.0990 C.ar      1 UNK         0.0000 
     15 C15         4.3485   54.2152   21.4262 C.ar      1 UNK         0.0000 
     16 C16         4.0326   54.0972   22.7883 C.ar      1 UNK         0.0000 
     17 N17         2.8347   53.7840   23.4164 N.pl3     1 UNK         0.0000 
     18 C18         1.5702   53.4901   22.7453 C.3       1 UNK         0.0000 
     19 C19         1.1293   52.0257   22.9639 C.3       1 UNK         0.0000 
     20 S20        -0.5594   51.9771   23.7325 S.3       1 UNK         0.0000 
     21 O21        -1.5616   52.0734   22.5793 O.2       1 UNK         0.0000 
     22 C22        -0.5004   50.2054   24.2077 C.ar      1 UNK         0.0000 
     23 N23        -0.9886   49.2431   23.4340 N.2       1 UNK         0.0000 
     24 H24         0.2075   47.8629   26.0176 H         1 UNK         0.0000 
     25 C25        -0.7360   48.1637   24.1259 C.ar      1 UNK         0.0000 
     26 N26        -0.0958   48.4968   25.2818 N.pl3     1 UNK         0.0000 
     27 N27         0.0655   49.8164   25.3346 N.2       1 UNK         0.0000 
     28 O28         7.8506   55.2985   21.6817 O.3       1 UNK         0.0000 
     29 C29         4.7603   54.2460   26.3978 C.ar      1 UNK         0.0000 
     30 C30         3.8612   54.0147   27.4076 C.ar      1 UNK         0.0000 
     31 C31         4.6023   54.1596   28.6964 C.2       1 UNK         0.0000 
     32 O32         4.1877   54.0243   29.8456 O.2       1 UNK         0.0000 
     33 N33         5.8563   54.4965   28.3528 N.am      1 UNK         0.0000 
     34 C34         6.0569   54.5823   27.0287 C.2       1 UNK         0.0000 
     35 O35         7.1044   54.8968   26.4871 O.2       1 UNK         0.0000 
     36 Cl36        1.7382   56.0967   29.0208 Cl        1 UNK         0.0000 
     37 H37        -0.2707   50.8968   29.5530 H         1 UNK         0.0000 
     38 H38        -0.7189   52.5940   31.2802 H         1 UNK         0.0000 
     39 H39         0.1674   54.8879   31.0223 H         1 UNK         0.0000 
     40 H40         1.2245   51.4070   27.6719 H         1 UNK         0.0000 
     41 H41         1.0565   53.3341   25.6224 H         1 UNK         0.0000 
     42 H42         7.0736   54.9225   24.1461 H         1 UNK         0.0000 
     43 H43         5.8941   54.7673   20.0577 H         1 UNK         0.0000 
     44 H44         3.6239   54.0319   20.6459 H         1 UNK         0.0000 
     45 H45         1.6682   53.6966   21.6818 H         1 UNK         0.0000 
     46 H46         0.8403   54.2047   23.1268 H         1 UNK         0.0000 
     47 H47         1.8254   51.4692   23.5944 H         1 UNK         0.0000 
     48 H48         1.0777   51.4963   22.0120 H         1 UNK         0.0000 
     49 H49        -0.9734   47.1394   23.8843 H         1 UNK         0.0000 
     50 H50         8.4931   55.3010   22.4054 H         1 UNK         0.0000 
     51 H51         6.5758   54.7187   29.0269 H         1 UNK         0.0000 
@<TRIPOS>BOND
     1    1    6 ar   
     2    1    2 ar   
     3    1   37 1    
     4    2    3 ar   
     5    2   38 1    
     6    3    4 ar   
     7    3   39 1    
     8    4    5 ar   
     9    4   36 1    
    10    5    6 ar   
    11    5    7 1    
    12    6   40 1    
    13    7   30 ar   
    14    7    8 ar   
    15    8    9 ar   
    16    8   41 1    
    17    9   17 ar   
    18    9   10 ar   
    19   10   11 ar   
    20   10   29 ar   
    21   11   16 ar   
    22   11   12 ar   
    23   12   13 ar   
    24   12   42 1    
    25   13   14 ar   
    26   13   28 1    
    27   14   15 ar   
    28   14   43 1    
    29   15   16 ar   
    30   15   44 1    
    31   16   17 ar   
    32   17   18 1    
    33   18   19 1    
    34   18   45 1    
    35   18   46 1    
    36   19   20 1    
    37   19   47 1    
    38   19   48 1    
    39   20   21 2    
    40   20   22 1    
    41   22   23 ar   
    42   22   27 ar   
    43   23   25 ar   
    44   24   26 1    
    45   25   49 1    
    46   25   26 ar   
    47   26   27 ar   
    48   28   50 1    
    49   29   34 1    
    50   29   30 ar   
    51   30   31 1    
    52   31   32 2    
    53   31   33 am   BACKBONE|DICT|INTERRES
    54   33   34 am   BACKBONE|DICT|INTERRES
    55   33   51 1    
    56   34   35 2    
@<TRIPOS>SUBSTRUCTURE
     1 UNK         1 GROUP             0       ****    0 ROOT    
