@<TRIPOS>MOLECULE
CHEMBL271071_38
60   65    1
SMALL
USER_CHARGES


@<TRIPOS>ATOM
      1 C1          0.0402   51.8640   29.2817 C.ar      1 UNK         0.0000 
      2 C2         -0.2187   52.8028   30.2730 C.ar      1 UNK         0.0000 
      3 C3          0.3453   54.0723   30.1902 C.ar      1 UNK         0.0000 
      4 C4          1.1963   54.3970   29.1322 C.ar      1 UNK         0.0000 
      5 C5          1.5275   53.4250   28.1629 C.ar      1 UNK         0.0000 
      6 C6          0.9175   52.1663   28.2444 C.ar      1 UNK         0.0000 
      7 C7          2.5105   53.6703   27.0681 C.ar      1 UNK         0.0000 
      8 C8          2.0913   53.5453   25.7339 C.ar      1 UNK         0.0000 
      9 C9          3.0261   53.7844   24.7145 C.ar      1 UNK         0.0000 
     10 C10         4.3755   54.1345   24.9887 C.ar      1 UNK         0.0000 
     11 C11         5.0270   54.3258   23.7445 C.ar      1 UNK         0.0000 
     12 C12         6.3316   54.6920   23.3694 C.ar      1 UNK         0.0000 
     13 C13         6.6240   54.9003   22.0230 C.ar      1 UNK         0.0000 
     14 C14         5.6557   54.7097   21.0262 C.ar      1 UNK         0.0000 
     15 C15         4.3693   54.2514   21.3672 C.ar      1 UNK         0.0000 
     16 C16         4.0694   54.0967   22.7247 C.ar      1 UNK         0.0000 
     17 N17         2.8846   53.7505   23.3419 N.pl3     1 UNK         0.0000 
     18 H18         2.0291   53.5346   22.8513 H         1 UNK         0.0000 
     19 O19         6.0488   55.0153   19.7324 O.3       1 UNK         0.0000 
     20 C20         5.2284   54.7402   18.5970 C.3       1 UNK         0.0000 
     21 C21         5.6491   53.4077   17.9559 C.3       1 UNK         0.0000 
     22 C22         7.1443   53.3902   17.5876 C.3       1 UNK         0.0000 
     23 N23         7.5044   52.0971   16.8214 N.4       1 UNK         0.0000 
     24 C24         9.0248   51.8627   16.7287 C.3       1 UNK         0.0000 
     25 C25         9.1776   50.9124   15.5473 C.3       1 UNK         0.0000 
     26 C26         8.0855   51.3231   14.5605 C.3       1 UNK         0.0000 
     27 C27         7.0160   52.0896   15.3542 C.3       1 UNK         0.0000 
     28 O28         7.8999   55.2968   21.6818 O.3       1 UNK         0.0000 
     29 C29         4.7617   54.2249   26.3388 C.ar      1 UNK         0.0000 
     30 C30         3.8506   53.9864   27.3385 C.ar      1 UNK         0.0000 
     31 C31         4.5852   54.1161   28.6336 C.2       1 UNK         0.0000 
     32 O32         4.1709   53.9448   29.7784 O.2       1 UNK         0.0000 
     33 N33         5.8352   54.4845   28.3051 N.am      1 UNK         0.0000 
     34 C34         6.0509   54.5735   26.9836 C.2       1 UNK         0.0000 
     35 O35         7.1044   54.8980   26.4571 O.2       1 UNK         0.0000 
     36 Cl36        1.8037   56.0179   29.0625 Cl        1 UNK         0.0000 
     37 H37        -0.4344   50.8964   29.3273 H         1 UNK         0.0000 
     38 H38        -0.8864   52.5512   31.0877 H         1 UNK         0.0000 
     39 H39         0.1143   54.8091   30.9456 H         1 UNK         0.0000 
     40 H40         1.1328   51.4066   27.5057 H         1 UNK         0.0000 
     41 H41         1.0683   53.2860   25.5032 H         1 UNK         0.0000 
     42 H42         7.1028   54.8574   24.1012 H         1 UNK         0.0000 
     43 H43         3.5997   54.0756   20.6328 H         1 UNK         0.0000 
     44 H44         5.4076   55.5437   17.8812 H         1 UNK         0.0000 
     45 H45         4.1568   54.7827   18.7839 H         1 UNK         0.0000 
     46 H46         5.0376   53.2276   17.0720 H         1 UNK         0.0000 
     47 H47         5.4291   52.5917   18.6454 H         1 UNK         0.0000 
     48 H48         7.7665   53.4012   18.4817 H         1 UNK         0.0000 
     49 H49         7.4414   54.2291   16.9552 H         1 UNK         0.0000 
     50 H50         9.3885   51.4752   17.6807 H         1 UNK         0.0000 
     51 H51         9.4867   52.8345   16.5408 H         1 UNK         0.0000 
     52 H52         9.0595   49.8779   15.8735 H         1 UNK         0.0000 
     53 H53        10.1709   50.9863   15.1012 H         1 UNK         0.0000 
     54 H54         8.4998   51.9701   13.7843 H         1 UNK         0.0000 
     55 H55         7.6607   50.4592   14.0491 H         1 UNK         0.0000 
     56 H56         6.9514   53.1237   15.0099 H         1 UNK         0.0000 
     57 H57         6.0286   51.6237   15.3456 H         1 UNK         0.0000 
     58 H58         8.5164   55.2992   22.4278 H         1 UNK         0.0000 
     59 H59         6.5471   54.7078   28.9867 H         1 UNK         0.0000 
     60 H60         7.0718   51.3137   17.3067 H         1 UNK         0.0000 
@<TRIPOS>BOND
     1    1    6 ar   
     2    1    2 ar   
     3    1   37 1    
     4    2    3 ar   
     5    2   38 1    
     6    3    4 ar   
     7    3   39 1    
     8    4    5 ar   
     9    4   36 1    
    10    5    6 ar   
    11    5    7 1    
    12    6   40 1    
    13    7   30 ar   
    14    7    8 ar   
    15    8    9 ar   
    16    8   41 1    
    17    9   17 ar   
    18    9   10 ar   
    19   10   11 ar   
    20   10   29 ar   
    21   11   16 ar   
    22   11   12 ar   
    23   12   13 ar   
    24   12   42 1    
    25   13   14 ar   
    26   13   28 1    
    27   14   15 ar   
    28   14   19 1    
    29   15   16 ar   
    30   15   43 1    
    31   16   17 ar   
    32   17   18 1    
    33   19   20 1    
    34   20   21 1    
    35   20   44 1    
    36   20   45 1    
    37   21   22 1    
    38   21   46 1    
    39   21   47 1    
    40   22   23 1    
    41   22   48 1    
    42   22   49 1    
    43   23   27 1    
    44   23   24 1    
    45   23   60 1    
    46   24   25 1    
    47   24   50 1    
    48   24   51 1    
    49   25   26 1    
    50   25   52 1    
    51   25   53 1    
    52   26   27 1    
    53   26   54 1    
    54   26   55 1    
    55   27   56 1    
    56   27   57 1    
    57   28   58 1    
    58   29   34 1    
    59   29   30 ar   
    60   30   31 1    
    61   31   32 2    
    62   31   33 am   BACKBONE|DICT|INTERRES
    63   33   34 am   BACKBONE|DICT|INTERRES
    64   33   59 1    
    65   34   35 2    
@<TRIPOS>SUBSTRUCTURE
     1 UNK         1 GROUP             0       ****    0 ROOT    
