@<TRIPOS>MOLECULE
CHEMBL472208_2
50   55    1
SMALL
USER_CHARGES


@<TRIPOS>ATOM
      1 C1          0.0892   51.8680   29.4471 C.ar      1 UNK         0.0000 
      2 C2         -0.1452   52.7942   30.4571 C.ar      1 UNK         0.0000 
      3 C3          0.4171   54.0654   30.3847 C.ar      1 UNK         0.0000 
      4 C4          1.2524   54.4033   29.3195 C.ar      1 UNK         0.0000 
      5 C5          1.5667   53.4413   28.3367 C.ar      1 UNK         0.0000 
      6 C6          0.9511   52.1848   28.4028 C.ar      1 UNK         0.0000 
      7 C7          2.5332   53.6973   27.2355 C.ar      1 UNK         0.0000 
      8 C8          2.0849   53.6098   25.9134 C.ar      1 UNK         0.0000 
      9 C9          2.9969   53.8553   24.8751 C.ar      1 UNK         0.0000 
     10 C10         4.3616   54.1646   25.1212 C.ar      1 UNK         0.0000 
     11 C11         4.9951   54.3584   23.8651 C.ar      1 UNK         0.0000 
     12 C12         6.3038   54.7089   23.4592 C.ar      1 UNK         0.0000 
     13 C13         6.5682   54.8970   22.1010 C.ar      1 UNK         0.0000 
     14 C14         5.5806   54.6727   21.1485 C.ar      1 UNK         0.0000 
     15 C15         4.2916   54.2777   21.4995 C.ar      1 UNK         0.0000 
     16 C16         4.0030   54.1532   22.8658 C.ar      1 UNK         0.0000 
     17 N17         2.8024   53.8866   23.5076 N.pl3     1 UNK         0.0000 
     18 C18         1.5199   53.7083   22.8407 C.3       1 UNK         0.0000 
     19 C19         1.3656   52.3063   22.2169 C.3       1 UNK         0.0000 
     20 S20         0.8689   51.0397   23.4826 S.3       1 UNK         0.0000 
     21 O21         0.5818   49.7583   22.6976 O.2       1 UNK         0.0000 
     22 C22        -0.7896   51.7473   23.8805 C.ar      1 UNK         0.0000 
     23 N23        -1.1675   52.0014   25.1089 N.ar      1 UNK         0.0000 
     24 C24        -2.3630   52.4951   24.9230 C.ar      1 UNK         0.0000 
     25 N25        -2.7456   52.5751   23.6802 N.2       1 UNK         0.0000 
     26 N26        -1.6845   52.0610   22.9759 N.ar      1 UNK         0.0000 
     27 O27         7.8131   55.2976   21.6820 O.3       1 UNK         0.0000 
     28 C28         4.7721   54.2264   26.4654 C.ar      1 UNK         0.0000 
     29 C29         3.8803   53.9878   27.4812 C.ar      1 UNK         0.0000 
     30 C30         4.6378   54.0967   28.7624 C.2       1 UNK         0.0000 
     31 O31         4.2346   53.9366   29.9123 O.2       1 UNK         0.0000 
     32 N32         5.8890   54.4373   28.4114 N.am      1 UNK         0.0000 
     33 C33         6.0723   54.5552   27.0871 C.2       1 UNK         0.0000 
     34 O34         7.1044   54.8988   26.5353 O.2       1 UNK         0.0000 
     35 Cl35        1.8585   56.0265   29.2532 Cl        1 UNK         0.0000 
     36 H36        -0.3839   50.8967   29.4840 H         1 UNK         0.0000 
     37 H37        -0.7966   52.5310   31.2773 H         1 UNK         0.0000 
     38 H38         0.1971   54.7921   31.1530 H         1 UNK         0.0000 
     39 H39         1.1492   51.4381   27.6461 H         1 UNK         0.0000 
     40 H40         1.0521   53.3738   25.7085 H         1 UNK         0.0000 
     41 H41         7.0911   54.8775   24.1728 H         1 UNK         0.0000 
     42 H42         5.8180   54.8102   20.1035 H         1 UNK         0.0000 
     43 H43         3.5373   54.1280   20.7395 H         1 UNK         0.0000 
     44 H44         1.4704   54.4784   22.0817 H         1 UNK         0.0000 
     45 H45         0.7052   53.9523   23.5229 H         1 UNK         0.0000 
     46 H46         2.2765   51.9818   21.7132 H         1 UNK         0.0000 
     47 H47         0.5904   52.3241   21.4506 H         1 UNK         0.0000 
     48 H48        -2.9866   52.8204   25.7430 H         1 UNK         0.0000 
     49 H49         8.4695   55.2998   22.3927 H         1 UNK         0.0000 
     50 H50         6.6139   54.6533   29.0815 H         1 UNK         0.0000 
@<TRIPOS>BOND
     1    1    6 ar   
     2    1    2 ar   
     3    1   36 1    
     4    2    3 ar   
     5    2   37 1    
     6    3    4 ar   
     7    3   38 1    
     8    4    5 ar   
     9    4   35 1    
    10    5    6 ar   
    11    5    7 1    
    12    6   39 1    
    13    7   29 ar   
    14    7    8 ar   
    15    8    9 ar   
    16    8   40 1    
    17    9   17 ar   
    18    9   10 ar   
    19   10   11 ar   
    20   10   28 ar   
    21   11   16 ar   
    22   11   12 ar   
    23   12   13 ar   
    24   12   41 1    
    25   13   14 ar   
    26   13   27 1    
    27   14   15 ar   
    28   14   42 1    
    29   15   16 ar   
    30   15   43 1    
    31   16   17 ar   
    32   17   18 1    
    33   18   19 1    
    34   18   44 1    
    35   18   45 1    
    36   19   20 1    
    37   19   46 1    
    38   19   47 1    
    39   20   21 2    
    40   20   22 1    
    41   22   23 ar   
    42   22   26 ar   
    43   23   24 ar   
    44   24   48 1    
    45   24   25 ar   
    46   25   26 ar   
    47   27   49 1    
    48   28   33 1    
    49   28   29 ar   
    50   29   30 1    
    51   30   31 2    
    52   30   32 am   BACKBONE|DICT|INTERRES
    53   32   33 am   BACKBONE|DICT|INTERRES
    54   32   50 1    
    55   33   34 2    
@<TRIPOS>SUBSTRUCTURE
     1 UNK         1 GROUP             0       ****    0 ROOT    
