@<TRIPOS>MOLECULE
CHEMBL404335_113
63   68    1
SMALL
USER_CHARGES


@<TRIPOS>ATOM
      1 C1          1.5484   53.3861   22.7762 C.3       1 UNK         0.0000 
      2 N2          2.7953   53.7650   23.4289 N.pl3     1 UNK         0.0000 
      3 C3          2.9792   53.8085   24.8003 C.ar      1 UNK         0.0000 
      4 C4          2.0733   53.5624   25.8456 C.ar      1 UNK         0.0000 
      5 C5          2.5236   53.6963   27.1647 C.ar      1 UNK         0.0000 
      6 C6          3.8663   54.0171   27.4044 C.ar      1 UNK         0.0000 
      7 C7          4.7527   54.2543   26.3853 C.ar      1 UNK         0.0000 
      8 C8          4.3327   54.1688   25.0442 C.ar      1 UNK         0.0000 
      9 C9          4.9557   54.3617   23.7888 C.ar      1 UNK         0.0000 
     10 C10         3.9818   54.0965   22.7897 C.ar      1 UNK         0.0000 
     11 C11         4.2824   54.1900   21.4266 C.ar      1 UNK         0.0000 
     12 C12         5.5578   54.6254   21.0620 C.ar      1 UNK         0.0000 
     13 C13         6.5331   54.8967   22.0333 C.ar      1 UNK         0.0000 
     14 C14         6.2516   54.7413   23.3889 C.ar      1 UNK         0.0000 
     15 O15         7.8012   55.2973   21.6814 O.3       1 UNK         0.0000 
     16 S16         5.9581   54.7756   19.3332 S.3       1 UNK         0.0000 
     17 C17         4.4914   55.2920   18.3819 C.3       1 UNK         0.0000 
     18 C18         4.2269   54.4737   17.1014 C.3       1 UNK         0.0000 
     19 C19         4.0225   52.9585   17.3169 C.3       1 UNK         0.0000 
     20 N20         2.8611   52.6887   18.2980 N.4       1 UNK         0.0000 
     21 C21         2.6844   51.1984   18.6363 C.3       1 UNK         0.0000 
     22 C22         1.2902   51.1245   19.2520 C.3       1 UNK         0.0000 
     23 C23         0.4907   52.2841   18.6494 C.3       1 UNK         0.0000 
     24 C24         1.4653   53.1149   17.8086 C.3       1 UNK         0.0000 
     25 C25         6.0601   54.5840   27.0007 C.2       1 UNK         0.0000 
     26 O26         7.1044   54.8968   26.4501 O.2       1 UNK         0.0000 
     27 N27         5.8744   54.4965   28.3255 N.am      1 UNK         0.0000 
     28 C28         4.6248   54.1605   28.6836 C.2       1 UNK         0.0000 
     29 O29         4.2270   54.0234   29.8381 O.2       1 UNK         0.0000 
     30 C30         1.5700   53.4537   28.2781 C.ar      1 UNK         0.0000 
     31 C31         1.0092   52.1776   28.4134 C.ar      1 UNK         0.0000 
     32 C32         0.1670   51.8813   29.4793 C.ar      1 UNK         0.0000 
     33 C33        -0.0960   52.8462   30.4450 C.ar      1 UNK         0.0000 
     34 C34         0.4149   54.1329   30.3038 C.ar      1 UNK         0.0000 
     35 C35         1.2242   54.4511   29.2124 C.ar      1 UNK         0.0000 
     36 Cl36        1.7601   56.0917   29.0442 Cl        1 UNK         0.0000 
     37 H37         1.4316   52.3036   22.8311 H         1 UNK         0.0000 
     38 H38         0.7099   53.8669   23.2821 H         1 UNK         0.0000 
     39 H39         1.5472   53.6967   21.7328 H         1 UNK         0.0000 
     40 H40         1.0467   53.2930   25.6468 H         1 UNK         0.0000 
     41 H41         3.5380   53.9600   20.6847 H         1 UNK         0.0000 
     42 H42         7.0261   54.9464   24.1071 H         1 UNK         0.0000 
     43 H43         8.4292   55.2971   22.4168 H         1 UNK         0.0000 
     44 H44         4.6457   56.3365   18.1097 H         1 UNK         0.0000 
     45 H45         3.6046   55.2970   19.0111 H         1 UNK         0.0000 
     46 H46         5.0716   54.6094   16.4237 H         1 UNK         0.0000 
     47 H47         3.3673   54.8902   16.5751 H         1 UNK         0.0000 
     48 H48         4.8999   52.4967   17.7719 H         1 UNK         0.0000 
     49 H49         3.7920   52.4243   16.3931 H         1 UNK         0.0000 
     50 H50         3.5043   50.8797   19.2817 H         1 UNK         0.0000 
     51 H51         2.7474   50.6523   17.6915 H         1 UNK         0.0000 
     52 H52         1.3561   51.2172   20.3372 H         1 UNK         0.0000 
     53 H53         0.8241   50.1601   19.0411 H         1 UNK         0.0000 
     54 H54        -0.3296   51.9193   18.0290 H         1 UNK         0.0000 
     55 H55         0.0505   52.8962   19.4371 H         1 UNK         0.0000 
     56 H56         1.4205   52.8567   16.7481 H         1 UNK         0.0000 
     57 H57         1.3733   54.1964   17.9169 H         1 UNK         0.0000 
     58 H58         6.6019   54.7169   28.9923 H         1 UNK         0.0000 
     59 H59         1.2397   51.4010   27.6969 H         1 UNK         0.0000 
     60 H60        -0.2695   50.8968   29.5696 H         1 UNK         0.0000 
     61 H61        -0.7321   52.5977   31.2816 H         1 UNK         0.0000 
     62 H62         0.1725   54.8892   31.0366 H         1 UNK         0.0000 
     63 H63         3.0752   53.1828   19.1506 H         1 UNK         0.0000 
@<TRIPOS>BOND
     1    1    2 1    
     2    1   37 1    
     3    1   38 1    
     4    1   39 1    
     5    2   10 ar   
     6    2    3 ar   
     7    3    8 ar   
     8    3    4 ar   
     9    4    5 ar   
    10    4   40 1    
    11    5    6 ar   
    12    5   30 1    
    13    6   28 1    
    14    6    7 ar   
    15    7    8 ar   
    16    7   25 1    
    17    8    9 ar   
    18    9   14 ar   
    19    9   10 ar   
    20   10   11 ar   
    21   11   12 ar   
    22   11   41 1    
    23   12   13 ar   
    24   12   16 1    
    25   13   14 ar   
    26   13   15 1    
    27   14   42 1    
    28   15   43 1    
    29   16   17 1    
    30   17   18 1    
    31   17   44 1    
    32   17   45 1    
    33   18   19 1    
    34   18   46 1    
    35   18   47 1    
    36   19   20 1    
    37   19   48 1    
    38   19   49 1    
    39   20   24 1    
    40   20   21 1    
    41   20   63 1    
    42   21   22 1    
    43   21   50 1    
    44   21   51 1    
    45   22   23 1    
    46   22   52 1    
    47   22   53 1    
    48   23   24 1    
    49   23   54 1    
    50   23   55 1    
    51   24   56 1    
    52   24   57 1    
    53   25   26 2    
    54   25   27 am   BACKBONE|DICT|INTERRES
    55   27   28 am   BACKBONE|DICT|INTERRES
    56   27   58 1    
    57   28   29 2    
    58   30   35 ar   
    59   30   31 ar   
    60   31   32 ar   
    61   31   59 1    
    62   32   33 ar   
    63   32   60 1    
    64   33   34 ar   
    65   33   61 1    
    66   34   35 ar   
    67   34   62 1    
    68   35   36 1    
@<TRIPOS>SUBSTRUCTURE
     1 UNK         1 GROUP             0       ****    0 ROOT    
