CHEMBL486101_105
                    3D
 Schrodinger Suite 2024-2.
 58 63  0  0  1  0            999 V2000
   -0.1712   52.9097   30.4543 C   0  0  0  0  0  0
    0.0385   51.9383   29.4880 C   0  0  0  0  0  0
    0.8819   52.1878   28.4119 C   0  0  0  0  0  0
    1.5188   53.4400   28.2724 C   0  0  0  0  0  0
    1.2098   54.4498   29.2089 C   0  0  0  0  0  0
    0.3954   54.1706   30.3058 C   0  0  0  0  0  0
    1.7934   56.0736   29.0304 Cl  0  0  0  0  0  0
    2.4977   53.6849   27.1706 C   0  0  0  0  0  0
    2.0646   53.5851   25.8433 C   0  0  0  0  0  0
    2.9880   53.8148   24.8118 C   0  0  0  0  0  0
    4.3397   54.1579   25.0680 C   0  0  0  0  0  0
    4.9734   54.3518   23.8172 C   0  0  0  0  0  0
    6.2750   54.7318   23.4294 C   0  0  0  0  0  0
    6.5630   54.8969   22.0757 C   0  0  0  0  0  0
    5.5982   54.6347   21.1085 C   0  0  0  0  0  0
    4.3133   54.2068   21.4418 C   0  0  0  0  0  0
    4.0011   54.0967   22.8052 C   0  0  0  0  0  0
    2.8112   53.7618   23.4395 N   0  0  0  0  0  0
    1.5495   53.3955   22.8000 C   0  0  0  0  0  0
    1.2679   51.8734   22.9591 C   0  0  0  0  0  0
   -0.2257   51.4784   22.9664 C   0  0  0  0  0  0
   -1.0739   52.3629   22.8150 O   0  0  0  0  0  0
   -0.5704   50.1837   23.2111 N   0  0  0  0  0  0
    0.4108   49.0779   23.2561 C   0  0  0  0  0  0
    0.0670   48.2061   24.4861 C   0  0  0  0  0  0
   -1.2952   47.7944   24.4702 O   0  0  0  0  0  0
   -2.2009   48.8932   24.4802 C   0  0  0  0  0  0
   -1.9938   49.7851   23.2375 C   0  0  0  0  0  0
    7.8137   55.3070   21.6817 O   0  0  0  0  0  0
    4.7444   54.2381   26.4132 C   0  0  0  0  0  0
    3.8429   53.9957   27.4228 C   0  0  0  0  0  0
    4.5856   54.1287   28.7096 C   0  0  0  0  0  0
    4.1700   53.9787   29.8565 O   0  0  0  0  0  0
    5.8411   54.4738   28.3708 N   0  0  0  0  0  0
    6.0470   54.5689   27.0475 C   0  0  0  0  0  0
    7.1044   54.8863   26.5119 O   0  0  0  0  0  0
    1.1022   50.8967   27.2815 Cl  0  0  0  0  0  0
   -0.8264   52.6923   31.2832 H   0  0  0  0  0  0
   -0.4527   50.9775   29.5862 H   0  0  0  0  0  0
    0.1865   54.9399   31.0366 H   0  0  0  0  0  0
    1.0387   53.3273   25.6258 H   0  0  0  0  0  0
    7.0427   54.9290   24.1566 H   0  0  0  0  0  0
    5.8530   54.7545   20.0650 H   0  0  0  0  0  0
    3.5849   54.0138   20.6655 H   0  0  0  0  0  0
    1.5780   53.6828   21.7474 H   0  0  0  0  0  0
    0.7775   54.0112   23.2652 H   0  0  0  0  0  0
    1.7006   51.5040   23.8906 H   0  0  0  0  0  0
    1.7566   51.3444   22.1399 H   0  0  0  0  0  0
    1.4524   49.3919   23.3373 H   0  0  0  0  0  0
    0.2485   48.5020   22.3453 H   0  0  0  0  0  0
    0.7016   47.3222   24.5169 H   0  0  0  0  0  0
    0.2725   48.7648   25.4011 H   0  0  0  0  0  0
   -3.2238   48.5186   24.5154 H   0  0  0  0  0  0
   -2.0559   49.4856   25.3869 H   0  0  0  0  0  0
   -2.1609   49.1902   22.3388 H   0  0  0  0  0  0
   -2.6865   50.6271   23.2771 H   0  0  0  0  0  0
    8.4637   55.3138   22.3997 H   0  0  0  0  0  0
    6.5590   54.6892   29.0470 H   0  0  0  0  0  0
  1  6  2  0  0  0
  1  2  1  0  0  0
  1 38  1  0  0  0
  2  3  2  0  0  0
  2 39  1  0  0  0
  3  4  1  0  0  0
  3 37  1  0  0  0
  4  5  2  0  0  0
  4  8  1  0  0  0
  5  6  1  0  0  0
  5  7  1  0  0  0
  6 40  1  0  0  0
  8 31  2  0  0  0
  8  9  1  0  0  0
  9 10  2  0  0  0
  9 41  1  0  0  0
 10 18  1  0  0  0
 10 11  1  0  0  0
 11 12  1  0  0  0
 11 30  2  0  0  0
 12 17  2  0  0  0
 12 13  1  0  0  0
 13 14  2  0  0  0
 13 42  1  0  0  0
 14 15  1  0  0  0
 14 29  1  0  0  0
 15 16  2  0  0  0
 15 43  1  0  0  0
 16 17  1  0  0  0
 16 44  1  0  0  0
 17 18  1  0  0  0
 18 19  1  0  0  0
 19 20  1  0  0  0
 19 45  1  0  0  0
 19 46  1  0  0  0
 20 21  1  0  0  0
 20 47  1  0  0  0
 20 48  1  0  0  0
 21 22  2  0  0  0
 21 23  1  0  0  0
 23 28  1  0  0  0
 23 24  1  0  0  0
 24 25  1  0  0  0
 24 49  1  0  0  0
 24 50  1  0  0  0
 25 26  1  0  0  0
 25 51  1  0  0  0
 25 52  1  0  0  0
 26 27  1  0  0  0
 27 28  1  0  0  0
 27 53  1  0  0  0
 27 54  1  0  0  0
 28 55  1  0  0  0
 28 56  1  0  0  0
 29 57  1  0  0  0
 30 35  1  0  0  0
 30 31  1  0  0  0
 31 32  1  0  0  0
 32 33  2  0  0  0
 32 34  1  0  0  0
 34 35  1  0  0  0
 34 58  1  0  0  0
 35 36  2  0  0  0
M  END
> <i_i_glide_confnum>
36

> <i_i_glide_lignum>
106

> <i_i_glide_posenum>
170

> <i_i_glide_rotatable_bonds>
6

> <i_m_Source_File_Index>
24

> <b_m_subgroup_collapsed>
0

> <r_i_docking_score>
-11.7022

> <r_i_glide_ecoul>
-14.9862

> <r_i_glide_eff_state_penalty>
0

> <r_i_glide_einternal>
5.3194

> <r_i_glide_emodel>
-117.55

> <r_i_glide_energy>
-71.1356

> <r_i_glide_erotb>
0.199599

> <r_i_glide_esite>
-0.000613137

> <r_i_glide_evdw>
-56.1494

> <r_i_glide_gscore>
-11.7022

> <r_i_glide_hbond>
-0.888478

> <r_i_glide_ligand_efficiency>
-0.316275

> <r_i_glide_ligand_efficiency_ln>
-2.53793

> <r_i_glide_ligand_efficiency_sa>
-1.0539

> <r_i_glide_lipo>
-3.91101

> <r_i_glide_metal>
0

> <r_i_glide_rewards>
-2.0463

> <s_i_glide_gridfile>
wee1_glide-grid

> <s_m_Source_File>
wee1_actives_glide_SP.sdf

> <s_m_Source_Path>
/Users/zhangxujun/Desktop

> <s_m_entry_id>
162

> <s_m_entry_name>
wee1_actives_glide_SP.24

> <s_m_subgroup_title>
wee1_actives_glide_SP

> <s_m_subgroupid>
wee1_actives_glide_SP


$$$$
