@<TRIPOS>MOLECULE
CHEMBL258067_43
70   75    1
SMALL
USER_CHARGES


@<TRIPOS>ATOM
      1 C1          0.6323   54.2509   30.5826 C.ar      1 UNK         0.0000 
      2 C2         -0.0925   53.0731   30.7036 C.ar      1 UNK         0.0000 
      3 C3         -0.0626   52.1272   29.6825 C.ar      1 UNK         0.0000 
      4 C4          0.7458   52.3250   28.5630 C.ar      1 UNK         0.0000 
      5 C5          1.5555   53.4789   28.4664 C.ar      1 UNK         0.0000 
      6 C6          1.4360   54.4557   29.4667 C.ar      1 UNK         0.0000 
      7 C7          2.5254   53.6981   27.3504 C.ar      1 UNK         0.0000 
      8 C8          2.0640   53.6113   26.0334 C.ar      1 UNK         0.0000 
      9 C9          2.9610   53.8510   24.9849 C.ar      1 UNK         0.0000 
     10 C10         4.3245   54.1765   25.2023 C.ar      1 UNK         0.0000 
     11 C11         4.9273   54.3664   23.9320 C.ar      1 UNK         0.0000 
     12 C12         6.2180   54.7258   23.4936 C.ar      1 UNK         0.0000 
     13 C13         6.4602   54.8965   22.1281 C.ar      1 UNK         0.0000 
     14 C14         5.4587   54.6542   21.1771 C.ar      1 UNK         0.0000 
     15 C15         4.1761   54.2639   21.5867 C.ar      1 UNK         0.0000 
     16 C16         3.9205   54.1414   22.9561 C.ar      1 UNK         0.0000 
     17 N17         2.7432   53.8394   23.6224 N.pl3     1 UNK         0.0000 
     18 C18         1.4656   53.5200   22.9956 C.3       1 UNK         0.0000 
     19 C19         1.2476   52.0030   22.8288 C.3       1 UNK         0.0000 
     20 O20         2.2970   51.4211   22.0827 O.3       1 UNK         0.0000 
     21 C21         5.7850   54.8549   19.6867 C.3       1 UNK         0.0000 
     22 C22         4.6833   54.5309   18.6489 C.3       1 UNK         0.0000 
     23 C23         4.3659   53.0300   18.4938 C.3       1 UNK         0.0000 
     24 C24         3.0848   52.7954   17.6701 C.3       1 UNK         0.0000 
     25 N25         2.7041   51.2969   17.5806 N.4       1 UNK         0.0000 
     26 C26         1.5679   51.0979   16.5479 C.3       1 UNK         0.0000 
     27 C27         1.1173   49.6249   16.5216 C.3       1 UNK         0.0000 
     28 O28         0.7971   49.1541   17.8277 O.3       1 UNK         0.0000 
     29 C29         1.8723   49.2199   18.7573 C.3       1 UNK         0.0000 
     30 C30         2.3507   50.6693   18.9486 C.3       1 UNK         0.0000 
     31 O31         7.7099   55.2977   21.7233 O.3       1 UNK         0.0000 
     32 C32         4.7570   54.2472   26.5383 C.ar      1 UNK         0.0000 
     33 C33         3.8794   54.0118   27.5715 C.ar      1 UNK         0.0000 
     34 C34         4.6605   54.1686   28.8377 C.2       1 UNK         0.0000 
     35 O35         4.2849   54.0554   30.0012 O.2       1 UNK         0.0000 
     36 N36         5.9047   54.4966   28.4586 N.am      1 UNK         0.0000 
     37 C37         6.0723   54.5783   27.1308 C.2       1 UNK         0.0000 
     38 O38         7.1044   54.8963   26.5579 O.2       1 UNK         0.0000 
     39 Cl39        0.7055   51.1120   27.3286 Cl        1 UNK         0.0000 
     40 H40         0.5850   54.9990   31.3625 H         1 UNK         0.0000 
     41 H41        -0.6966   52.8969   31.5823 H         1 UNK         0.0000 
     42 H42        -0.6657   51.2321   29.7671 H         1 UNK         0.0000 
     43 H43         2.0070   55.3716   29.4006 H         1 UNK         0.0000 
     44 H44         1.0313   53.3758   25.8364 H         1 UNK         0.0000 
     45 H45         7.0145   54.9071   24.1937 H         1 UNK         0.0000 
     46 H46         3.3815   54.1010   20.8748 H         1 UNK         0.0000 
     47 H47         0.6724   53.9223   23.6270 H         1 UNK         0.0000 
     48 H48         1.3411   54.0746   22.0743 H         1 UNK         0.0000 
     49 H49         1.2697   51.5104   23.8017 H         1 UNK         0.0000 
     50 H50         0.2863   51.7903   22.3602 H         1 UNK         0.0000 
     51 H51         2.4601   51.9668   21.3110 H         1 UNK         0.0000 
     52 H52         6.6807   54.2806   19.4446 H         1 UNK         0.0000 
     53 H53         6.0664   55.9029   19.5669 H         1 UNK         0.0000 
     54 H54         5.0038   54.9130   17.6777 H         1 UNK         0.0000 
     55 H55         3.7814   55.0960   18.8897 H         1 UNK         0.0000 
     56 H56         4.2814   52.5705   19.4750 H         1 UNK         0.0000 
     57 H57         5.2078   52.5317   18.0131 H         1 UNK         0.0000 
     58 H58         3.2332   53.1278   16.6401 H         1 UNK         0.0000 
     59 H59         2.2179   53.3081   18.0932 H         1 UNK         0.0000 
     60 H60         1.9804   51.3782   15.5776 H         1 UNK         0.0000 
     61 H61         0.7514   51.7684   16.8176 H         1 UNK         0.0000 
     62 H62         0.2450   49.5067   15.8811 H         1 UNK         0.0000 
     63 H63         1.9045   49.0040   16.0937 H         1 UNK         0.0000 
     64 H64         1.5471   48.7993   19.7087 H         1 UNK         0.0000 
     65 H65         2.7045   48.6027   18.4120 H         1 UNK         0.0000 
     66 H66         1.5931   51.2984   19.4145 H         1 UNK         0.0000 
     67 H67         3.2691   50.6587   19.5340 H         1 UNK         0.0000 
     68 H68         8.3586   55.3096   22.4427 H         1 UNK         0.0000 
     69 H69         6.6420   54.7263   29.1123 H         1 UNK         0.0000 
     70 H70         3.4975   50.7458   17.2387 H         1 UNK         0.0000 
@<TRIPOS>BOND
     1    1    6 ar   
     2    1    2 ar   
     3    1   40 1    
     4    2    3 ar   
     5    2   41 1    
     6    3    4 ar   
     7    3   42 1    
     8    4    5 ar   
     9    4   39 1    
    10    5    6 ar   
    11    5    7 1    
    12    6   43 1    
    13    7   33 ar   
    14    7    8 ar   
    15    8    9 ar   
    16    8   44 1    
    17    9   17 ar   
    18    9   10 ar   
    19   10   11 ar   
    20   10   32 ar   
    21   11   16 ar   
    22   11   12 ar   
    23   12   13 ar   
    24   12   45 1    
    25   13   14 ar   
    26   13   31 1    
    27   14   15 ar   
    28   14   21 1    
    29   15   16 ar   
    30   15   46 1    
    31   16   17 ar   
    32   17   18 1    
    33   18   19 1    
    34   18   47 1    
    35   18   48 1    
    36   19   20 1    
    37   19   49 1    
    38   19   50 1    
    39   20   51 1    
    40   21   22 1    
    41   21   52 1    
    42   21   53 1    
    43   22   23 1    
    44   22   54 1    
    45   22   55 1    
    46   23   24 1    
    47   23   56 1    
    48   23   57 1    
    49   24   25 1    
    50   24   58 1    
    51   24   59 1    
    52   25   30 1    
    53   25   26 1    
    54   25   70 1    
    55   26   27 1    
    56   26   60 1    
    57   26   61 1    
    58   27   28 1    
    59   27   62 1    
    60   27   63 1    
    61   28   29 1    
    62   29   30 1    
    63   29   64 1    
    64   29   65 1    
    65   30   66 1    
    66   30   67 1    
    67   31   68 1    
    68   32   37 1    
    69   32   33 ar   
    70   33   34 1    
    71   34   35 2    
    72   34   36 am   BACKBONE|DICT|INTERRES
    73   36   37 am   BACKBONE|DICT|INTERRES
    74   36   69 1    
    75   37   38 2    
@<TRIPOS>SUBSTRUCTURE
     1 UNK         1 GROUP             0       ****    0 ROOT    
