@<TRIPOS>MOLECULE
CHEMBL486665_110
53   58    1
SMALL
USER_CHARGES


@<TRIPOS>ATOM
      1 C1          0.0960   51.8726   29.3983 C.ar      1 UNK         0.0000 
      2 C2         -0.1816   52.8220   30.3745 C.ar      1 UNK         0.0000 
      3 C3          0.3563   54.1004   30.2710 C.ar      1 UNK         0.0000 
      4 C4          1.2003   54.4262   29.2069 C.ar      1 UNK         0.0000 
      5 C5          1.5467   53.4467   28.2516 C.ar      1 UNK         0.0000 
      6 C6          0.9698   52.1743   28.3592 C.ar      1 UNK         0.0000 
      7 C7          2.5151   53.6943   27.1469 C.ar      1 UNK         0.0000 
      8 C8          2.0850   53.5648   25.8179 C.ar      1 UNK         0.0000 
      9 C9          3.0104   53.7811   24.7824 C.ar      1 UNK         0.0000 
     10 C10         4.3585   54.1502   25.0487 C.ar      1 UNK         0.0000 
     11 C11         5.0057   54.3417   23.8041 C.ar      1 UNK         0.0000 
     12 C12         6.3036   54.7462   23.4262 C.ar      1 UNK         0.0000 
     13 C13         6.6040   54.8968   22.0737 C.ar      1 UNK         0.0000 
     14 C14         5.6572   54.5994   21.0994 C.ar      1 UNK         0.0000 
     15 C15         4.3802   54.1462   21.4243 C.ar      1 UNK         0.0000 
     16 C16         4.0562   54.0490   22.7858 C.ar      1 UNK         0.0000 
     17 N17         2.8642   53.6962   23.4042 N.pl3     1 UNK         0.0000 
     18 C18         1.6537   53.2785   22.6937 C.3       1 UNK         0.0000 
     19 C19         1.5462   51.7403   22.5482 C.3       1 UNK         0.0000 
     20 C20         0.8685   50.9912   23.7207 C.3       1 UNK         0.0000 
     21 N21        -0.4720   51.4983   24.0181 N.pl3     1 UNK         0.0000 
     22 C22        -1.4347   51.9452   23.1441 C.ar      1 UNK         0.0000 
     23 C23        -2.5141   52.3169   23.9321 C.ar      1 UNK         0.0000 
     24 N24        -2.2827   52.1027   25.2150 N.2       1 UNK         0.0000 
     25 C25        -1.0747   51.5945   25.2514 C.ar      1 UNK         0.0000 
     26 O26         7.8462   55.3306   21.6817 O.3       1 UNK         0.0000 
     27 C27         4.7550   54.2488   26.3960 C.ar      1 UNK         0.0000 
     28 C28         3.8536   54.0131   27.4031 C.ar      1 UNK         0.0000 
     29 C29         4.5955   54.1488   28.6935 C.2       1 UNK         0.0000 
     30 O30         4.1856   53.9975   29.8418 O.2       1 UNK         0.0000 
     31 N31         5.8474   54.4947   28.3531 N.am      1 UNK         0.0000 
     32 C32         6.0522   54.5841   27.0301 C.2       1 UNK         0.0000 
     33 O33         7.1044   54.8972   26.4949 O.2       1 UNK         0.0000 
     34 Cl34        1.7867   56.0550   29.1160 Cl        1 UNK         0.0000 
     35 H35        -0.3584   50.8964   29.4616 H         1 UNK         0.0000 
     36 H36        -0.8411   52.5707   31.1950 H         1 UNK         0.0000 
     37 H37         0.1131   54.8438   31.0157 H         1 UNK         0.0000 
     38 H38         1.2111   51.4045   27.6406 H         1 UNK         0.0000 
     39 H39         1.0602   53.3073   25.6020 H         1 UNK         0.0000 
     40 H40         7.0598   54.9784   24.1538 H         1 UNK         0.0000 
     41 H41         5.9205   54.7140   20.0581 H         1 UNK         0.0000 
     42 H42         3.6680   53.9229   20.6428 H         1 UNK         0.0000 
     43 H43         1.6665   53.7118   21.6964 H         1 UNK         0.0000 
     44 H44         0.7858   53.7178   23.1853 H         1 UNK         0.0000 
     45 H45         2.5371   51.3169   22.3761 H         1 UNK         0.0000 
     46 H46         0.9958   51.5147   21.6335 H         1 UNK         0.0000 
     47 H47         1.4778   51.0825   24.6189 H         1 UNK         0.0000 
     48 H48         0.7802   49.9276   23.4963 H         1 UNK         0.0000 
     49 H49        -1.2651   51.9646   22.0764 H         1 UNK         0.0000 
     50 H50        -3.4537   52.7227   23.5882 H         1 UNK         0.0000 
     51 H51        -0.5545   51.2611   26.1368 H         1 UNK         0.0000 
     52 H52         8.4891   55.3553   22.4040 H         1 UNK         0.0000 
     53 H53         6.5659   54.7151   29.0287 H         1 UNK         0.0000 
@<TRIPOS>BOND
     1    1    6 ar   
     2    1    2 ar   
     3    1   35 1    
     4    2    3 ar   
     5    2   36 1    
     6    3    4 ar   
     7    3   37 1    
     8    4    5 ar   
     9    4   34 1    
    10    5    6 ar   
    11    5    7 1    
    12    6   38 1    
    13    7   28 ar   
    14    7    8 ar   
    15    8    9 ar   
    16    8   39 1    
    17    9   17 ar   
    18    9   10 ar   
    19   10   11 ar   
    20   10   27 ar   
    21   11   16 ar   
    22   11   12 ar   
    23   12   13 ar   
    24   12   40 1    
    25   13   14 ar   
    26   13   26 1    
    27   14   15 ar   
    28   14   41 1    
    29   15   16 ar   
    30   15   42 1    
    31   16   17 ar   
    32   17   18 1    
    33   18   19 1    
    34   18   43 1    
    35   18   44 1    
    36   19   20 1    
    37   19   45 1    
    38   19   46 1    
    39   20   21 1    
    40   20   47 1    
    41   20   48 1    
    42   21   25 ar   
    43   21   22 ar   
    44   22   23 ar   
    45   22   49 1    
    46   23   24 ar   
    47   23   50 1    
    48   24   25 ar   
    49   25   51 1    
    50   26   52 1    
    51   27   32 1    
    52   27   28 ar   
    53   28   29 1    
    54   29   30 2    
    55   29   31 am   BACKBONE|DICT|INTERRES
    56   31   32 am   BACKBONE|DICT|INTERRES
    57   31   53 1    
    58   32   33 2    
@<TRIPOS>SUBSTRUCTURE
     1 UNK         1 GROUP             0       ****    0 ROOT    
