@<TRIPOS>MOLECULE
CHEMBL513079_91
50   55    1
SMALL
USER_CHARGES


@<TRIPOS>ATOM
      1 C1          0.0868   51.8677   29.4852 C.ar      1 UNK         0.0000 
      2 C2         -0.1743   52.8035   30.4784 C.ar      1 UNK         0.0000 
      3 C3          0.3863   54.0755   30.4082 C.ar      1 UNK         0.0000 
      4 C4          1.2398   54.4078   29.3560 C.ar      1 UNK         0.0000 
      5 C5          1.5744   53.4386   28.3868 C.ar      1 UNK         0.0000 
      6 C6          0.9694   52.1772   28.4567 C.ar      1 UNK         0.0000 
      7 C7          2.5346   53.6968   27.2821 C.ar      1 UNK         0.0000 
      8 C8          2.0766   53.5864   25.9654 C.ar      1 UNK         0.0000 
      9 C9          2.9730   53.8495   24.9187 C.ar      1 UNK         0.0000 
     10 C10         4.3328   54.1797   25.1486 C.ar      1 UNK         0.0000 
     11 C11         4.9446   54.3690   23.8837 C.ar      1 UNK         0.0000 
     12 C12         6.2435   54.7300   23.4659 C.ar      1 UNK         0.0000 
     13 C13         6.4990   54.8967   22.1052 C.ar      1 UNK         0.0000 
     14 C14         5.5099   54.6405   21.1604 C.ar      1 UNK         0.0000 
     15 C15         4.2274   54.2349   21.5243 C.ar      1 UNK         0.0000 
     16 C16         3.9463   54.1369   22.8937 C.ar      1 UNK         0.0000 
     17 N17         2.7579   53.8673   23.5539 N.pl3     1 UNK         0.0000 
     18 C18         1.4617   53.6090   22.9409 C.3       1 UNK         0.0000 
     19 C19         1.1836   52.1021   22.8450 C.3       1 UNK         0.0000 
     20 S20        -0.5800   51.6719   23.0150 S.3       1 UNK         0.0000 
     21 C21        -0.4268   50.4937   24.3172 C.ar      1 UNK         0.0000 
     22 N22         0.4990   49.5434   24.2919 N.2       1 UNK         0.0000 
     23 H23        -1.1271   49.1650   26.9845 H         1 UNK         0.0000 
     24 C24         0.3044   48.9234   25.4202 C.ar      1 UNK         0.0000 
     25 N25        -0.7482   49.4784   26.0816 N.pl3     1 UNK         0.0000 
     26 N26        -1.2290   50.4979   25.3668 N.2       1 UNK         0.0000 
     27 O27         7.7419   55.2967   21.6817 O.3       1 UNK         0.0000 
     28 C28         4.7593   54.2532   26.4876 C.ar      1 UNK         0.0000 
     29 C29         3.8786   54.0154   27.5140 C.ar      1 UNK         0.0000 
     30 C30         4.6431   54.1581   28.7876 C.2       1 UNK         0.0000 
     31 O31         4.2477   54.0205   29.9430 O.2       1 UNK         0.0000 
     32 N32         5.8908   54.4967   28.4214 N.am      1 UNK         0.0000 
     33 C33         6.0686   54.5817   27.0935 C.2       1 UNK         0.0000 
     34 O34         7.1044   54.8967   26.5294 O.2       1 UNK         0.0000 
     35 Cl35        1.8319   56.0355   29.2817 Cl        1 UNK         0.0000 
     36 H36        -0.3851   50.8967   29.5241 H         1 UNK         0.0000 
     37 H37        -0.8474   52.5463   31.2817 H         1 UNK         0.0000 
     38 H38         0.1464   54.8086   31.1645 H         1 UNK         0.0000 
     39 H39         1.1867   51.4254   27.7104 H         1 UNK         0.0000 
     40 H40         1.0475   53.3224   25.7683 H         1 UNK         0.0000 
     41 H41         7.0329   54.9187   24.1717 H         1 UNK         0.0000 
     42 H42         5.7427   54.7590   20.1119 H         1 UNK         0.0000 
     43 H43         3.4754   54.0578   20.7690 H         1 UNK         0.0000 
     44 H44         1.4036   54.0967   21.9764 H         1 UNK         0.0000 
     45 H45         0.7174   54.0972   23.5719 H         1 UNK         0.0000 
     46 H46         1.8358   51.5370   23.5123 H         1 UNK         0.0000 
     47 H47         1.4841   51.7667   21.8516 H         1 UNK         0.0000 
     48 H48         0.8630   48.0967   25.8258 H         1 UNK         0.0000 
     49 H49         8.4045   55.3072   22.3857 H         1 UNK         0.0000 
     50 H50         6.6210   54.7234   29.0828 H         1 UNK         0.0000 
@<TRIPOS>BOND
     1    1    6 ar   
     2    1    2 ar   
     3    1   36 1    
     4    2    3 ar   
     5    2   37 1    
     6    3    4 ar   
     7    3   38 1    
     8    4    5 ar   
     9    4   35 1    
    10    5    6 ar   
    11    5    7 1    
    12    6   39 1    
    13    7   29 ar   
    14    7    8 ar   
    15    8    9 ar   
    16    8   40 1    
    17    9   17 ar   
    18    9   10 ar   
    19   10   11 ar   
    20   10   28 ar   
    21   11   16 ar   
    22   11   12 ar   
    23   12   13 ar   
    24   12   41 1    
    25   13   14 ar   
    26   13   27 1    
    27   14   15 ar   
    28   14   42 1    
    29   15   16 ar   
    30   15   43 1    
    31   16   17 ar   
    32   17   18 1    
    33   18   19 1    
    34   18   44 1    
    35   18   45 1    
    36   19   46 1    
    37   19   47 1    
    38   19   20 1    
    39   20   21 1    
    40   21   22 ar   
    41   21   26 ar   
    42   22   24 ar   
    43   23   25 1    
    44   24   48 1    
    45   24   25 ar   
    46   25   26 ar   
    47   27   49 1    
    48   28   33 1    
    49   28   29 ar   
    50   29   30 1    
    51   30   31 2    
    52   30   32 am   BACKBONE|DICT|INTERRES
    53   32   33 am   BACKBONE|DICT|INTERRES
    54   32   50 1    
    55   33   34 2    
@<TRIPOS>SUBSTRUCTURE
     1 UNK         1 GROUP             0       ****    0 ROOT    
