@<TRIPOS>MOLECULE
CHEMBL540206_123
64   67    1
SMALL
USER_CHARGES


@<TRIPOS>ATOM
      1 C1          1.9827   58.3071   15.6712 C.3       1 UNK         0.0000 
      2 C2          3.2629   58.8963   16.2869 C.3       1 UNK         0.0000 
      3 N3          4.4148   57.8587   16.3958 N.4       1 UNK         0.0000 
      4 C4          5.7270   58.5598   16.8401 C.3       1 UNK         0.0000 
      5 C5          6.3683   59.3136   15.6645 C.3       1 UNK         0.0000 
      6 C6          4.0575   56.6145   17.2593 C.3       1 UNK         0.0000 
      7 C7          4.9944   55.4151   16.9691 C.3       1 UNK         0.0000 
      8 O8          6.2774   55.5107   17.5886 O.3       1 UNK         0.0000 
      9 C9          6.3941   55.4070   18.9620 C.ar      1 UNK         0.0000 
     10 C10         5.3732   54.9486   19.8069 C.ar      1 UNK         0.0000 
     11 C11         5.5755   54.8812   21.1812 C.ar      1 UNK         0.0000 
     12 C12         6.8060   55.2533   21.7349 C.ar      1 UNK         0.0000 
     13 C13         7.8248   55.6967   20.8901 C.ar      1 UNK         0.0000 
     14 C14         7.6210   55.7698   19.5150 C.ar      1 UNK         0.0000 
     15 N15         7.1036   55.1730   23.1065 N.pl3     1 UNK         0.0000 
     16 C16         6.3650   54.8843   24.2644 C.ar      1 UNK         0.0000 
     17 N17         7.0362   55.0530   25.4333 N.ar      1 UNK         0.0000 
     18 C18         6.3442   54.8530   26.5865 C.ar      1 UNK         0.0000 
     19 C19         5.0005   54.4819   26.5809 C.ar      1 UNK         0.0000 
     20 C20         4.1770   54.3089   27.7810 C.ar      1 UNK         0.0000 
     21 C21         2.8720   53.9567   27.6852 C.ar      1 UNK         0.0000 
     22 C22         2.2479   53.6237   26.3943 C.ar      1 UNK         0.0000 
     23 O23         1.1149   53.1392   26.3292 O.2       1 UNK         0.0000 
     24 N24         3.0286   53.8670   25.2885 N.pl3     1 UNK         0.0000 
     25 C25         4.3888   54.2915   25.3359 C.ar      1 UNK         0.0000 
     26 N26         5.0673   54.4968   24.1724 N.ar      1 UNK         0.0000 
     27 C27         2.4457   53.6037   23.9547 C.3       1 UNK         0.0000 
     28 C28         2.0382   53.8998   28.9162 C.ar      1 UNK         0.0000 
     29 C29         1.5378   55.0732   29.5133 C.ar      1 UNK         0.0000 
     30 C30         0.7718   55.0029   30.6783 C.ar      1 UNK         0.0000 
     31 C31         0.5222   53.7755   31.2816 C.ar      1 UNK         0.0000 
     32 C32         0.9876   52.6191   30.6923 C.ar      1 UNK         0.0000 
     33 C33         1.7394   52.6678   29.5232 C.ar      1 UNK         0.0000 
     34 Cl34        2.3044   51.1733   28.8794 Cl        1 UNK         0.0000 
     35 O35        -0.0968   53.6967   32.4966 O.3       1 UNK         0.0000 
     36 Cl36        1.8948   56.6403   28.8817 Cl        1 UNK         0.0000 
     37 H37         1.2885   59.1105   15.4214 H         1 UNK         0.0000 
     38 H38         1.4526   57.6509   16.3600 H         1 UNK         0.0000 
     39 H39         2.1883   57.7581   14.7516 H         1 UNK         0.0000 
     40 H40         3.6359   59.6908   15.6429 H         1 UNK         0.0000 
     41 H41         3.1043   59.3129   17.2823 H         1 UNK         0.0000 
     42 H42         5.4814   59.2117   17.6813 H         1 UNK         0.0000 
     43 H43         6.4169   57.8011   17.1947 H         1 UNK         0.0000 
     44 H44         7.3133   59.7587   15.9758 H         1 UNK         0.0000 
     45 H45         6.5765   58.6502   14.8255 H         1 UNK         0.0000 
     46 H46         5.7496   60.1343   15.3049 H         1 UNK         0.0000 
     47 H47         4.0549   56.9363   18.3010 H         1 UNK         0.0000 
     48 H48         3.0460   56.3237   16.9863 H         1 UNK         0.0000 
     49 H49         4.5155   54.4734   17.2430 H         1 UNK         0.0000 
     50 H50         5.1547   55.3345   15.8939 H         1 UNK         0.0000 
     51 H51         4.4143   54.6392   19.4214 H         1 UNK         0.0000 
     52 H52         4.7633   54.5158   21.7850 H         1 UNK         0.0000 
     53 H53         8.7888   55.9756   21.2927 H         1 UNK         0.0000 
     54 H54         8.4207   56.1065   18.8713 H         1 UNK         0.0000 
     55 H55         8.0927   55.3299   23.3069 H         1 UNK         0.0000 
     56 H56         6.8754   55.0108   27.5157 H         1 UNK         0.0000 
     57 H57         4.5973   54.5388   28.7514 H         1 UNK         0.0000 
     58 H58         1.4374   53.1890   23.9786 H         1 UNK         0.0000 
     59 H59         2.4042   54.5289   23.3783 H         1 UNK         0.0000 
     60 H60         3.0687   52.8982   23.4039 H         1 UNK         0.0000 
     61 H61         0.4317   55.9117   31.1459 H         1 UNK         0.0000 
     62 H62         0.7870   51.6966   31.1915 H         1 UNK         0.0000 
     63 H63        -0.5654   52.8546   32.6857 H         1 UNK         0.0000 
     64 H64         4.5814   57.5128   15.4606 H         1 UNK         0.0000 
@<TRIPOS>BOND
     1    1    2 1    
     2    1   37 1    
     3    1   38 1    
     4    1   39 1    
     5    2    3 1    
     6    2   40 1    
     7    2   41 1    
     8    3    4 1    
     9    3    6 1    
    10    3   64 1    
    11    4    5 1    
    12    4   42 1    
    13    4   43 1    
    14    5   44 1    
    15    5   45 1    
    16    5   46 1    
    17    6    7 1    
    18    6   47 1    
    19    6   48 1    
    20    7    8 1    
    21    7   49 1    
    22    7   50 1    
    23    8    9 1    
    24    9   14 ar   
    25    9   10 ar   
    26   10   11 ar   
    27   10   51 1    
    28   11   12 ar   
    29   11   52 1    
    30   12   13 ar   
    31   12   15 1    
    32   13   14 ar   
    33   13   53 1    
    34   14   54 1    
    35   15   16 1    
    36   15   55 1    
    37   16   26 ar   
    38   16   17 ar   
    39   17   18 ar   
    40   18   19 ar   
    41   18   56 1    
    42   19   25 ar   
    43   19   20 ar   
    44   20   21 ar   
    45   20   57 1    
    46   21   22 ar   
    47   21   28 1    
    48   22   23 2    
    49   22   24 ar   
    50   24   25 ar   
    51   24   27 1    
    52   25   26 ar   
    53   27   58 1    
    54   27   59 1    
    55   27   60 1    
    56   28   33 ar   
    57   28   29 ar   
    58   29   30 ar   
    59   29   36 1    
    60   30   31 ar   
    61   30   61 1    
    62   31   32 ar   
    63   31   35 1    
    64   32   33 ar   
    65   32   62 1    
    66   33   34 1    
    67   35   63 1    
@<TRIPOS>SUBSTRUCTURE
     1 UNK         1 GROUP             0       ****    0 ROOT    
