@<TRIPOS>MOLECULE
CHEMBL486101_105
58   63    1
SMALL
USER_CHARGES


@<TRIPOS>ATOM
      1 C1         -0.1712   52.9097   30.4543 C.ar      1 UNK         0.0000 
      2 C2          0.0385   51.9383   29.4880 C.ar      1 UNK         0.0000 
      3 C3          0.8819   52.1878   28.4119 C.ar      1 UNK         0.0000 
      4 C4          1.5188   53.4400   28.2724 C.ar      1 UNK         0.0000 
      5 C5          1.2098   54.4498   29.2089 C.ar      1 UNK         0.0000 
      6 C6          0.3954   54.1706   30.3058 C.ar      1 UNK         0.0000 
      7 Cl7         1.7934   56.0736   29.0304 Cl        1 UNK         0.0000 
      8 C8          2.4977   53.6849   27.1706 C.ar      1 UNK         0.0000 
      9 C9          2.0646   53.5851   25.8433 C.ar      1 UNK         0.0000 
     10 C10         2.9880   53.8148   24.8118 C.ar      1 UNK         0.0000 
     11 C11         4.3397   54.1579   25.0680 C.ar      1 UNK         0.0000 
     12 C12         4.9734   54.3518   23.8172 C.ar      1 UNK         0.0000 
     13 C13         6.2750   54.7318   23.4294 C.ar      1 UNK         0.0000 
     14 C14         6.5630   54.8969   22.0757 C.ar      1 UNK         0.0000 
     15 C15         5.5982   54.6347   21.1085 C.ar      1 UNK         0.0000 
     16 C16         4.3133   54.2068   21.4418 C.ar      1 UNK         0.0000 
     17 C17         4.0011   54.0967   22.8052 C.ar      1 UNK         0.0000 
     18 N18         2.8112   53.7618   23.4395 N.pl3     1 UNK         0.0000 
     19 C19         1.5495   53.3955   22.8000 C.3       1 UNK         0.0000 
     20 C20         1.2679   51.8734   22.9591 C.3       1 UNK         0.0000 
     21 C21        -0.2257   51.4784   22.9664 C.2       1 UNK         0.0000 
     22 O22        -1.0739   52.3629   22.8150 O.2       1 UNK         0.0000 
     23 N23        -0.5704   50.1837   23.2111 N.am      1 UNK         0.0000 
     24 C24         0.4108   49.0779   23.2561 C.3       1 UNK         0.0000 
     25 C25         0.0670   48.2061   24.4861 C.3       1 UNK         0.0000 
     26 O26        -1.2952   47.7944   24.4702 O.3       1 UNK         0.0000 
     27 C27        -2.2009   48.8932   24.4802 C.3       1 UNK         0.0000 
     28 C28        -1.9938   49.7851   23.2375 C.3       1 UNK         0.0000 
     29 O29         7.8137   55.3070   21.6817 O.3       1 UNK         0.0000 
     30 C30         4.7444   54.2381   26.4132 C.ar      1 UNK         0.0000 
     31 C31         3.8429   53.9957   27.4228 C.ar      1 UNK         0.0000 
     32 C32         4.5856   54.1287   28.7096 C.2       1 UNK         0.0000 
     33 O33         4.1700   53.9787   29.8565 O.2       1 UNK         0.0000 
     34 N34         5.8411   54.4738   28.3708 N.am      1 UNK         0.0000 
     35 C35         6.0470   54.5689   27.0475 C.2       1 UNK         0.0000 
     36 O36         7.1044   54.8863   26.5119 O.2       1 UNK         0.0000 
     37 Cl37        1.1022   50.8967   27.2815 Cl        1 UNK         0.0000 
     38 H38        -0.8264   52.6923   31.2832 H         1 UNK         0.0000 
     39 H39        -0.4527   50.9775   29.5862 H         1 UNK         0.0000 
     40 H40         0.1865   54.9399   31.0366 H         1 UNK         0.0000 
     41 H41         1.0387   53.3273   25.6258 H         1 UNK         0.0000 
     42 H42         7.0427   54.9290   24.1566 H         1 UNK         0.0000 
     43 H43         5.8530   54.7545   20.0650 H         1 UNK         0.0000 
     44 H44         3.5849   54.0138   20.6655 H         1 UNK         0.0000 
     45 H45         1.5780   53.6828   21.7474 H         1 UNK         0.0000 
     46 H46         0.7775   54.0112   23.2652 H         1 UNK         0.0000 
     47 H47         1.7006   51.5040   23.8906 H         1 UNK         0.0000 
     48 H48         1.7566   51.3444   22.1399 H         1 UNK         0.0000 
     49 H49         1.4524   49.3919   23.3373 H         1 UNK         0.0000 
     50 H50         0.2485   48.5020   22.3453 H         1 UNK         0.0000 
     51 H51         0.7016   47.3222   24.5169 H         1 UNK         0.0000 
     52 H52         0.2725   48.7648   25.4011 H         1 UNK         0.0000 
     53 H53        -3.2238   48.5186   24.5154 H         1 UNK         0.0000 
     54 H54        -2.0559   49.4856   25.3869 H         1 UNK         0.0000 
     55 H55        -2.1609   49.1902   22.3388 H         1 UNK         0.0000 
     56 H56        -2.6865   50.6271   23.2771 H         1 UNK         0.0000 
     57 H57         8.4637   55.3138   22.3997 H         1 UNK         0.0000 
     58 H58         6.5590   54.6892   29.0470 H         1 UNK         0.0000 
@<TRIPOS>BOND
     1    1    6 ar   
     2    1    2 ar   
     3    1   38 1    
     4    2    3 ar   
     5    2   39 1    
     6    3    4 ar   
     7    3   37 1    
     8    4    5 ar   
     9    4    8 1    
    10    5    6 ar   
    11    5    7 1    
    12    6   40 1    
    13    8   31 ar   
    14    8    9 ar   
    15    9   10 ar   
    16    9   41 1    
    17   10   18 ar   
    18   10   11 ar   
    19   11   12 ar   
    20   11   30 ar   
    21   12   17 ar   
    22   12   13 ar   
    23   13   14 ar   
    24   13   42 1    
    25   14   15 ar   
    26   14   29 1    
    27   15   16 ar   
    28   15   43 1    
    29   16   17 ar   
    30   16   44 1    
    31   17   18 ar   
    32   18   19 1    
    33   19   20 1    
    34   19   45 1    
    35   19   46 1    
    36   20   21 1    
    37   20   47 1    
    38   20   48 1    
    39   21   22 2    
    40   21   23 am   BACKBONE|DICT|INTERRES
    41   23   28 1    
    42   23   24 1    
    43   24   25 1    
    44   24   49 1    
    45   24   50 1    
    46   25   26 1    
    47   25   51 1    
    48   25   52 1    
    49   26   27 1    
    50   27   28 1    
    51   27   53 1    
    52   27   54 1    
    53   28   55 1    
    54   28   56 1    
    55   29   57 1    
    56   30   35 1    
    57   30   31 ar   
    58   31   32 1    
    59   32   33 2    
    60   32   34 am   BACKBONE|DICT|INTERRES
    61   34   35 am   BACKBONE|DICT|INTERRES
    62   34   58 1    
    63   35   36 2    
@<TRIPOS>SUBSTRUCTURE
     1 UNK         1 GROUP             0       ****    0 ROOT    
