@<TRIPOS>MOLECULE
CHEMBL487757_8
52   57    1
SMALL
USER_CHARGES


@<TRIPOS>ATOM
      1 C1          0.1688   51.8817   29.4867 C.ar      1 UNK         0.0000 
      2 C2         -0.0960   52.8468   30.4508 C.ar      1 UNK         0.0000 
      3 C3          0.4095   54.1350   30.3102 C.ar      1 UNK         0.0000 
      4 C4          1.2178   54.4539   29.2190 C.ar      1 UNK         0.0000 
      5 C5          1.5679   53.4552   28.2879 C.ar      1 UNK         0.0000 
      6 C6          1.0120   52.1777   28.4227 C.ar      1 UNK         0.0000 
      7 C7          2.5246   53.6968   27.1795 C.ar      1 UNK         0.0000 
      8 C8          2.0776   53.5650   25.8603 C.ar      1 UNK         0.0000 
      9 C9          2.9883   53.8019   24.8184 C.ar      1 UNK         0.0000 
     10 C10         4.3399   54.1631   25.0667 C.ar      1 UNK         0.0000 
     11 C11         4.9671   54.3557   23.8141 C.ar      1 UNK         0.0000 
     12 C12         6.2662   54.7404   23.4245 C.ar      1 UNK         0.0000 
     13 C13         6.5521   54.8967   22.0719 C.ar      1 UNK         0.0000 
     14 C14         5.5877   54.6235   21.1061 C.ar      1 UNK         0.0000 
     15 C15         4.3049   54.1921   21.4426 C.ar      1 UNK         0.0000 
     16 C16         3.9962   54.0860   22.8073 C.ar      1 UNK         0.0000 
     17 N17         2.8121   53.7379   23.4458 N.pl3     1 UNK         0.0000 
     18 C18         1.5694   53.3290   22.7935 C.3       1 UNK         0.0000 
     19 C19         1.3363   51.8152   22.9921 C.3       1 UNK         0.0000 
     20 S20         0.0319   51.1486   21.8009 S.o2      1 UNK         0.0000 
     21 O21        -1.0831   52.0967   21.6842 O.2       1 UNK         0.0000 
     22 O22        -0.1907   49.7266   22.0813 O.2       1 UNK         0.0000 
     23 N23         0.8952   51.2012   20.3211 N.pl3     1 UNK         0.0000 
     24 C24         1.8172   50.2990   19.8574 C.ar      1 UNK         0.0000 
     25 C25         2.3044   50.8949   18.7072 C.ar      1 UNK         0.0000 
     26 N26         1.7167   52.0595   18.4989 N.2       1 UNK         0.0000 
     27 N27         0.8193   52.2747   19.5297 N.2       1 UNK         0.0000 
     28 O28         7.8053   55.2971   21.6817 O.3       1 UNK         0.0000 
     29 C29         4.7553   54.2519   26.4091 C.ar      1 UNK         0.0000 
     30 C30         3.8650   54.0169   27.4250 C.ar      1 UNK         0.0000 
     31 C31         4.6150   54.1650   28.7082 C.2       1 UNK         0.0000 
     32 O32         4.2071   54.0340   29.8600 O.2       1 UNK         0.0000 
     33 N33         5.8678   54.4967   28.3554 N.am      1 UNK         0.0000 
     34 C34         6.0589   54.5830   27.0299 C.2       1 UNK         0.0000 
     35 O35         7.1044   54.8967   26.4825 O.2       1 UNK         0.0000 
     36 Cl36        1.7475   56.0954   29.0463 Cl        1 UNK         0.0000 
     37 H37        -0.2669   50.8969   29.5766 H         1 UNK         0.0000 
     38 H38        -0.7376   52.5982   31.2817 H         1 UNK         0.0000 
     39 H39         0.1618   54.8907   31.0415 H         1 UNK         0.0000 
     40 H40         1.2437   51.4001   27.7082 H         1 UNK         0.0000 
     41 H41         1.0500   53.2996   25.6600 H         1 UNK         0.0000 
     42 H42         7.0366   54.9482   24.1445 H         1 UNK         0.0000 
     43 H43         5.8434   54.7365   20.0623 H         1 UNK         0.0000 
     44 H44         3.5790   53.9866   20.6676 H         1 UNK         0.0000 
     45 H45         1.6322   53.5892   21.7383 H         1 UNK         0.0000 
     46 H46         0.7485   53.9137   23.2107 H         1 UNK         0.0000 
     47 H47         0.9888   51.5833   23.9973 H         1 UNK         0.0000 
     48 H48         2.2396   51.2339   22.8066 H         1 UNK         0.0000 
     49 H49         2.0489   49.3804   20.3781 H         1 UNK         0.0000 
     50 H50         3.0830   50.5081   18.0639 H         1 UNK         0.0000 
     51 H51         8.4499   55.3071   22.4026 H         1 UNK         0.0000 
     52 H52         6.5924   54.7192   29.0237 H         1 UNK         0.0000 
@<TRIPOS>BOND
     1    1    6 ar   
     2    1    2 ar   
     3    1   37 1    
     4    2    3 ar   
     5    2   38 1    
     6    3    4 ar   
     7    3   39 1    
     8    4    5 ar   
     9    4   36 1    
    10    5    6 ar   
    11    5    7 1    
    12    6   40 1    
    13    7   30 ar   
    14    7    8 ar   
    15    8    9 ar   
    16    8   41 1    
    17    9   17 ar   
    18    9   10 ar   
    19   10   11 ar   
    20   10   29 ar   
    21   11   16 ar   
    22   11   12 ar   
    23   12   13 ar   
    24   12   42 1    
    25   13   14 ar   
    26   13   28 1    
    27   14   15 ar   
    28   14   43 1    
    29   15   16 ar   
    30   15   44 1    
    31   16   17 ar   
    32   17   18 1    
    33   18   19 1    
    34   18   45 1    
    35   18   46 1    
    36   19   20 1    
    37   19   47 1    
    38   19   48 1    
    39   20   21 2    
    40   20   22 2    
    41   20   23 1    
    42   23   27 ar   
    43   23   24 ar   
    44   24   25 ar   
    45   24   49 1    
    46   25   26 ar   
    47   25   50 1    
    48   26   27 ar   
    49   28   51 1    
    50   29   34 1    
    51   29   30 ar   
    52   30   31 1    
    53   31   32 2    
    54   31   33 am   BACKBONE|DICT|INTERRES
    55   33   34 am   BACKBONE|DICT|INTERRES
    56   33   52 1    
    57   34   35 2    
@<TRIPOS>SUBSTRUCTURE
     1 UNK         1 GROUP             0       ****    0 ROOT    
