@<TRIPOS>MOLECULE
CHEMBL520049_99
51   55    1
SMALL
USER_CHARGES


@<TRIPOS>ATOM
      1 C1          5.5066   54.5999   21.1976 C.ar      1 UNK         0.0000 
      2 C2          4.2303   54.1775   21.5640 C.ar      1 UNK         0.0000 
      3 C3          3.9451   54.0964   22.9340 C.ar      1 UNK         0.0000 
      4 C4          4.9383   54.3578   23.9223 C.ar      1 UNK         0.0000 
      5 C5          6.2340   54.7337   23.5037 C.ar      1 UNK         0.0000 
      6 C6          6.4874   54.8918   22.1396 C.ar      1 UNK         0.0000 
      7 O7          7.7200   55.3059   21.7012 O.3       1 UNK         0.0000 
      8 C8          4.3220   54.1838   25.1865 C.ar      1 UNK         0.0000 
      9 C9          2.9523   53.8761   24.9552 C.ar      1 UNK         0.0000 
     10 N10         2.7516   53.8274   23.5904 N.pl3     1 UNK         0.0000 
     11 C11         1.4630   53.5788   22.9512 C.3       1 UNK         0.0000 
     12 C12         1.2310   52.0925   22.5783 C.3       1 UNK         0.0000 
     13 C13         0.9642   51.1179   23.7582 C.3       1 UNK         0.0000 
     14 C14        -0.3133   51.3919   24.5894 C.2       1 UNK         0.0000 
     15 O15        -1.1155   52.2407   24.1890 O.2       1 UNK         0.0000 
     16 N16        -0.5651   50.6313   25.6909 N.am      1 UNK         0.0000 
     17 C17        -1.6293   51.0223   26.6305 C.3       1 UNK         0.0000 
     18 C18        -0.9506   51.8990   27.7141 C.3       1 UNK         0.0000 
     19 O19         0.1952   51.2733   28.3046 O.3       1 UNK         0.0000 
     20 C20         1.1259   50.6655   27.3965 C.3       1 UNK         0.0000 
     21 C21         0.4505   49.7819   26.3317 C.3       1 UNK         0.0000 
     22 C22         2.0386   53.6975   26.0039 C.ar      1 UNK         0.0000 
     23 C23         2.5077   53.8133   27.3110 C.ar      1 UNK         0.0000 
     24 C24         3.8464   54.0768   27.5459 C.ar      1 UNK         0.0000 
     25 C25         4.7437   54.2697   26.5282 C.ar      1 UNK         0.0000 
     26 C26         6.0495   54.5708   27.1545 C.2       1 UNK         0.0000 
     27 O27         7.1041   54.8591   26.6073 O.2       1 UNK         0.0000 
     28 N28         5.8392   54.4965   28.4820 N.am      1 UNK         0.0000 
     29 C29         4.5696   54.2108   28.8304 C.2       1 UNK         0.0000 
     30 O30         4.1202   54.1005   29.9702 O.2       1 UNK         0.0000 
     31 H31         5.7382   54.7068   20.1478 H         1 UNK         0.0000 
     32 H32         3.4831   53.9789   20.8092 H         1 UNK         0.0000 
     33 H33         7.0145   54.9475   24.2141 H         1 UNK         0.0000 
     34 H34         8.3897   55.3257   22.3981 H         1 UNK         0.0000 
     35 H35         1.4109   54.2166   22.0816 H         1 UNK         0.0000 
     36 H36         0.6755   53.9581   23.6013 H         1 UNK         0.0000 
     37 H37         2.0891   51.7343   22.0071 H         1 UNK         0.0000 
     38 H38         0.3924   52.0359   21.8822 H         1 UNK         0.0000 
     39 H39         1.8322   51.1400   24.4145 H         1 UNK         0.0000 
     40 H40         0.8872   50.1044   23.3634 H         1 UNK         0.0000 
     41 H41        -1.9820   50.0964   27.0807 H         1 UNK         0.0000 
     42 H42        -2.5033   51.4561   26.1416 H         1 UNK         0.0000 
     43 H43        -0.6592   52.8569   27.2842 H         1 UNK         0.0000 
     44 H44        -1.6748   52.0969   28.5034 H         1 UNK         0.0000 
     45 H45         1.6543   51.4450   26.8811 H         1 UNK         0.0000 
     46 H46         1.9047   50.0991   27.9143 H         1 UNK         0.0000 
     47 H47         1.1057   49.2387   25.6491 H         1 UNK         0.0000 
     48 H48        -0.0973   48.9873   26.8382 H         1 UNK         0.0000 
     49 H49         1.0004   53.4845   25.8188 H         1 UNK         0.0000 
     50 H50         1.8201   53.6737   28.1340 H         1 UNK         0.0000 
     51 H51         6.5635   54.7058   29.1555 H         1 UNK         0.0000 
@<TRIPOS>BOND
     1    1    6 ar   
     2    1    2 ar   
     3    1   31 1    
     4    2    3 ar   
     5    2   32 1    
     6    3   10 ar   
     7    3    4 ar   
     8    4    5 ar   
     9    4    8 ar   
    10    5    6 ar   
    11    5   33 1    
    12    6    7 1    
    13    7   34 1    
    14    8   25 ar   
    15    8    9 ar   
    16    9   10 ar   
    17    9   22 ar   
    18   10   11 1    
    19   11   12 1    
    20   11   35 1    
    21   11   36 1    
    22   12   13 1    
    23   12   37 1    
    24   12   38 1    
    25   13   14 1    
    26   13   39 1    
    27   13   40 1    
    28   14   15 2    
    29   14   16 am   BACKBONE|DICT|INTERRES
    30   16   21 1    
    31   16   17 1    
    32   17   18 1    
    33   17   41 1    
    34   17   42 1    
    35   18   19 1    
    36   18   43 1    
    37   18   44 1    
    38   19   20 1    
    39   20   21 1    
    40   20   45 1    
    41   20   46 1    
    42   21   47 1    
    43   21   48 1    
    44   22   23 ar   
    45   22   49 1    
    46   23   24 ar   
    47   23   50 1    
    48   24   29 1    
    49   24   25 ar   
    50   25   26 1    
    51   26   27 2    
    52   26   28 am   BACKBONE|DICT|INTERRES
    53   28   29 am   BACKBONE|DICT|INTERRES
    54   28   51 1    
    55   29   30 2    
@<TRIPOS>SUBSTRUCTURE
     1 UNK         1 GROUP             0       ****    0 ROOT    
