CHEMBL271715_33
                    3D
 Schrodinger Suite 2024-2.
 67 72  0  0  1  0            999 V2000
    0.0583   51.8667   29.5070 C   0  0  0  0  0  0
   -0.2178   52.8163   30.4811 C   0  0  0  0  0  0
    0.3383   54.0888   30.3990 C   0  0  0  0  0  0
    1.2044   54.4075   29.3536 C   0  0  0  0  0  0
    1.5557   53.4239   28.4047 C   0  0  0  0  0  0
    0.9545   52.1616   28.4870 C   0  0  0  0  0  0
    2.5329   53.6646   27.3115 C   0  0  0  0  0  0
    2.1028   53.5227   25.9874 C   0  0  0  0  0  0
    3.0167   53.7800   24.9536 C   0  0  0  0  0  0
    4.3657   54.1367   25.2090 C   0  0  0  0  0  0
    4.9985   54.3491   23.9607 C   0  0  0  0  0  0
    6.2995   54.7245   23.5763 C   0  0  0  0  0  0
    6.5654   54.9887   22.2353 C   0  0  0  0  0  0
    5.5810   54.8395   21.2543 C   0  0  0  0  0  0
    4.3061   54.3555   21.5945 C   0  0  0  0  0  0
    4.0208   54.1454   22.9522 C   0  0  0  0  0  0
    2.8403   53.7722   23.5820 N   0  0  0  0  0  0
    1.5903   53.4279   22.9137 C   0  0  0  0  0  0
    1.4918   51.9278   22.5699 C   0  0  0  0  0  0
    2.5152   51.5215   21.6826 O   0  0  0  0  0  0
    5.9396   55.2100   19.9726 O   0  0  0  0  0  0
    5.1306   54.8629   18.8556 C   0  0  0  0  0  0
    5.7081   55.5796   17.6214 C   0  0  0  0  0  0
    7.2178   55.3490   17.3737 C   0  0  0  0  0  0
    7.5775   53.9414   17.1729 N   0  0  0  0  0  0
    9.0379   53.7709   17.2180 C   0  0  0  0  0  0
    9.4815   52.3282   16.8834 C   0  0  0  0  0  0
    8.9098   51.8909   15.6550 O   0  0  0  0  0  0
    7.4868   51.9466   15.6711 C   0  0  0  0  0  0
    6.9984   53.3834   15.9411 C   0  0  0  0  0  0
    7.8224   55.4210   21.8860 O   0  0  0  0  0  0
    4.7679   54.2218   26.5530 C   0  0  0  0  0  0
    3.8704   53.9900   27.5649 C   0  0  0  0  0  0
    4.6100   54.1539   28.8502 C   0  0  0  0  0  0
    4.1939   54.0328   30.0009 O   0  0  0  0  0  0
    5.8615   54.4946   28.4994 N   0  0  0  0  0  0
    6.0619   54.5713   27.1770 C   0  0  0  0  0  0
    7.1047   54.8964   26.6334 O   0  0  0  0  0  0
    1.7925   56.0357   29.2662 Cl  0  0  0  0  0  0
   -0.4131   50.8963   29.5557 H   0  0  0  0  0  0
   -0.8956   52.5675   31.2819 H   0  0  0  0  0  0
    0.0872   54.8320   31.1415 H   0  0  0  0  0  0
    1.1864   51.3971   27.7589 H   0  0  0  0  0  0
    1.0777   53.2546   25.7803 H   0  0  0  0  0  0
    7.0835   54.8684   24.2973 H   0  0  0  0  0  0
    3.5379   54.2148   20.8506 H   0  0  0  0  0  0
    0.7739   53.6740   23.5928 H   0  0  0  0  0  0
    1.4098   54.0923   22.0803 H   0  0  0  0  0  0
    1.6463   51.3402   23.4767 H   0  0  0  0  0  0
    0.5050   51.6682   22.1825 H   0  0  0  0  0  0
    2.3156   51.8395   20.7988 H   0  0  0  0  0  0
    4.0989   55.1904   18.9916 H   0  0  0  0  0  0
    5.1262   53.7811   18.7131 H   0  0  0  0  0  0
    5.5608   56.6511   17.7616 H   0  0  0  0  0  0
    5.1270   55.3454   16.7299 H   0  0  0  0  0  0
    7.7615   55.7231   18.2435 H   0  0  0  0  0  0
    7.5512   55.9466   16.5230 H   0  0  0  0  0  0
    9.4111   54.0603   18.2018 H   0  0  0  0  0  0
    9.5060   54.4546   16.5070 H   0  0  0  0  0  0
   10.5680   52.2661   16.8223 H   0  0  0  0  0  0
    9.1685   51.6549   17.6816 H   0  0  0  0  0  0
    7.0945   51.5745   14.7245 H   0  0  0  0  0  0
    7.1060   51.2972   16.4605 H   0  0  0  0  0  0
    7.2627   54.0174   15.0930 H   0  0  0  0  0  0
    5.9099   53.3926   15.9979 H   0  0  0  0  0  0
    8.4697   55.3407   22.6045 H   0  0  0  0  0  0
    6.5801   54.7326   29.1693 H   0  0  0  0  0  0
  1  6  2  0  0  0
  1  2  1  0  0  0
  1 40  1  0  0  0
  2  3  2  0  0  0
  2 41  1  0  0  0
  3  4  1  0  0  0
  3 42  1  0  0  0
  4  5  2  0  0  0
  4 39  1  0  0  0
  5  6  1  0  0  0
  5  7  1  0  0  0
  6 43  1  0  0  0
  7 33  2  0  0  0
  7  8  1  0  0  0
  8  9  2  0  0  0
  8 44  1  0  0  0
  9 17  1  0  0  0
  9 10  1  0  0  0
 10 11  1  0  0  0
 10 32  2  0  0  0
 11 16  2  0  0  0
 11 12  1  0  0  0
 12 13  2  0  0  0
 12 45  1  0  0  0
 13 14  1  0  0  0
 13 31  1  0  0  0
 14 15  2  0  0  0
 14 21  1  0  0  0
 15 16  1  0  0  0
 15 46  1  0  0  0
 16 17  1  0  0  0
 17 18  1  0  0  0
 18 19  1  0  0  0
 18 47  1  0  0  0
 18 48  1  0  0  0
 19 20  1  0  0  0
 19 49  1  0  0  0
 19 50  1  0  0  0
 20 51  1  0  0  0
 21 22  1  0  0  0
 22 23  1  0  0  0
 22 52  1  0  0  0
 22 53  1  0  0  0
 23 24  1  0  0  0
 23 54  1  0  0  0
 23 55  1  0  0  0
 24 25  1  0  0  0
 24 56  1  0  0  0
 24 57  1  0  0  0
 25 30  1  0  0  0
 25 26  1  0  0  0
 26 27  1  0  0  0
 26 58  1  0  0  0
 26 59  1  0  0  0
 27 28  1  0  0  0
 27 60  1  0  0  0
 27 61  1  0  0  0
 28 29  1  0  0  0
 29 30  1  0  0  0
 29 62  1  0  0  0
 29 63  1  0  0  0
 30 64  1  0  0  0
 30 65  1  0  0  0
 31 66  1  0  0  0
 32 37  1  0  0  0
 32 33  1  0  0  0
 33 34  1  0  0  0
 34 35  2  0  0  0
 34 36  1  0  0  0
 36 37  1  0  0  0
 36 67  1  0  0  0
 37 38  2  0  0  0
M  END
> <i_i_glide_confnum>
49

> <i_i_glide_lignum>
34

> <i_i_glide_posenum>
11

> <i_i_glide_rotatable_bonds>
10

> <i_m_Source_File_Index>
74

> <b_m_subgroup_collapsed>
0

> <r_i_docking_score>
-11.5862

> <r_i_glide_ecoul>
-15.9245

> <r_i_glide_eff_state_penalty>
0

> <r_i_glide_einternal>
3.10684

> <r_i_glide_emodel>
-121.152

> <r_i_glide_energy>
-71.3325

> <r_i_glide_erotb>
0.411184

> <r_i_glide_esite>
0

> <r_i_glide_evdw>
-55.408

> <r_i_glide_gscore>
-11.5862

> <r_i_glide_hbond>
-0.668372

> <r_i_glide_ligand_efficiency>
-0.297083

> <r_i_glide_ligand_efficiency_ln>
-2.48442

> <r_i_glide_ligand_efficiency_sa>
-1.00747

> <r_i_glide_lipo>
-4.03338

> <r_i_glide_metal>
0

> <r_i_glide_rewards>
-2.13659

> <s_i_glide_gridfile>
wee1_glide-grid

> <s_m_Source_File>
wee1_actives_glide_SP.sdf

> <s_m_Source_Path>
/Users/zhangxujun/Desktop

> <s_m_entry_id>
212

> <s_m_entry_name>
wee1_actives_glide_SP.74

> <s_m_subgroup_title>
wee1_actives_glide_SP

> <s_m_subgroupid>
wee1_actives_glide_SP


$$$$
