@<TRIPOS>MOLECULE
CHEMBL270021_36
67   72    1
SMALL
USER_CHARGES


@<TRIPOS>ATOM
      1 C1          0.0993   51.8694   29.4971 C.ar      1 UNK         0.0000 
      2 C2         -0.1686   52.8115   30.4815 C.ar      1 UNK         0.0000 
      3 C3          0.3946   54.0824   30.4085 C.ar      1 UNK         0.0000 
      4 C4          1.2522   54.4100   29.3581 C.ar      1 UNK         0.0000 
      5 C5          1.5883   53.4368   28.3935 C.ar      1 UNK         0.0000 
      6 C6          0.9872   52.1739   28.4723 C.ar      1 UNK         0.0000 
      7 C7          2.5445   53.6894   27.2833 C.ar      1 UNK         0.0000 
      8 C8          2.0848   53.5540   25.9692 C.ar      1 UNK         0.0000 
      9 C9          2.9785   53.7945   24.9145 C.ar      1 UNK         0.0000 
     10 C10         4.3350   54.1529   25.1392 C.ar      1 UNK         0.0000 
     11 C11         4.9452   54.3465   23.8732 C.ar      1 UNK         0.0000 
     12 C12         6.2349   54.7248   23.4456 C.ar      1 UNK         0.0000 
     13 C13         6.4848   54.8968   22.0824 C.ar      1 UNK         0.0000 
     14 C14         5.4944   54.6468   21.1238 C.ar      1 UNK         0.0000 
     15 C15         4.2157   54.2245   21.5250 C.ar      1 UNK         0.0000 
     16 C16         3.9520   54.0964   22.8926 C.ar      1 UNK         0.0000 
     17 N17         2.7765   53.7545   23.5470 N.pl3     1 UNK         0.0000 
     18 C18         1.5200   53.3946   22.8938 C.3       1 UNK         0.0000 
     19 C19         1.5794   51.9430   22.3943 C.3       1 UNK         0.0000 
     20 O20         0.3859   51.6272   21.7091 O.3       1 UNK         0.0000 
     21 O21         5.8392   54.8374   19.7929 O.3       1 UNK         0.0000 
     22 C22         4.8534   54.7493   18.7627 C.3       1 UNK         0.0000 
     23 C23         4.5260   53.2881   18.4003 C.3       1 UNK         0.0000 
     24 C24         3.2818   53.1727   17.5030 C.3       1 UNK         0.0000 
     25 N25         2.8457   51.6968   17.3829 N.4       1 UNK         0.0000 
     26 C26         1.7816   51.4482   16.3022 C.3       1 UNK         0.0000 
     27 C27         1.2235   50.0852   16.6915 C.3       1 UNK         0.0000 
     28 C28         1.1594   50.1222   18.2157 C.3       1 UNK         0.0000 
     29 C29         2.2706   51.0764   18.6754 C.3       1 UNK         0.0000 
     30 O30         7.7391   55.2984   21.6821 O.3       1 UNK         0.0000 
     31 C31         4.7638   54.2423   26.4763 C.ar      1 UNK         0.0000 
     32 C32         3.8885   54.0097   27.5075 C.ar      1 UNK         0.0000 
     33 C33         4.6587   54.1587   28.7771 C.2       1 UNK         0.0000 
     34 O34         4.2682   54.0295   29.9349 O.2       1 UNK         0.0000 
     35 N35         5.9041   54.4967   28.4033 N.am      1 UNK         0.0000 
     36 C36         6.0738   54.5801   27.0742 C.2       1 UNK         0.0000 
     37 O37         7.1044   54.8970   26.5029 O.2       1 UNK         0.0000 
     38 Cl38        1.8477   56.0364   29.2808 Cl        1 UNK         0.0000 
     39 H39        -0.3714   50.8975   29.5399 H         1 UNK         0.0000 
     40 H40        -0.8467   52.5567   31.2815 H         1 UNK         0.0000 
     41 H41         0.1527   54.8193   31.1604 H         1 UNK         0.0000 
     42 H42         1.2102   51.4152   27.7352 H         1 UNK         0.0000 
     43 H43         1.0555   53.2841   25.7875 H         1 UNK         0.0000 
     44 H44         7.0266   54.9192   24.1482 H         1 UNK         0.0000 
     45 H45         3.4306   54.0400   20.8103 H         1 UNK         0.0000 
     46 H46         0.7124   53.5310   23.6123 H         1 UNK         0.0000 
     47 H47         1.3942   54.0991   22.0811 H         1 UNK         0.0000 
     48 H48         2.4411   51.7925   21.7422 H         1 UNK         0.0000 
     49 H49         1.7457   51.2566   23.2260 H         1 UNK         0.0000 
     50 H50         0.3088   52.1998   20.9434 H         1 UNK         0.0000 
     51 H51         5.2510   55.2576   17.8832 H         1 UNK         0.0000 
     52 H52         3.9575   55.3069   19.0414 H         1 UNK         0.0000 
     53 H53         4.3969   52.6898   19.3001 H         1 UNK         0.0000 
     54 H54         5.3860   52.8493   17.8919 H         1 UNK         0.0000 
     55 H55         3.4892   53.5133   16.4869 H         1 UNK         0.0000 
     56 H56         2.4183   53.7138   17.8962 H         1 UNK         0.0000 
     57 H57         2.2650   51.4932   15.3246 H         1 UNK         0.0000 
     58 H58         1.0478   52.2529   16.3840 H         1 UNK         0.0000 
     59 H59         1.9038   49.2989   16.3547 H         1 UNK         0.0000 
     60 H60         0.2491   49.8939   16.2395 H         1 UNK         0.0000 
     61 H61         0.1896   50.4911   18.5518 H         1 UNK         0.0000 
     62 H62         1.2913   49.1263   18.6409 H         1 UNK         0.0000 
     63 H63         1.8750   51.8798   19.2972 H         1 UNK         0.0000 
     64 H64         3.1050   50.5622   19.1571 H         1 UNK         0.0000 
     65 H65         8.3910   55.3099   22.3952 H         1 UNK         0.0000 
     66 H66         6.6377   54.7276   29.0597 H         1 UNK         0.0000 
     67 H67         3.6554   51.1266   17.1332 H         1 UNK         0.0000 
@<TRIPOS>BOND
     1    1    6 ar   
     2    1    2 ar   
     3    1   39 1    
     4    2    3 ar   
     5    2   40 1    
     6    3    4 ar   
     7    3   41 1    
     8    4    5 ar   
     9    4   38 1    
    10    5    6 ar   
    11    5    7 1    
    12    6   42 1    
    13    7   32 ar   
    14    7    8 ar   
    15    8    9 ar   
    16    8   43 1    
    17    9   17 ar   
    18    9   10 ar   
    19   10   11 ar   
    20   10   31 ar   
    21   11   16 ar   
    22   11   12 ar   
    23   12   13 ar   
    24   12   44 1    
    25   13   14 ar   
    26   13   30 1    
    27   14   15 ar   
    28   14   21 1    
    29   15   16 ar   
    30   15   45 1    
    31   16   17 ar   
    32   17   18 1    
    33   18   19 1    
    34   18   46 1    
    35   18   47 1    
    36   19   20 1    
    37   19   48 1    
    38   19   49 1    
    39   20   50 1    
    40   21   22 1    
    41   22   23 1    
    42   22   51 1    
    43   22   52 1    
    44   23   24 1    
    45   23   53 1    
    46   23   54 1    
    47   24   25 1    
    48   24   55 1    
    49   24   56 1    
    50   25   29 1    
    51   25   26 1    
    52   25   67 1    
    53   26   27 1    
    54   26   57 1    
    55   26   58 1    
    56   27   28 1    
    57   27   59 1    
    58   27   60 1    
    59   28   29 1    
    60   28   61 1    
    61   28   62 1    
    62   29   63 1    
    63   29   64 1    
    64   30   65 1    
    65   31   36 1    
    66   31   32 ar   
    67   32   33 1    
    68   33   34 2    
    69   33   35 am   BACKBONE|DICT|INTERRES
    70   35   36 am   BACKBONE|DICT|INTERRES
    71   35   66 1    
    72   36   37 2    
@<TRIPOS>SUBSTRUCTURE
     1 UNK         1 GROUP             0       ****    0 ROOT    
