@<TRIPOS>MOLECULE
CHEMBL377839_102
34   38    1
SMALL
USER_CHARGES


@<TRIPOS>ATOM
      1 C1          5.5035   54.5593   20.8679 C.ar      1 UNK         0.0000 
      2 C2          4.2437   54.0966   21.2401 C.ar      1 UNK         0.0000 
      3 C3          3.9739   54.0078   22.6090 C.ar      1 UNK         0.0000 
      4 C4          4.9482   54.3143   23.5997 C.ar      1 UNK         0.0000 
      5 C5          6.2209   54.7488   23.1763 C.ar      1 UNK         0.0000 
      6 C6          6.4656   54.8969   21.8126 C.ar      1 UNK         0.0000 
      7 O7          7.6733   55.3800   21.3860 O.3       1 UNK         0.0000 
      8 C8          4.3405   54.0974   24.8655 C.ar      1 UNK         0.0000 
      9 C9          3.0007   53.6821   24.6281 C.ar      1 UNK         0.0000 
     10 N10         2.8157   53.6469   23.2621 N.pl3     1 UNK         0.0000 
     11 H11         1.9600   53.3789   22.7975 H         1 UNK         0.0000 
     12 C12         2.1160   53.3599   25.6664 C.ar      1 UNK         0.0000 
     13 C13         2.5787   53.4628   26.9859 C.ar      1 UNK         0.0000 
     14 C14         3.8941   53.8901   27.2314 C.ar      1 UNK         0.0000 
     15 C15         4.7624   54.1931   26.2068 C.ar      1 UNK         0.0000 
     16 C16         6.0638   54.5698   26.8155 C.2       1 UNK         0.0000 
     17 O17         7.1043   54.8999   26.2627 O.2       1 UNK         0.0000 
     18 N18         5.8765   54.4953   28.1423 N.am      1 UNK         0.0000 
     19 C19         4.6458   54.0966   28.5084 C.2       1 UNK         0.0000 
     20 O20         4.2636   53.9575   29.6694 O.2       1 UNK         0.0000 
     21 C21         1.6246   53.0672   28.0677 C.2       1 UNK         0.0000 
     22 C22         0.8896   51.8653   28.0801 C.2       1 UNK         0.0000 
     23 C23         0.0830   51.7136   29.2007 C.2       1 UNK         0.0000 
     24 S24         0.2281   53.0555   30.2856 S.3       1 UNK         0.0000 
     25 C25         1.3260   53.8308   29.1941 C.2       1 UNK         0.0000 
     26 H26         5.7214   54.6685   19.8154 H         1 UNK         0.0000 
     27 H27         3.5015   53.8550   20.4932 H         1 UNK         0.0000 
     28 H28         6.9999   55.0091   23.8744 H         1 UNK         0.0000 
     29 H29         7.7933   55.3028   20.4368 H         1 UNK         0.0000 
     30 H30         1.1078   53.0317   25.4573 H         1 UNK         0.0000 
     31 H31         6.5957   54.7438   28.8095 H         1 UNK         0.0000 
     32 H32         0.9473   51.1201   27.2985 H         1 UNK         0.0000 
     33 H33        -0.5812   50.8968   29.4408 H         1 UNK         0.0000 
     34 H34         1.7321   54.7998   29.4469 H         1 UNK         0.0000 
@<TRIPOS>BOND
     1    1    6 ar   
     2    1    2 ar   
     3    1   26 1    
     4    2    3 ar   
     5    2   27 1    
     6    3   10 ar   
     7    3    4 ar   
     8    4    5 ar   
     9    4    8 ar   
    10    5    6 ar   
    11    5   28 1    
    12    6    7 1    
    13    7   29 1    
    14    8   15 ar   
    15    8    9 ar   
    16    9   10 ar   
    17    9   12 ar   
    18   10   11 1    
    19   12   13 ar   
    20   12   30 1    
    21   13   14 ar   
    22   13   21 1    
    23   14   19 1    
    24   14   15 ar   
    25   15   16 1    
    26   16   17 2    
    27   16   18 am   BACKBONE|DICT|INTERRES
    28   18   19 am   BACKBONE|DICT|INTERRES
    29   18   31 1    
    30   19   20 2    
    31   21   25 2    
    32   21   22 1    
    33   22   23 2    
    34   22   32 1    
    35   23   24 1    
    36   23   33 1    
    37   24   25 1    
    38   25   34 1    
@<TRIPOS>SUBSTRUCTURE
     1 UNK         1 GROUP             0       ****    0 ROOT    
