@<TRIPOS>MOLECULE
CHEMBL488783_92
60   65    1
SMALL
USER_CHARGES


@<TRIPOS>ATOM
      1 C1          1.6319   53.3754   22.6690 C.3       1 UNK         0.0000 
      2 N2          2.8724   53.7292   23.3400 N.pl3     1 UNK         0.0000 
      3 C3          4.0611   54.0965   22.7227 C.ar      1 UNK         0.0000 
      4 C4          4.3795   54.2451   21.3647 C.ar      1 UNK         0.0000 
      5 C5          5.6721   54.6648   21.0335 C.ar      1 UNK         0.0000 
      6 C6          6.6323   54.8974   22.0272 C.ar      1 UNK         0.0000 
      7 C7          6.3201   54.7246   23.3751 C.ar      1 UNK         0.0000 
      8 C8          5.0173   54.3430   23.7463 C.ar      1 UNK         0.0000 
      9 C9          4.3687   54.1451   24.9895 C.ar      1 UNK         0.0000 
     10 C10         3.0233   53.7807   24.7173 C.ar      1 UNK         0.0000 
     11 C11         2.0928   53.5361   25.7416 C.ar      1 UNK         0.0000 
     12 C12         2.5099   53.6657   27.0751 C.ar      1 UNK         0.0000 
     13 C13         3.8485   53.9884   27.3412 C.ar      1 UNK         0.0000 
     14 C14         4.7566   54.2329   26.3421 C.ar      1 UNK         0.0000 
     15 C15         6.0479   54.5736   26.9868 C.2       1 UNK         0.0000 
     16 O16         7.1044   54.8967   26.4641 O.2       1 UNK         0.0000 
     17 N17         5.8319   54.4779   28.3079 N.am      1 UNK         0.0000 
     18 C18         4.5824   54.1171   28.6365 C.2       1 UNK         0.0000 
     19 O19         4.1659   53.9542   29.7814 O.2       1 UNK         0.0000 
     20 C20         1.5277   53.4097   28.1674 C.ar      1 UNK         0.0000 
     21 C21         0.9319   52.1434   28.2498 C.ar      1 UNK         0.0000 
     22 C22         0.0508   51.8324   29.2818 C.ar      1 UNK         0.0000 
     23 C23        -0.2275   52.7723   30.2663 C.ar      1 UNK         0.0000 
     24 C24         0.3162   54.0494   30.1812 C.ar      1 UNK         0.0000 
     25 C25         1.1768   54.3796   29.1321 C.ar      1 UNK         0.0000 
     26 Cl26        1.7746   56.0061   29.0686 Cl        1 UNK         0.0000 
     27 O27         7.9044   55.2969   21.6818 O.3       1 UNK         0.0000 
     28 C28         6.0334   54.8358   19.5573 C.3       1 UNK         0.0000 
     29 C29         6.1839   56.3130   19.1396 C.3       1 UNK         0.0000 
     30 C30         6.7966   56.4973   17.7346 C.3       1 UNK         0.0000 
     31 C31         5.9057   56.0332   16.5587 C.3       1 UNK         0.0000 
     32 N32         4.6305   56.7401   16.5328 N.pl3     1 UNK         0.0000 
     33 C33         4.4569   58.1040   16.4857 C.ar      1 UNK         0.0000 
     34 C34         3.1043   58.3913   16.4674 C.ar      1 UNK         0.0000 
     35 C35         2.4225   57.1726   16.4815 C.ar      1 UNK         0.0000 
     36 C36         3.3777   56.1686   16.5265 C.ar      1 UNK         0.0000 
     37 H37         0.8923   54.1442   22.8819 H         1 UNK         0.0000 
     38 H38         1.7752   53.2971   21.5918 H         1 UNK         0.0000 
     39 H39         1.2797   52.4166   23.0488 H         1 UNK         0.0000 
     40 H40         3.6477   54.0669   20.5891 H         1 UNK         0.0000 
     41 H41         7.0825   54.9134   24.1097 H         1 UNK         0.0000 
     42 H42         1.0723   53.2602   25.5155 H         1 UNK         0.0000 
     43 H43         6.5433   54.6991   28.9904 H         1 UNK         0.0000 
     44 H44         1.1640   51.3826   27.5170 H         1 UNK         0.0000 
     45 H45        -0.4115   50.8601   29.3256 H         1 UNK         0.0000 
     46 H46        -0.8879   52.5109   31.0827 H         1 UNK         0.0000 
     47 H47         0.0748   54.7853   30.9358 H         1 UNK         0.0000 
     48 H48         8.5252   55.2971   22.4235 H         1 UNK         0.0000 
     49 H49         5.2898   54.3431   18.9284 H         1 UNK         0.0000 
     50 H50         6.9680   54.3034   19.3721 H         1 UNK         0.0000 
     51 H51         6.8306   56.8288   19.8486 H         1 UNK         0.0000 
     52 H52         5.2194   56.8198   19.2074 H         1 UNK         0.0000 
     53 H53         7.7479   55.9663   17.6896 H         1 UNK         0.0000 
     54 H54         7.0542   57.5489   17.5978 H         1 UNK         0.0000 
     55 H55         5.7075   54.9634   16.6263 H         1 UNK         0.0000 
     56 H56         6.4005   56.2092   15.6022 H         1 UNK         0.0000 
     57 H57         5.3085   58.7686   16.4825 H         1 UNK         0.0000 
     58 H58         2.6656   59.3799   16.4480 H         1 UNK         0.0000 
     59 H59         1.3497   57.0464   16.4736 H         1 UNK         0.0000 
     60 H60         3.2702   55.0939   16.5551 H         1 UNK         0.0000 
@<TRIPOS>BOND
     1    1    2 1    
     2    1   37 1    
     3    1   38 1    
     4    1   39 1    
     5    2   10 ar   
     6    2    3 ar   
     7    3    8 ar   
     8    3    4 ar   
     9    4    5 ar   
    10    4   40 1    
    11    5    6 ar   
    12    5   28 1    
    13    6    7 ar   
    14    6   27 1    
    15    7    8 ar   
    16    7   41 1    
    17    8    9 ar   
    18    9   14 ar   
    19    9   10 ar   
    20   10   11 ar   
    21   11   12 ar   
    22   11   42 1    
    23   12   13 ar   
    24   12   20 1    
    25   13   18 1    
    26   13   14 ar   
    27   14   15 1    
    28   15   16 2    
    29   15   17 am   BACKBONE|DICT|INTERRES
    30   17   18 am   BACKBONE|DICT|INTERRES
    31   17   43 1    
    32   18   19 2    
    33   20   25 ar   
    34   20   21 ar   
    35   21   22 ar   
    36   21   44 1    
    37   22   23 ar   
    38   22   45 1    
    39   23   24 ar   
    40   23   46 1    
    41   24   25 ar   
    42   24   47 1    
    43   25   26 1    
    44   27   48 1    
    45   28   29 1    
    46   28   49 1    
    47   28   50 1    
    48   29   30 1    
    49   29   51 1    
    50   29   52 1    
    51   30   31 1    
    52   30   53 1    
    53   30   54 1    
    54   31   32 1    
    55   31   55 1    
    56   31   56 1    
    57   32   36 ar   
    58   32   33 ar   
    59   33   34 ar   
    60   33   57 1    
    61   34   35 ar   
    62   34   58 1    
    63   35   36 ar   
    64   35   59 1    
    65   36   60 1    
@<TRIPOS>SUBSTRUCTURE
     1 UNK         1 GROUP             0       ****    0 ROOT    
