CHEMBL514192_73
                    3D
 Schrodinger Suite 2024-2.
 59 64  0  0  1  0            999 V2000
    1.2725   53.6038   23.1535 C   0  0  0  0  0  0
    2.5999   53.8307   23.7014 N   0  0  0  0  0  0
    2.8689   53.8188   25.0513 C   0  0  0  0  0  0
    2.0101   53.5651   26.1262 C   0  0  0  0  0  0
    2.5167   53.6750   27.4237 C   0  0  0  0  0  0
    3.8683   54.0020   27.6033 C   0  0  0  0  0  0
    4.7221   54.2229   26.5466 C   0  0  0  0  0  0
    4.2400   54.1424   25.2258 C   0  0  0  0  0  0
    4.7966   54.3282   23.9352 C   0  0  0  0  0  0
    3.7629   54.0831   22.9910 C   0  0  0  0  0  0
    3.9954   54.1312   21.6132 C   0  0  0  0  0  0
    5.2713   54.4945   21.1711 C   0  0  0  0  0  0
    6.2824   54.8284   22.0881 C   0  0  0  0  0  0
    6.0686   54.6968   23.4616 C   0  0  0  0  0  0
    7.5048   55.2965   21.6814 O   0  0  0  0  0  0
    5.5279   54.5151   19.3820 S   0  0  0  0  0  0
    6.9441   54.2598   19.1052 O   0  0  0  0  0  0
    4.8788   55.7324   18.8816 O   0  0  0  0  0  0
    4.6272   53.1291   18.7530 N   0  0  0  0  0  0
    3.2870   53.3050   18.1549 C   0  0  0  0  0  0
    2.5610   51.9633   17.9158 C   0  0  0  0  0  0
    2.2345   51.2651   19.1527 N   0  0  0  0  0  0
    2.7010   50.0300   19.5352 C   0  0  0  0  0  0
    2.1571   49.6891   20.7624 C   0  0  0  0  0  0
    1.3123   50.7340   21.1375 C   0  0  0  0  0  0
    1.3793   51.6988   20.1417 C   0  0  0  0  0  0
    6.0627   54.5357   27.1068 C   0  0  0  0  0  0
    7.1043   54.8083   26.5206 O   0  0  0  0  0  0
    5.9048   54.4965   28.4404 N   0  0  0  0  0  0
    4.6642   54.1867   28.8483 C   0  0  0  0  0  0
    4.2973   54.0963   30.0173 O   0  0  0  0  0  0
    1.5886   53.4638   28.5668 C   0  0  0  0  0  0
    1.3812   54.5081   29.4784 C   0  0  0  0  0  0
    0.5590   54.3365   30.5874 C   0  0  0  0  0  0
   -0.0945   53.1234   30.7800 C   0  0  0  0  0  0
    0.0494   52.0971   29.8527 C   0  0  0  0  0  0
    0.8986   52.2509   28.7570 C   0  0  0  0  0  0
    1.1012   50.9075   27.6821 Cl  0  0  0  0  0  0
    0.9773   52.5737   23.3595 H   0  0  0  0  0  0
    0.5714   54.2787   23.6405 H   0  0  0  0  0  0
    1.2581   53.7905   22.0825 H   0  0  0  0  0  0
    0.9737   53.3072   25.9641 H   0  0  0  0  0  0
    3.2080   53.9143   20.9084 H   0  0  0  0  0  0
    6.8695   54.9286   24.1418 H   0  0  0  0  0  0
    8.1504   55.3463   22.3958 H   0  0  0  0  0  0
    5.1522   52.2865   18.4811 H   0  0  0  0  0  0
    3.4108   53.8326   17.2080 H   0  0  0  0  0  0
    2.6963   53.9560   18.7969 H   0  0  0  0  0  0
    3.1526   51.2996   17.2833 H   0  0  0  0  0  0
    1.6252   52.1395   17.3834 H   0  0  0  0  0  0
    3.3858   49.4979   18.8853 H   0  0  0  0  0  0
    2.3453   48.7807   21.3187 H   0  0  0  0  0  0
    0.7135   50.7674   22.0356 H   0  0  0  0  0  0
    0.8828   52.6537   20.0370 H   0  0  0  0  0  0
    6.6499   54.7394   29.0802 H   0  0  0  0  0  0
    1.8911   55.4511   29.3456 H   0  0  0  0  0  0
    0.4342   55.1390   31.2962 H   0  0  0  0  0  0
   -0.7155   52.9750   31.6491 H   0  0  0  0  0  0
   -0.4941   51.1722   29.9958 H   0  0  0  0  0  0
  1  2  1  0  0  0
  1 39  1  0  0  0
  1 40  1  0  0  0
  1 41  1  0  0  0
  2 10  1  0  0  0
  2  3  1  0  0  0
  3  8  2  0  0  0
  3  4  1  0  0  0
  4  5  2  0  0  0
  4 42  1  0  0  0
  5  6  1  0  0  0
  5 32  1  0  0  0
  6 30  1  0  0  0
  6  7  2  0  0  0
  7  8  1  0  0  0
  7 27  1  0  0  0
  8  9  1  0  0  0
  9 14  2  0  0  0
  9 10  1  0  0  0
 10 11  2  0  0  0
 11 12  1  0  0  0
 11 43  1  0  0  0
 12 13  2  0  0  0
 12 16  1  0  0  0
 13 14  1  0  0  0
 13 15  1  0  0  0
 14 44  1  0  0  0
 15 45  1  0  0  0
 16 17  2  0  0  0
 16 18  2  0  0  0
 16 19  1  0  0  0
 19 20  1  0  0  0
 19 46  1  0  0  0
 20 21  1  0  0  0
 20 47  1  0  0  0
 20 48  1  0  0  0
 21 22  1  0  0  0
 21 49  1  0  0  0
 21 50  1  0  0  0
 22 26  1  0  0  0
 22 23  1  0  0  0
 23 24  2  0  0  0
 23 51  1  0  0  0
 24 25  1  0  0  0
 24 52  1  0  0  0
 25 26  2  0  0  0
 25 53  1  0  0  0
 26 54  1  0  0  0
 27 28  2  0  0  0
 27 29  1  0  0  0
 29 30  1  0  0  0
 29 55  1  0  0  0
 30 31  2  0  0  0
 32 37  2  0  0  0
 32 33  1  0  0  0
 33 34  2  0  0  0
 33 56  1  0  0  0
 34 35  1  0  0  0
 34 57  1  0  0  0
 35 36  2  0  0  0
 35 58  1  0  0  0
 36 37  1  0  0  0
 36 59  1  0  0  0
 37 38  1  0  0  0
M  END
> <i_i_glide_confnum>
258

> <i_i_glide_lignum>
74

> <i_i_glide_posenum>
298

> <i_i_glide_rotatable_bonds>
7

> <i_m_Source_File_Index>
44

> <b_m_subgroup_collapsed>
0

> <r_i_docking_score>
-11.1122

> <r_i_glide_ecoul>
-15.898

> <r_i_glide_eff_state_penalty>
0

> <r_i_glide_einternal>
5.15106

> <r_i_glide_emodel>
-117.206

> <r_i_glide_energy>
-71.2976

> <r_i_glide_erotb>
0.343813

> <r_i_glide_esite>
-0.128821

> <r_i_glide_evdw>
-55.3996

> <r_i_glide_gscore>
-11.1122

> <r_i_glide_hbond>
-0.913687

> <r_i_glide_ligand_efficiency>
-0.292427

> <r_i_glide_ligand_efficiency_ln>
-2.39612

> <r_i_glide_ligand_efficiency_sa>
-0.983132

> <r_i_glide_lipo>
-3.46913

> <r_i_glide_metal>
0

> <r_i_glide_rewards>
-1.78972

> <s_i_glide_gridfile>
wee1_glide-grid

> <s_m_Source_File>
wee1_actives_glide_SP.sdf

> <s_m_Source_Path>
/Users/zhangxujun/Desktop

> <s_m_entry_id>
182

> <s_m_entry_name>
wee1_actives_glide_SP.44

> <s_m_subgroup_title>
wee1_actives_glide_SP

> <s_m_subgroupid>
wee1_actives_glide_SP


$$$$
