@<TRIPOS>MOLECULE
CHEMBL469822_120
65   70    1
SMALL
USER_CHARGES


@<TRIPOS>ATOM
      1 C1          0.9113   54.9990   30.0811 C.ar      1 UNK         0.0000 
      2 C2          0.7086   53.8678   30.8676 C.ar      1 UNK         0.0000 
      3 C3          1.0143   52.6116   30.3520 C.ar      1 UNK         0.0000 
      4 C4          1.4677   52.4786   29.0377 C.ar      1 UNK         0.0000 
      5 C5          1.5769   53.6044   28.1998 C.ar      1 UNK         0.0000 
      6 C6          1.3335   54.8673   28.7576 C.ar      1 UNK         0.0000 
      7 C7          1.9031   53.4818   26.7450 C.ar      1 UNK         0.0000 
      8 C8          3.0470   54.0970   26.2170 C.ar      1 UNK         0.0000 
      9 C9          3.3553   53.9891   24.8521 C.ar      1 UNK         0.0000 
     10 C10         2.5384   53.2553   23.9926 C.ar      1 UNK         0.0000 
     11 C11         3.2241   53.2338   22.6865 C.2       1 UNK         0.0000 
     12 C12         2.9828   52.5609   21.5448 C.2       1 UNK         0.0000 
     13 C13         3.9668   52.5199   20.3781 C.3       1 UNK         0.0000 
     14 C14         4.9651   53.7491   20.3819 C.3       1 UNK         0.0000 
     15 C15         5.2289   54.3055   21.7907 C.2       1 UNK         0.0000 
     16 C16         4.4002   54.0645   22.8273 C.2       1 UNK         0.0000 
     17 N17         4.4470   54.4886   24.1336 N.pl3     1 UNK         0.0000 
     18 C18         5.5746   55.1264   24.8081 C.3       1 UNK         0.0000 
     19 C19         6.4271   54.1988   25.6897 C.3       1 UNK         0.0000 
     20 O20         7.1036   54.8967   26.7092 O.3       1 UNK         0.0000 
     21 O21         4.4858   54.8002   19.5403 O.3       1 UNK         0.0000 
     22 C22         5.4515   55.6768   18.9734 C.3       1 UNK         0.0000 
     23 C23         4.7250   56.5718   17.9572 C.3       1 UNK         0.0000 
     24 C24         4.0378   55.7868   16.8179 C.3       1 UNK         0.0000 
     25 N25         3.0177   56.6044   16.1806 N.pl3     1 UNK         0.0000 
     26 C26         1.6723   56.5879   16.4692 C.ar      1 UNK         0.0000 
     27 C27         1.0330   57.5445   15.6943 C.ar      1 UNK         0.0000 
     28 C28         2.0122   58.1763   14.9272 C.ar      1 UNK         0.0000 
     29 C29         3.2275   57.5898   15.2462 C.ar      1 UNK         0.0000 
     30 O30         3.2443   52.4169   19.1699 O.3       1 UNK         0.0000 
     31 O31         4.7041   51.3216   20.4817 O.3       1 UNK         0.0000 
     32 C32         1.3740   52.6723   24.5077 C.ar      1 UNK         0.0000 
     33 C33         1.0711   52.7844   25.8467 C.ar      1 UNK         0.0000 
     34 C34        -0.2388   52.0961   26.0551 C.2       1 UNK         0.0000 
     35 O35        -0.9148   52.0162   27.0777 O.2       1 UNK         0.0000 
     36 N36        -0.5761   51.5916   24.8572 N.am      1 UNK         0.0000 
     37 C37         0.2807   51.8872   23.8647 C.2       1 UNK         0.0000 
     38 O38         0.1320   51.5685   22.6887 O.2       1 UNK         0.0000 
     39 Cl39        1.9044   50.9034   28.4810 Cl        1 UNK         0.0000 
     40 H40         0.7064   55.9801   30.4857 H         1 UNK         0.0000 
     41 H41         0.3494   53.9609   31.8833 H         1 UNK         0.0000 
     42 H42         0.8944   51.7402   30.9787 H         1 UNK         0.0000 
     43 H43         1.4332   55.7566   28.1537 H         1 UNK         0.0000 
     44 H44         3.6944   54.6503   26.8814 H         1 UNK         0.0000 
     45 H45         2.1418   51.8940   21.4875 H         1 UNK         0.0000 
     46 H46         5.9055   53.4095   19.9456 H         1 UNK         0.0000 
     47 H47         6.0848   54.9453   21.9382 H         1 UNK         0.0000 
     48 H48         6.2171   55.7154   24.1543 H         1 UNK         0.0000 
     49 H49         5.1991   55.9332   25.4383 H         1 UNK         0.0000 
     50 H50         5.7290   53.5588   26.2283 H         1 UNK         0.0000 
     51 H51         6.9193   53.3828   25.1591 H         1 UNK         0.0000 
     52 H52         7.1685   54.3323   27.4862 H         1 UNK         0.0000 
     53 H53         5.9123   56.2828   19.7552 H         1 UNK         0.0000 
     54 H54         6.2429   55.1186   18.4714 H         1 UNK         0.0000 
     55 H55         3.9776   57.1644   18.4819 H         1 UNK         0.0000 
     56 H56         5.4270   57.2937   17.5359 H         1 UNK         0.0000 
     57 H57         4.7561   55.4561   16.0659 H         1 UNK         0.0000 
     58 H58         3.5481   54.8862   17.1921 H         1 UNK         0.0000 
     59 H59         1.2879   55.9003   17.2086 H         1 UNK         0.0000 
     60 H60        -0.0228   57.7741   15.6998 H         1 UNK         0.0000 
     61 H61         1.8568   58.9854   14.2283 H         1 UNK         0.0000 
     62 H62         4.2270   57.7991   14.8934 H         1 UNK         0.0000 
     63 H63         3.8582   52.1978   18.4637 H         1 UNK         0.0000 
     64 H64         4.9389   51.0346   19.5776 H         1 UNK         0.0000 
     65 H65        -1.4187   51.0598   24.7134 H         1 UNK         0.0000 
@<TRIPOS>BOND
     1    1    6 ar   
     2    1    2 ar   
     3    1   40 1    
     4    2    3 ar   
     5    2   41 1    
     6    3    4 ar   
     7    3   42 1    
     8    4    5 ar   
     9    4   39 1    
    10    5    6 ar   
    11    5    7 1    
    12    6   43 1    
    13    7   33 ar   
    14    7    8 ar   
    15    8    9 ar   
    16    8   44 1    
    17    9   17 1    
    18    9   10 ar   
    19   10   11 1    
    20   10   32 ar   
    21   11   16 1    
    22   11   12 2    
    23   12   13 1    
    24   12   45 1    
    25   13   14 1    
    26   13   30 1    
    27   13   31 1    
    28   14   15 1    
    29   14   21 1    
    30   14   46 1    
    31   15   16 2    
    32   15   47 1    
    33   16   17 1    
    34   17   18 1    
    35   18   19 1    
    36   18   48 1    
    37   18   49 1    
    38   19   20 1    
    39   19   50 1    
    40   19   51 1    
    41   20   52 1    
    42   21   22 1    
    43   22   23 1    
    44   22   53 1    
    45   22   54 1    
    46   23   24 1    
    47   23   55 1    
    48   23   56 1    
    49   24   25 1    
    50   24   57 1    
    51   24   58 1    
    52   25   29 ar   
    53   25   26 ar   
    54   26   27 ar   
    55   26   59 1    
    56   27   28 ar   
    57   27   60 1    
    58   28   29 ar   
    59   28   61 1    
    60   29   62 1    
    61   30   63 1    
    62   31   64 1    
    63   32   37 1    
    64   32   33 ar   
    65   33   34 1    
    66   34   35 2    
    67   34   36 am   BACKBONE|DICT|INTERRES
    68   36   37 am   BACKBONE|DICT|INTERRES
    69   36   65 1    
    70   37   38 2    
@<TRIPOS>SUBSTRUCTURE
     1 UNK         1 GROUP             0       ****    0 ROOT    
