@<TRIPOS>MOLECULE
CHEMBL441695_37
36   40    1
SMALL
USER_CHARGES


@<TRIPOS>ATOM
      1 C1          0.5402   52.8631   30.8155 C.ar      1 UNK         0.0000 
      2 C2          1.7411   52.2012   30.5939 C.ar      1 UNK         0.0000 
      3 C3          2.4055   52.3613   29.3799 C.ar      1 UNK         0.0000 
      4 C4          1.9109   53.2409   28.4060 C.ar      1 UNK         0.0000 
      5 C5          0.7030   53.8996   28.6465 C.ar      1 UNK         0.0000 
      6 C6          0.0190   53.7054   29.8423 C.ar      1 UNK         0.0000 
      7 C7          2.7170   53.5518   27.1895 C.ar      1 UNK         0.0000 
      8 C8          2.1985   53.3485   25.8972 C.ar      1 UNK         0.0000 
      9 C9          3.0275   53.6536   24.7986 C.ar      1 UNK         0.0000 
     10 C10         4.3506   54.1311   24.9414 C.ar      1 UNK         0.0000 
     11 C11         4.8717   54.2998   23.6529 C.ar      1 UNK         0.0000 
     12 C12         6.0957   54.7523   23.1242 C.ar      1 UNK         0.0000 
     13 C13         6.2219   54.8855   21.7414 C.ar      1 UNK         0.0000 
     14 C14         5.1880   54.4971   20.8836 C.ar      1 UNK         0.0000 
     15 C15         3.9774   53.9976   21.3754 C.ar      1 UNK         0.0000 
     16 C16         3.8379   53.9292   22.7656 C.ar      1 UNK         0.0000 
     17 O17         2.7220   53.5265   23.4643 O.3       1 UNK         0.0000 
     18 O18         7.3875   55.3893   21.2267 O.3       1 UNK         0.0000 
     19 C19         4.8237   54.3436   26.2395 C.ar      1 UNK         0.0000 
     20 C20         4.0162   54.0745   27.3169 C.ar      1 UNK         0.0000 
     21 C21         4.7811   54.4883   28.5259 C.2       1 UNK         0.0000 
     22 O22         4.4181   54.4966   29.6959 O.2       1 UNK         0.0000 
     23 N23         5.9774   54.8964   28.0802 N.am      1 UNK         0.0000 
     24 C24         6.1159   54.8587   26.7463 C.2       1 UNK         0.0000 
     25 O25         7.1014   55.2091   26.1132 O.2       1 UNK         0.0000 
     26 H26         0.0131   52.7315   31.7502 H         1 UNK         0.0000 
     27 H27         2.1523   51.5838   31.3764 H         1 UNK         0.0000 
     28 H28         3.3466   51.8555   29.2204 H         1 UNK         0.0000 
     29 H29         0.3104   54.6022   27.9323 H         1 UNK         0.0000 
     30 H30        -0.8943   54.2394   30.0327 H         1 UNK         0.0000 
     31 H31         1.2007   52.9614   25.7518 H         1 UNK         0.0000 
     32 H32         6.9132   55.0450   23.7607 H         1 UNK         0.0000 
     33 H33         5.3234   54.5917   19.8158 H         1 UNK         0.0000 
     34 H34         3.1730   53.7054   20.7148 H         1 UNK         0.0000 
     35 H35         8.0675   55.5322   21.8918 H         1 UNK         0.0000 
     36 H36         6.7002   55.2541   28.6961 H         1 UNK         0.0000 
@<TRIPOS>BOND
     1    1    6 ar   
     2    1    2 ar   
     3    1   26 1    
     4    2    3 ar   
     5    2   27 1    
     6    3    4 ar   
     7    3   28 1    
     8    4    5 ar   
     9    4    7 1    
    10    5    6 ar   
    11    5   29 1    
    12    6   30 1    
    13    7   20 ar   
    14    7    8 ar   
    15    8    9 ar   
    16    8   31 1    
    17    9   17 1    
    18    9   10 ar   
    19   10   11 1    
    20   10   19 ar   
    21   11   16 ar   
    22   11   12 ar   
    23   12   13 ar   
    24   12   32 1    
    25   13   14 ar   
    26   13   18 1    
    27   14   15 ar   
    28   14   33 1    
    29   15   16 ar   
    30   15   34 1    
    31   16   17 1    
    32   18   35 1    
    33   19   24 1    
    34   19   20 ar   
    35   20   21 1    
    36   21   22 2    
    37   21   23 am   BACKBONE|DICT|INTERRES
    38   23   24 am   BACKBONE|DICT|INTERRES
    39   23   36 1    
    40   24   25 2    
@<TRIPOS>SUBSTRUCTURE
     1 UNK         1 GROUP             0       ****    0 ROOT    
