@<TRIPOS>MOLECULE
CHEMBL508294_95
50   55    1
SMALL
USER_CHARGES


@<TRIPOS>ATOM
      1 C1         -0.1924   52.8922   30.4642 C.ar      1 UNK         0.0000 
      2 C2          0.3871   54.1485   30.3363 C.ar      1 UNK         0.0000 
      3 C3          1.2226   54.4277   29.2557 C.ar      1 UNK         0.0000 
      4 C4          1.5376   53.4198   28.3188 C.ar      1 UNK         0.0000 
      5 C5          0.8889   52.1716   28.4365 C.ar      1 UNK         0.0000 
      6 C6          0.0263   51.9215   29.4985 C.ar      1 UNK         0.0000 
      7 Cl7         1.1044   50.8966   27.2853 Cl        1 UNK         0.0000 
      8 C8          2.5209   53.6642   27.2227 C.ar      1 UNK         0.0000 
      9 C9          2.0818   53.5709   25.8996 C.ar      1 UNK         0.0000 
     10 C10         2.9985   53.8092   24.8663 C.ar      1 UNK         0.0000 
     11 C11         4.3564   54.1426   25.1159 C.ar      1 UNK         0.0000 
     12 C12         4.9862   54.3387   23.8598 C.ar      1 UNK         0.0000 
     13 C13         6.2863   54.7169   23.4563 C.ar      1 UNK         0.0000 
     14 C14         6.5534   54.8967   22.0979 C.ar      1 UNK         0.0000 
     15 C15         5.5743   54.6434   21.1430 C.ar      1 UNK         0.0000 
     16 C16         4.2940   54.2180   21.4918 C.ar      1 UNK         0.0000 
     17 C17         4.0031   54.0972   22.8574 C.ar      1 UNK         0.0000 
     18 N18         2.8102   53.7985   23.4985 N.pl3     1 UNK         0.0000 
     19 C19         1.5380   53.5320   22.8437 C.3       1 UNK         0.0000 
     20 C20         1.4932   52.1060   22.2649 C.3       1 UNK         0.0000 
     21 N21         0.1973   51.8720   21.6510 N.pl3     1 UNK         0.0000 
     22 C22        -0.9874   51.5901   22.2806 C.ar      1 UNK         0.0000 
     23 C23        -1.9281   51.4849   21.2672 C.ar      1 UNK         0.0000 
     24 N24        -1.3960   51.6967   20.0761 N.2       1 UNK         0.0000 
     25 C25        -0.1265   51.9282   20.3175 C.ar      1 UNK         0.0000 
     26 O26         7.7987   55.2967   21.6818 O.3       1 UNK         0.0000 
     27 C27         4.7623   54.2212   26.4612 C.ar      1 UNK         0.0000 
     28 C28         3.8650   53.9782   27.4733 C.ar      1 UNK         0.0000 
     29 C29         4.6105   54.1224   28.7588 C.2       1 UNK         0.0000 
     30 O30         4.1970   53.9798   29.9076 O.2       1 UNK         0.0000 
     31 N31         5.8617   54.4728   28.4127 N.am      1 UNK         0.0000 
     32 C32         6.0605   54.5647   27.0876 C.2       1 UNK         0.0000 
     33 O33         7.1044   54.8966   26.5430 O.2       1 UNK         0.0000 
     34 Cl34        1.8103   56.0521   29.0958 Cl        1 UNK         0.0000 
     35 H35        -0.8607   52.6754   31.2817 H         1 UNK         0.0000 
     36 H36         0.1700   54.9145   31.0668 H         1 UNK         0.0000 
     37 H37        -0.4716   50.9648   29.5827 H         1 UNK         0.0000 
     38 H38         1.0526   53.3193   25.6945 H         1 UNK         0.0000 
     39 H39         7.0679   54.9050   24.1720 H         1 UNK         0.0000 
     40 H40         5.8138   54.7754   20.0975 H         1 UNK         0.0000 
     41 H41         3.5472   54.0434   20.7296 H         1 UNK         0.0000 
     42 H42         0.7247   53.6944   23.5512 H         1 UNK         0.0000 
     43 H43         1.4130   54.2917   22.0817 H         1 UNK         0.0000 
     44 H44         2.2649   51.9558   21.5081 H         1 UNK         0.0000 
     45 H45         1.6410   51.3525   23.0405 H         1 UNK         0.0000 
     46 H46        -1.0455   51.4847   23.3546 H         1 UNK         0.0000 
     47 H47        -2.9770   51.2565   21.3905 H         1 UNK         0.0000 
     48 H48         0.6357   52.1556   19.5859 H         1 UNK         0.0000 
     49 H49         8.4571   55.2980   22.3901 H         1 UNK         0.0000 
     50 H50         6.5790   54.7058   29.0852 H         1 UNK         0.0000 
@<TRIPOS>BOND
     1    1    6 ar   
     2    1    2 ar   
     3    1   35 1    
     4    2    3 ar   
     5    2   36 1    
     6    3    4 ar   
     7    3   34 1    
     8    4    5 ar   
     9    4    8 1    
    10    5    6 ar   
    11    5    7 1    
    12    6   37 1    
    13    8   28 ar   
    14    8    9 ar   
    15    9   10 ar   
    16    9   38 1    
    17   10   18 ar   
    18   10   11 ar   
    19   11   12 ar   
    20   11   27 ar   
    21   12   17 ar   
    22   12   13 ar   
    23   13   14 ar   
    24   13   39 1    
    25   14   15 ar   
    26   14   26 1    
    27   15   16 ar   
    28   15   40 1    
    29   16   17 ar   
    30   16   41 1    
    31   17   18 ar   
    32   18   19 1    
    33   19   20 1    
    34   19   42 1    
    35   19   43 1    
    36   20   21 1    
    37   20   44 1    
    38   20   45 1    
    39   21   25 ar   
    40   21   22 ar   
    41   22   23 ar   
    42   22   46 1    
    43   23   24 ar   
    44   23   47 1    
    45   24   25 ar   
    46   25   48 1    
    47   26   49 1    
    48   27   32 1    
    49   27   28 ar   
    50   28   29 1    
    51   29   30 2    
    52   29   31 am   BACKBONE|DICT|INTERRES
    53   31   32 am   BACKBONE|DICT|INTERRES
    54   31   50 1    
    55   32   33 2    
@<TRIPOS>SUBSTRUCTURE
     1 UNK         1 GROUP             0       ****    0 ROOT    
