CHEMBL483786_57
                    3D
 Schrodinger Suite 2024-2.
 55 60  0  0  1  0            999 V2000
   -0.0955   53.1267   30.6447 C   0  0  0  0  0  0
    0.4843   54.3675   30.4065 C   0  0  0  0  0  0
    1.2743   54.5681   29.2746 C   0  0  0  0  0  0
    1.5527   53.4994   28.3948 C   0  0  0  0  0  0
    0.9050   52.2675   28.6234 C   0  0  0  0  0  0
    0.0748   52.0966   29.7290 C   0  0  0  0  0  0
    1.1120   50.9045   27.5811 Cl  0  0  0  0  0  0
    2.5190   53.6700   27.2652 C   0  0  0  0  0  0
    2.0673   53.5374   25.9451 C   0  0  0  0  0  0
    2.9720   53.7751   24.8971 C   0  0  0  0  0  0
    4.3322   54.1227   25.1328 C   0  0  0  0  0  0
    4.9512   54.3261   23.8733 C   0  0  0  0  0  0
    6.2478   54.7062   23.4618 C   0  0  0  0  0  0
    6.5063   54.8967   22.1037 C   0  0  0  0  0  0
    5.5187   54.6519   21.1548 C   0  0  0  0  0  0
    4.2409   54.2295   21.5127 C   0  0  0  0  0  0
    3.9600   54.0944   22.8790 C   0  0  0  0  0  0
    2.7755   53.7687   23.5245 N   0  0  0  0  0  0
    1.5034   53.5166   22.8513 C   0  0  0  0  0  0
    1.4050   52.1059   22.2318 C   0  0  0  0  0  0
    1.1507   50.9559   23.2437 C   0  0  0  0  0  0
    0.4432   49.7337   22.6165 C   0  0  0  0  0  0
    0.5079   49.5043   21.4073 O   0  0  0  0  0  0
   -0.3321   48.8950   23.4691 N   0  0  0  0  0  0
   -0.3653   48.8421   24.8409 C   0  0  0  0  0  0
   -1.2951   47.8646   25.1615 C   0  0  0  0  0  0
   -1.8234   47.3148   24.0868 N   0  0  0  0  0  0
   -1.2475   47.9384   23.0865 C   0  0  0  0  0  0
    7.7487   55.2982   21.6818 O   0  0  0  0  0  0
    4.7568   54.2122   26.4710 C   0  0  0  0  0  0
    3.8684   53.9829   27.4938 C   0  0  0  0  0  0
    4.6248   54.1523   28.7705 C   0  0  0  0  0  0
    4.2189   54.0375   29.9262 O   0  0  0  0  0  0
    5.8720   54.4959   28.4098 N   0  0  0  0  0  0
    6.0603   54.5695   27.0827 C   0  0  0  0  0  0
    7.1043   54.8945   26.5302 O   0  0  0  0  0  0
    1.8761   56.1712   28.9963 Cl  0  0  0  0  0  0
   -0.7063   52.9660   31.5209 H   0  0  0  0  0  0
    0.3074   55.1802   31.0960 H   0  0  0  0  0  0
   -0.4325   51.1549   29.8915 H   0  0  0  0  0  0
    1.0353   53.2877   25.7535 H   0  0  0  0  0  0
    7.0330   54.8965   24.1711 H   0  0  0  0  0  0
    5.7494   54.7906   20.1087 H   0  0  0  0  0  0
    3.4923   54.0566   20.7508 H   0  0  0  0  0  0
    1.3970   54.2779   22.0831 H   0  0  0  0  0  0
    0.6818   53.6997   23.5442 H   0  0  0  0  0  0
    2.2948   51.8865   21.6389 H   0  0  0  0  0  0
    0.5877   52.1450   21.5070 H   0  0  0  0  0  0
    0.5144   51.3334   24.0436 H   0  0  0  0  0  0
    2.0856   50.6342   23.7034 H   0  0  0  0  0  0
    0.2601   49.4642   25.4602 H   0  0  0  0  0  0
   -1.5642   47.5540   26.1627 H   0  0  0  0  0  0
   -1.4327   47.7626   22.0366 H   0  0  0  0  0  0
    8.4128   55.2967   22.3844 H   0  0  0  0  0  0
    6.5943   54.7400   29.0739 H   0  0  0  0  0  0
  1  6  2  0  0  0
  1  2  1  0  0  0
  1 38  1  0  0  0
  2  3  2  0  0  0
  2 39  1  0  0  0
  3  4  1  0  0  0
  3 37  1  0  0  0
  4  5  2  0  0  0
  4  8  1  0  0  0
  5  6  1  0  0  0
  5  7  1  0  0  0
  6 40  1  0  0  0
  8 31  2  0  0  0
  8  9  1  0  0  0
  9 10  2  0  0  0
  9 41  1  0  0  0
 10 18  1  0  0  0
 10 11  1  0  0  0
 11 12  1  0  0  0
 11 30  2  0  0  0
 12 17  2  0  0  0
 12 13  1  0  0  0
 13 14  2  0  0  0
 13 42  1  0  0  0
 14 15  1  0  0  0
 14 29  1  0  0  0
 15 16  2  0  0  0
 15 43  1  0  0  0
 16 17  1  0  0  0
 16 44  1  0  0  0
 17 18  1  0  0  0
 18 19  1  0  0  0
 19 20  1  0  0  0
 19 45  1  0  0  0
 19 46  1  0  0  0
 20 21  1  0  0  0
 20 47  1  0  0  0
 20 48  1  0  0  0
 21 22  1  0  0  0
 21 49  1  0  0  0
 21 50  1  0  0  0
 22 23  2  0  0  0
 22 24  1  0  0  0
 24 28  1  0  0  0
 24 25  1  0  0  0
 25 26  2  0  0  0
 25 51  1  0  0  0
 26 27  1  0  0  0
 26 52  1  0  0  0
 27 28  2  0  0  0
 28 53  1  0  0  0
 29 54  1  0  0  0
 30 35  1  0  0  0
 30 31  1  0  0  0
 31 32  1  0  0  0
 32 33  2  0  0  0
 32 34  1  0  0  0
 34 35  1  0  0  0
 34 55  1  0  0  0
 35 36  2  0  0  0
M  END
> <i_i_glide_confnum>
67

> <i_i_glide_lignum>
58

> <i_i_glide_posenum>
351

> <i_i_glide_rotatable_bonds>
7

> <i_m_Source_File_Index>
116

> <b_m_subgroup_collapsed>
0

> <r_i_docking_score>
-11.9048

> <r_i_glide_ecoul>
-13.7976

> <r_i_glide_eff_state_penalty>
0

> <r_i_glide_einternal>
6.97511

> <r_i_glide_emodel>
-118.998

> <r_i_glide_energy>
-71.8956

> <r_i_glide_erotb>
0.362629

> <r_i_glide_esite>
-0.00796634

> <r_i_glide_evdw>
-58.098

> <r_i_glide_gscore>
-11.9048

> <r_i_glide_hbond>
-0.926996

> <r_i_glide_ligand_efficiency>
-0.321751

> <r_i_glide_ligand_efficiency_ln>
-2.58187

> <r_i_glide_ligand_efficiency_sa>
-1.07214

> <r_i_glide_lipo>
-4.05289

> <r_i_glide_metal>
0

> <r_i_glide_rewards>
-2.30502

> <s_i_glide_gridfile>
wee1_glide-grid

> <s_m_Source_File>
wee1_actives_glide_SP.sdf

> <s_m_Source_Path>
/Users/zhangxujun/Desktop

> <s_m_entry_id>
254

> <s_m_entry_name>
wee1_actives_glide_SP.116

> <s_m_subgroup_title>
wee1_actives_glide_SP

> <s_m_subgroupid>
wee1_actives_glide_SP


$$$$
