@<TRIPOS>MOLECULE
CHEMBL257857_40
65   70    1
SMALL
USER_CHARGES


@<TRIPOS>ATOM
      1 C1          1.5102   53.6304   22.8791 C.3       1 UNK         0.0000 
      2 N2          2.7991   53.8810   23.5086 N.pl3     1 UNK         0.0000 
      3 C3          3.0026   53.8414   24.8723 C.ar      1 UNK         0.0000 
      4 C4          2.0955   53.5753   25.9076 C.ar      1 UNK         0.0000 
      5 C5          2.5442   53.6513   27.2314 C.ar      1 UNK         0.0000 
      6 C6          3.8837   53.9836   27.4779 C.ar      1 UNK         0.0000 
      7 C7          4.7743   54.2222   26.4599 C.ar      1 UNK         0.0000 
      8 C8          4.3649   54.1548   25.1163 C.ar      1 UNK         0.0000 
      9 C9          4.9934   54.3532   23.8589 C.ar      1 UNK         0.0000 
     10 C10         3.9797   54.2364   22.8744 C.ar      1 UNK         0.0000 
     11 C11         4.2373   54.4967   21.5286 C.ar      1 UNK         0.0000 
     12 C12         5.5341   54.8348   21.1414 C.ar      1 UNK         0.0000 
     13 C13         6.5581   54.9201   22.0883 C.ar      1 UNK         0.0000 
     14 C14         6.3047   54.6699   23.4409 C.ar      1 UNK         0.0000 
     15 O15         7.8220   55.2969   21.6972 O.3       1 UNK         0.0000 
     16 S16         5.8986   55.2411   19.4186 S.o2      1 UNK         0.0000 
     17 O17         6.8716   54.2546   18.9385 O.2       1 UNK         0.0000 
     18 O18         6.2404   56.6680   19.4233 O.2       1 UNK         0.0000 
     19 C19         4.3195   55.0450   18.3728 C.3       1 UNK         0.0000 
     20 C20         4.0074   53.5801   17.9744 C.3       1 UNK         0.0000 
     21 C21         3.3650   52.7363   19.0874 C.3       1 UNK         0.0000 
     22 N22         3.1044   51.2967   18.6367 N.4       1 UNK         0.0000 
     23 C23         2.1279   51.1152   17.4559 C.3       1 UNK         0.0000 
     24 C24         1.5039   49.7265   17.6575 C.3       1 UNK         0.0000 
     25 C25         2.0712   49.1684   18.9636 C.3       1 UNK         0.0000 
     26 C26         2.5482   50.3863   19.7431 C.3       1 UNK         0.0000 
     27 C27         6.0724   54.5689   27.0749 C.2       1 UNK         0.0000 
     28 O28         7.1044   54.8966   26.5141 O.2       1 UNK         0.0000 
     29 N29         5.8837   54.4965   28.4014 N.am      1 UNK         0.0000 
     30 C30         4.6319   54.1620   28.7586 C.2       1 UNK         0.0000 
     31 O31         4.2227   54.0628   29.9128 O.2       1 UNK         0.0000 
     32 C32         1.5763   53.3834   28.3319 C.ar      1 UNK         0.0000 
     33 C33         1.3343   54.3675   29.3023 C.ar      1 UNK         0.0000 
     34 C34         0.4807   54.1214   30.3754 C.ar      1 UNK         0.0000 
     35 C35        -0.1690   52.8955   30.4697 C.ar      1 UNK         0.0000 
     36 C36         0.0120   51.9294   29.4887 C.ar      1 UNK         0.0000 
     37 C37         0.8875   52.1594   28.4313 C.ar      1 UNK         0.0000 
     38 Cl38        1.1036   50.8876   27.2817 Cl        1 UNK         0.0000 
     39 H39         0.7908   54.3619   23.2491 H         1 UNK         0.0000 
     40 H40         1.5786   53.6967   21.7949 H         1 UNK         0.0000 
     41 H41         1.1704   52.6295   23.1470 H         1 UNK         0.0000 
     42 H42         1.0649   53.3317   25.6959 H         1 UNK         0.0000 
     43 H43         3.4307   54.5114   20.8259 H         1 UNK         0.0000 
     44 H44         7.1114   54.7637   24.1475 H         1 UNK         0.0000 
     45 H45         8.4688   55.2968   22.4159 H         1 UNK         0.0000 
     46 H46         4.5185   55.6207   17.4685 H         1 UNK         0.0000 
     47 H47         3.5014   55.5488   18.8818 H         1 UNK         0.0000 
     48 H48         4.9115   53.0870   17.6112 H         1 UNK         0.0000 
     49 H49         3.3266   53.6046   17.1227 H         1 UNK         0.0000 
     50 H50         2.4049   53.1267   19.4290 H         1 UNK         0.0000 
     51 H51         4.0553   52.5734   19.9125 H         1 UNK         0.0000 
     52 H52         2.7092   51.2181   16.5373 H         1 UNK         0.0000 
     53 H53         1.3796   51.9067   17.5273 H         1 UNK         0.0000 
     54 H54         1.7461   49.0701   16.8197 H         1 UNK         0.0000 
     55 H55         0.4173   49.8069   17.7053 H         1 UNK         0.0000 
     56 H56         1.3338   48.5880   19.5191 H         1 UNK         0.0000 
     57 H57         2.9201   48.5116   18.7578 H         1 UNK         0.0000 
     58 H58         1.7392   50.9335   20.2314 H         1 UNK         0.0000 
     59 H59         3.3398   50.1965   20.4688 H         1 UNK         0.0000 
     60 H60         6.6058   54.7419   29.0658 H         1 UNK         0.0000 
     61 H61         1.8339   55.3239   29.2412 H         1 UNK         0.0000 
     62 H62         0.3203   54.8793   31.1283 H         1 UNK         0.0000 
     63 H63        -0.8474   52.6933   31.2823 H         1 UNK         0.0000 
     64 H64        -0.5190   50.9903   29.5612 H         1 UNK         0.0000 
     65 H65         4.0275   50.9027   18.3734 H         1 UNK         0.0000 
@<TRIPOS>BOND
     1    1    2 1    
     2    1   39 1    
     3    1   40 1    
     4    1   41 1    
     5    2   10 ar   
     6    2    3 ar   
     7    3    8 ar   
     8    3    4 ar   
     9    4    5 ar   
    10    4   42 1    
    11    5    6 ar   
    12    5   32 1    
    13    6   30 1    
    14    6    7 ar   
    15    7    8 ar   
    16    7   27 1    
    17    8    9 ar   
    18    9   14 ar   
    19    9   10 ar   
    20   10   11 ar   
    21   11   12 ar   
    22   11   43 1    
    23   12   13 ar   
    24   12   16 1    
    25   13   14 ar   
    26   13   15 1    
    27   14   44 1    
    28   15   45 1    
    29   16   17 2    
    30   16   18 2    
    31   16   19 1    
    32   19   20 1    
    33   19   46 1    
    34   19   47 1    
    35   20   21 1    
    36   20   48 1    
    37   20   49 1    
    38   21   22 1    
    39   21   50 1    
    40   21   51 1    
    41   22   26 1    
    42   22   23 1    
    43   22   65 1    
    44   23   24 1    
    45   23   52 1    
    46   23   53 1    
    47   24   25 1    
    48   24   54 1    
    49   24   55 1    
    50   25   26 1    
    51   25   56 1    
    52   25   57 1    
    53   26   58 1    
    54   26   59 1    
    55   27   28 2    
    56   27   29 am   BACKBONE|DICT|INTERRES
    57   29   30 am   BACKBONE|DICT|INTERRES
    58   29   60 1    
    59   30   31 2    
    60   32   37 ar   
    61   32   33 ar   
    62   33   34 ar   
    63   33   61 1    
    64   34   35 ar   
    65   34   62 1    
    66   35   36 ar   
    67   35   63 1    
    68   36   37 ar   
    69   36   64 1    
    70   37   38 1    
@<TRIPOS>SUBSTRUCTURE
     1 UNK         1 GROUP             0       ****    0 ROOT    
