@<TRIPOS>MOLECULE
CHEMBL514192_73
59   64    1
SMALL
USER_CHARGES


@<TRIPOS>ATOM
      1 C1          1.2725   53.6038   23.1535 C.3       1 UNK         0.0000 
      2 N2          2.5999   53.8307   23.7014 N.pl3     1 UNK         0.0000 
      3 C3          2.8689   53.8188   25.0513 C.ar      1 UNK         0.0000 
      4 C4          2.0101   53.5651   26.1262 C.ar      1 UNK         0.0000 
      5 C5          2.5167   53.6750   27.4237 C.ar      1 UNK         0.0000 
      6 C6          3.8683   54.0020   27.6033 C.ar      1 UNK         0.0000 
      7 C7          4.7221   54.2229   26.5466 C.ar      1 UNK         0.0000 
      8 C8          4.2400   54.1424   25.2258 C.ar      1 UNK         0.0000 
      9 C9          4.7966   54.3282   23.9352 C.ar      1 UNK         0.0000 
     10 C10         3.7629   54.0831   22.9910 C.ar      1 UNK         0.0000 
     11 C11         3.9954   54.1312   21.6132 C.ar      1 UNK         0.0000 
     12 C12         5.2713   54.4945   21.1711 C.ar      1 UNK         0.0000 
     13 C13         6.2824   54.8284   22.0881 C.ar      1 UNK         0.0000 
     14 C14         6.0686   54.6968   23.4616 C.ar      1 UNK         0.0000 
     15 O15         7.5048   55.2965   21.6814 O.3       1 UNK         0.0000 
     16 S16         5.5279   54.5151   19.3820 S.o2      1 UNK         0.0000 
     17 O17         6.9441   54.2598   19.1052 O.2       1 UNK         0.0000 
     18 O18         4.8788   55.7324   18.8816 O.2       1 UNK         0.0000 
     19 N19         4.6272   53.1291   18.7530 N.pl3     1 UNK         0.0000 
     20 C20         3.2870   53.3050   18.1549 C.3       1 UNK         0.0000 
     21 C21         2.5610   51.9633   17.9158 C.3       1 UNK         0.0000 
     22 N22         2.2345   51.2651   19.1527 N.pl3     1 UNK         0.0000 
     23 C23         2.7010   50.0300   19.5352 C.ar      1 UNK         0.0000 
     24 C24         2.1571   49.6891   20.7624 C.ar      1 UNK         0.0000 
     25 C25         1.3123   50.7340   21.1375 C.ar      1 UNK         0.0000 
     26 C26         1.3793   51.6988   20.1417 C.ar      1 UNK         0.0000 
     27 C27         6.0627   54.5357   27.1068 C.2       1 UNK         0.0000 
     28 O28         7.1043   54.8083   26.5206 O.2       1 UNK         0.0000 
     29 N29         5.9048   54.4965   28.4404 N.am      1 UNK         0.0000 
     30 C30         4.6642   54.1867   28.8483 C.2       1 UNK         0.0000 
     31 O31         4.2973   54.0963   30.0173 O.2       1 UNK         0.0000 
     32 C32         1.5886   53.4638   28.5668 C.ar      1 UNK         0.0000 
     33 C33         1.3812   54.5081   29.4784 C.ar      1 UNK         0.0000 
     34 C34         0.5590   54.3365   30.5874 C.ar      1 UNK         0.0000 
     35 C35        -0.0945   53.1234   30.7800 C.ar      1 UNK         0.0000 
     36 C36         0.0494   52.0971   29.8527 C.ar      1 UNK         0.0000 
     37 C37         0.8986   52.2509   28.7570 C.ar      1 UNK         0.0000 
     38 Cl38        1.1012   50.9075   27.6821 Cl        1 UNK         0.0000 
     39 H39         0.9773   52.5737   23.3595 H         1 UNK         0.0000 
     40 H40         0.5714   54.2787   23.6405 H         1 UNK         0.0000 
     41 H41         1.2581   53.7905   22.0825 H         1 UNK         0.0000 
     42 H42         0.9737   53.3072   25.9641 H         1 UNK         0.0000 
     43 H43         3.2080   53.9143   20.9084 H         1 UNK         0.0000 
     44 H44         6.8695   54.9286   24.1418 H         1 UNK         0.0000 
     45 H45         8.1504   55.3463   22.3958 H         1 UNK         0.0000 
     46 H46         5.1522   52.2865   18.4811 H         1 UNK         0.0000 
     47 H47         3.4108   53.8326   17.2080 H         1 UNK         0.0000 
     48 H48         2.6963   53.9560   18.7969 H         1 UNK         0.0000 
     49 H49         3.1526   51.2996   17.2833 H         1 UNK         0.0000 
     50 H50         1.6252   52.1395   17.3834 H         1 UNK         0.0000 
     51 H51         3.3858   49.4979   18.8853 H         1 UNK         0.0000 
     52 H52         2.3453   48.7807   21.3187 H         1 UNK         0.0000 
     53 H53         0.7135   50.7674   22.0356 H         1 UNK         0.0000 
     54 H54         0.8828   52.6537   20.0370 H         1 UNK         0.0000 
     55 H55         6.6499   54.7394   29.0802 H         1 UNK         0.0000 
     56 H56         1.8911   55.4511   29.3456 H         1 UNK         0.0000 
     57 H57         0.4342   55.1390   31.2962 H         1 UNK         0.0000 
     58 H58        -0.7155   52.9750   31.6491 H         1 UNK         0.0000 
     59 H59        -0.4941   51.1722   29.9958 H         1 UNK         0.0000 
@<TRIPOS>BOND
     1    1    2 1    
     2    1   39 1    
     3    1   40 1    
     4    1   41 1    
     5    2   10 ar   
     6    2    3 ar   
     7    3    8 ar   
     8    3    4 ar   
     9    4    5 ar   
    10    4   42 1    
    11    5    6 ar   
    12    5   32 1    
    13    6   30 1    
    14    6    7 ar   
    15    7    8 ar   
    16    7   27 1    
    17    8    9 ar   
    18    9   14 ar   
    19    9   10 ar   
    20   10   11 ar   
    21   11   12 ar   
    22   11   43 1    
    23   12   13 ar   
    24   12   16 1    
    25   13   14 ar   
    26   13   15 1    
    27   14   44 1    
    28   15   45 1    
    29   16   17 2    
    30   16   18 2    
    31   16   19 1    
    32   19   20 1    
    33   19   46 1    
    34   20   21 1    
    35   20   47 1    
    36   20   48 1    
    37   21   22 1    
    38   21   49 1    
    39   21   50 1    
    40   22   26 ar   
    41   22   23 ar   
    42   23   24 ar   
    43   23   51 1    
    44   24   25 ar   
    45   24   52 1    
    46   25   26 ar   
    47   25   53 1    
    48   26   54 1    
    49   27   28 2    
    50   27   29 am   BACKBONE|DICT|INTERRES
    51   29   30 am   BACKBONE|DICT|INTERRES
    52   29   55 1    
    53   30   31 2    
    54   32   37 ar   
    55   32   33 ar   
    56   33   34 ar   
    57   33   56 1    
    58   34   35 ar   
    59   34   57 1    
    60   35   36 ar   
    61   35   58 1    
    62   36   37 ar   
    63   36   59 1    
    64   37   38 1    
@<TRIPOS>SUBSTRUCTURE
     1 UNK         1 GROUP             0       ****    0 ROOT    
