@<TRIPOS>MOLECULE
CHEMBL271715_33
67   72    1
SMALL
USER_CHARGES


@<TRIPOS>ATOM
      1 C1          0.0583   51.8667   29.5070 C.ar      1 UNK         0.0000 
      2 C2         -0.2178   52.8163   30.4811 C.ar      1 UNK         0.0000 
      3 C3          0.3383   54.0888   30.3990 C.ar      1 UNK         0.0000 
      4 C4          1.2044   54.4075   29.3536 C.ar      1 UNK         0.0000 
      5 C5          1.5557   53.4239   28.4047 C.ar      1 UNK         0.0000 
      6 C6          0.9545   52.1616   28.4870 C.ar      1 UNK         0.0000 
      7 C7          2.5329   53.6646   27.3115 C.ar      1 UNK         0.0000 
      8 C8          2.1028   53.5227   25.9874 C.ar      1 UNK         0.0000 
      9 C9          3.0167   53.7800   24.9536 C.ar      1 UNK         0.0000 
     10 C10         4.3657   54.1367   25.2090 C.ar      1 UNK         0.0000 
     11 C11         4.9985   54.3491   23.9607 C.ar      1 UNK         0.0000 
     12 C12         6.2995   54.7245   23.5763 C.ar      1 UNK         0.0000 
     13 C13         6.5654   54.9887   22.2353 C.ar      1 UNK         0.0000 
     14 C14         5.5810   54.8395   21.2543 C.ar      1 UNK         0.0000 
     15 C15         4.3061   54.3555   21.5945 C.ar      1 UNK         0.0000 
     16 C16         4.0208   54.1454   22.9522 C.ar      1 UNK         0.0000 
     17 N17         2.8403   53.7722   23.5820 N.pl3     1 UNK         0.0000 
     18 C18         1.5903   53.4279   22.9137 C.3       1 UNK         0.0000 
     19 C19         1.4918   51.9278   22.5699 C.3       1 UNK         0.0000 
     20 O20         2.5152   51.5215   21.6826 O.3       1 UNK         0.0000 
     21 O21         5.9396   55.2100   19.9726 O.3       1 UNK         0.0000 
     22 C22         5.1306   54.8629   18.8556 C.3       1 UNK         0.0000 
     23 C23         5.7081   55.5796   17.6214 C.3       1 UNK         0.0000 
     24 C24         7.2178   55.3490   17.3737 C.3       1 UNK         0.0000 
     25 N25         7.5775   53.9414   17.1729 N.3       1 UNK         0.0000 
     26 C26         9.0379   53.7709   17.2180 C.3       1 UNK         0.0000 
     27 C27         9.4815   52.3282   16.8834 C.3       1 UNK         0.0000 
     28 O28         8.9098   51.8909   15.6550 O.3       1 UNK         0.0000 
     29 C29         7.4868   51.9466   15.6711 C.3       1 UNK         0.0000 
     30 C30         6.9984   53.3834   15.9411 C.3       1 UNK         0.0000 
     31 O31         7.8224   55.4210   21.8860 O.3       1 UNK         0.0000 
     32 C32         4.7679   54.2218   26.5530 C.ar      1 UNK         0.0000 
     33 C33         3.8704   53.9900   27.5649 C.ar      1 UNK         0.0000 
     34 C34         4.6100   54.1539   28.8502 C.2       1 UNK         0.0000 
     35 O35         4.1939   54.0328   30.0009 O.2       1 UNK         0.0000 
     36 N36         5.8615   54.4946   28.4994 N.am      1 UNK         0.0000 
     37 C37         6.0619   54.5713   27.1770 C.2       1 UNK         0.0000 
     38 O38         7.1047   54.8964   26.6334 O.2       1 UNK         0.0000 
     39 Cl39        1.7925   56.0357   29.2662 Cl        1 UNK         0.0000 
     40 H40        -0.4131   50.8963   29.5557 H         1 UNK         0.0000 
     41 H41        -0.8956   52.5675   31.2819 H         1 UNK         0.0000 
     42 H42         0.0872   54.8320   31.1415 H         1 UNK         0.0000 
     43 H43         1.1864   51.3971   27.7589 H         1 UNK         0.0000 
     44 H44         1.0777   53.2546   25.7803 H         1 UNK         0.0000 
     45 H45         7.0835   54.8684   24.2973 H         1 UNK         0.0000 
     46 H46         3.5379   54.2148   20.8506 H         1 UNK         0.0000 
     47 H47         0.7739   53.6740   23.5928 H         1 UNK         0.0000 
     48 H48         1.4098   54.0923   22.0803 H         1 UNK         0.0000 
     49 H49         1.6463   51.3402   23.4767 H         1 UNK         0.0000 
     50 H50         0.5050   51.6682   22.1825 H         1 UNK         0.0000 
     51 H51         2.3156   51.8395   20.7988 H         1 UNK         0.0000 
     52 H52         4.0989   55.1904   18.9916 H         1 UNK         0.0000 
     53 H53         5.1262   53.7811   18.7131 H         1 UNK         0.0000 
     54 H54         5.5608   56.6511   17.7616 H         1 UNK         0.0000 
     55 H55         5.1270   55.3454   16.7299 H         1 UNK         0.0000 
     56 H56         7.7615   55.7231   18.2435 H         1 UNK         0.0000 
     57 H57         7.5512   55.9466   16.5230 H         1 UNK         0.0000 
     58 H58         9.4111   54.0603   18.2018 H         1 UNK         0.0000 
     59 H59         9.5060   54.4546   16.5070 H         1 UNK         0.0000 
     60 H60        10.5680   52.2661   16.8223 H         1 UNK         0.0000 
     61 H61         9.1685   51.6549   17.6816 H         1 UNK         0.0000 
     62 H62         7.0945   51.5745   14.7245 H         1 UNK         0.0000 
     63 H63         7.1060   51.2972   16.4605 H         1 UNK         0.0000 
     64 H64         7.2627   54.0174   15.0930 H         1 UNK         0.0000 
     65 H65         5.9099   53.3926   15.9979 H         1 UNK         0.0000 
     66 H66         8.4697   55.3407   22.6045 H         1 UNK         0.0000 
     67 H67         6.5801   54.7326   29.1693 H         1 UNK         0.0000 
@<TRIPOS>BOND
     1    1    6 ar   
     2    1    2 ar   
     3    1   40 1    
     4    2    3 ar   
     5    2   41 1    
     6    3    4 ar   
     7    3   42 1    
     8    4    5 ar   
     9    4   39 1    
    10    5    6 ar   
    11    5    7 1    
    12    6   43 1    
    13    7   33 ar   
    14    7    8 ar   
    15    8    9 ar   
    16    8   44 1    
    17    9   17 ar   
    18    9   10 ar   
    19   10   11 ar   
    20   10   32 ar   
    21   11   16 ar   
    22   11   12 ar   
    23   12   13 ar   
    24   12   45 1    
    25   13   14 ar   
    26   13   31 1    
    27   14   15 ar   
    28   14   21 1    
    29   15   16 ar   
    30   15   46 1    
    31   16   17 ar   
    32   17   18 1    
    33   18   19 1    
    34   18   47 1    
    35   18   48 1    
    36   19   20 1    
    37   19   49 1    
    38   19   50 1    
    39   20   51 1    
    40   21   22 1    
    41   22   23 1    
    42   22   52 1    
    43   22   53 1    
    44   23   24 1    
    45   23   54 1    
    46   23   55 1    
    47   24   25 1    
    48   24   56 1    
    49   24   57 1    
    50   25   30 1    
    51   25   26 1    
    52   26   27 1    
    53   26   58 1    
    54   26   59 1    
    55   27   28 1    
    56   27   60 1    
    57   27   61 1    
    58   28   29 1    
    59   29   30 1    
    60   29   62 1    
    61   29   63 1    
    62   30   64 1    
    63   30   65 1    
    64   31   66 1    
    65   32   37 1    
    66   32   33 ar   
    67   33   34 1    
    68   34   35 2    
    69   34   36 am   BACKBONE|DICT|INTERRES
    70   36   37 am   BACKBONE|DICT|INTERRES
    71   36   67 1    
    72   37   38 2    
@<TRIPOS>SUBSTRUCTURE
     1 UNK         1 GROUP             0       ****    0 ROOT    
