@<TRIPOS>MOLECULE
CHEMBL386398_24
36   40    1
SMALL
USER_CHARGES


@<TRIPOS>ATOM
      1 C1          0.0412   53.9732   30.0069 C.ar      1 UNK         0.0000 
      2 C2          0.4846   53.1768   31.0547 C.ar      1 UNK         0.0000 
      3 C3          1.6867   52.4938   30.9276 C.ar      1 UNK         0.0000 
      4 C4          2.4318   52.5782   29.7507 C.ar      1 UNK         0.0000 
      5 C5          2.0001   53.3966   28.6827 C.ar      1 UNK         0.0000 
      6 C6          0.7963   54.0954   28.8455 C.ar      1 UNK         0.0000 
      7 C7          2.7643   53.5730   27.4062 C.ar      1 UNK         0.0000 
      8 C8          2.1392   53.2977   26.1759 C.ar      1 UNK         0.0000 
      9 C9          2.8654   53.5325   24.9951 C.ar      1 UNK         0.0000 
     10 C10         4.1978   54.0060   24.9899 C.ar      1 UNK         0.0000 
     11 C11         4.5899   54.0966   23.6485 C.ar      1 UNK         0.0000 
     12 C12         5.7598   54.4973   22.9788 C.ar      1 UNK         0.0000 
     13 C13         5.7482   54.5525   21.5839 C.ar      1 UNK         0.0000 
     14 C14         4.6528   54.0961   20.8507 C.ar      1 UNK         0.0000 
     15 C15         3.5030   53.6280   21.4867 C.ar      1 UNK         0.0000 
     16 C16         3.4822   53.6742   22.8850 C.ar      1 UNK         0.0000 
     17 O17         2.4360   53.3267   23.7069 O.3       1 UNK         0.0000 
     18 O18         6.8188   55.0945   20.9250 O.3       1 UNK         0.0000 
     19 C19         4.8029   54.2505   26.2270 C.ar      1 UNK         0.0000 
     20 C20         4.0891   54.0508   27.3855 C.ar      1 UNK         0.0000 
     21 C21         4.9723   54.4969   28.4942 C.2       1 UNK         0.0000 
     22 O22         4.7036   54.6109   29.6821 O.2       1 UNK         0.0000 
     23 N23         6.1443   54.8184   27.9277 N.am      1 UNK         0.0000 
     24 C24         6.1573   54.7369   26.5897 C.2       1 UNK         0.0000 
     25 O25         7.0984   55.0373   25.8634 O.2       1 UNK         0.0000 
     26 Cl26        3.8843   51.6472   29.6817 Cl        1 UNK         0.0000 
     27 H27        -0.8953   54.4965   30.0823 H         1 UNK         0.0000 
     28 H28        -0.0953   53.0757   31.9614 H         1 UNK         0.0000 
     29 H29         2.0267   51.8832   31.7523 H         1 UNK         0.0000 
     30 H30         0.4325   54.7467   28.0691 H         1 UNK         0.0000 
     31 H31         1.1259   52.9230   26.1385 H         1 UNK         0.0000 
     32 H32         6.6238   54.8404   23.5194 H         1 UNK         0.0000 
     33 H33         4.6864   54.1260   19.7698 H         1 UNK         0.0000 
     34 H34         2.6480   53.2917   20.9167 H         1 UNK         0.0000 
     35 H35         7.5596   55.2972   21.4998 H         1 UNK         0.0000 
     36 H36         6.9195   55.1830   28.4719 H         1 UNK         0.0000 
@<TRIPOS>BOND
     1    1    6 ar   
     2    1    2 ar   
     3    1   27 1    
     4    2    3 ar   
     5    2   28 1    
     6    3    4 ar   
     7    3   29 1    
     8    4    5 ar   
     9    4   26 1    
    10    5    6 ar   
    11    5    7 1    
    12    6   30 1    
    13    7   20 ar   
    14    7    8 ar   
    15    8    9 ar   
    16    8   31 1    
    17    9   17 1    
    18    9   10 ar   
    19   10   11 1    
    20   10   19 ar   
    21   11   16 ar   
    22   11   12 ar   
    23   12   13 ar   
    24   12   32 1    
    25   13   14 ar   
    26   13   18 1    
    27   14   15 ar   
    28   14   33 1    
    29   15   16 ar   
    30   15   34 1    
    31   16   17 1    
    32   18   35 1    
    33   19   24 1    
    34   19   20 ar   
    35   20   21 1    
    36   21   22 2    
    37   21   23 am   BACKBONE|DICT|INTERRES
    38   23   24 am   BACKBONE|DICT|INTERRES
    39   23   36 1    
    40   24   25 2    
@<TRIPOS>SUBSTRUCTURE
     1 UNK         1 GROUP             0       ****    0 ROOT    
