@<TRIPOS>MOLECULE
CHEMBL461134_131
58   63    1
SMALL
USER_CHARGES


@<TRIPOS>ATOM
      1 C1          0.5965   48.1972   18.8978 C.ar      1 UNK         0.0000 
      2 C2         -0.0509   48.3854   20.1157 C.ar      1 UNK         0.0000 
      3 C3          0.5034   49.2371   21.0675 C.ar      1 UNK         0.0000 
      4 C4          1.7029   49.9100   20.7959 C.ar      1 UNK         0.0000 
      5 C5          2.3284   49.7296   19.5635 C.ar      1 UNK         0.0000 
      6 C6          1.7853   48.8671   18.6189 C.ar      1 UNK         0.0000 
      7 N7          2.3307   50.7663   21.7140 N.pl3     1 UNK         0.0000 
      8 C8          1.8300   50.9564   23.0684 C.3       1 UNK         0.0000 
      9 C9          0.8585   52.1406   23.2106 C.3       1 UNK         0.0000 
     10 C10         1.4333   53.5500   22.9133 C.3       1 UNK         0.0000 
     11 N11         2.7259   53.8155   23.5548 N.pl3     1 UNK         0.0000 
     12 C12         3.9184   54.0965   22.8965 C.ar      1 UNK         0.0000 
     13 C13         4.2134   54.1774   21.5266 C.ar      1 UNK         0.0000 
     14 C14         5.4930   54.5951   21.1640 C.ar      1 UNK         0.0000 
     15 C15         6.4704   54.8847   22.1087 C.ar      1 UNK         0.0000 
     16 C16         6.2096   54.7246   23.4692 C.ar      1 UNK         0.0000 
     17 C17         4.9116   54.3549   23.8856 C.ar      1 UNK         0.0000 
     18 C18         4.2982   54.1810   25.1505 C.ar      1 UNK         0.0000 
     19 C19         2.9286   53.8767   24.9256 C.ar      1 UNK         0.0000 
     20 C20         2.0255   53.6963   25.9858 C.ar      1 UNK         0.0000 
     21 C21         2.4946   53.7893   27.3002 C.ar      1 UNK         0.0000 
     22 C22         3.8523   54.0621   27.5192 C.ar      1 UNK         0.0000 
     23 C23         4.7348   54.2643   26.4860 C.ar      1 UNK         0.0000 
     24 C24         6.0590   54.5665   27.0834 C.2       1 UNK         0.0000 
     25 O25         7.1043   54.8527   26.5196 O.2       1 UNK         0.0000 
     26 N26         5.8854   54.4958   28.4125 N.am      1 UNK         0.0000 
     27 C27         4.6294   54.1979   28.7864 C.2       1 UNK         0.0000 
     28 O28         4.2382   54.0895   29.9462 O.2       1 UNK         0.0000 
     29 C29         1.5385   53.5782   28.4306 C.ar      1 UNK         0.0000 
     30 C30         0.9002   52.3326   28.6106 C.ar      1 UNK         0.0000 
     31 C31         0.0814   52.1095   29.7149 C.ar      1 UNK         0.0000 
     32 C32        -0.0956   53.1042   30.6685 C.ar      1 UNK         0.0000 
     33 C33         0.4788   54.3556   30.4798 C.ar      1 UNK         0.0000 
     34 C34         1.2629   54.6075   29.3550 C.ar      1 UNK         0.0000 
     35 Cl35        1.8615   56.2219   29.1409 Cl        1 UNK         0.0000 
     36 Cl36        1.1046   51.0214   27.5000 Cl        1 UNK         0.0000 
     37 O37         7.7079   55.2969   21.6817 O.3       1 UNK         0.0000 
     38 H38         0.1741   47.5295   18.1622 H         1 UNK         0.0000 
     39 H39        -0.9757   47.8675   20.3250 H         1 UNK         0.0000 
     40 H40        -0.0138   49.3670   22.0059 H         1 UNK         0.0000 
     41 H41         3.2514   50.2403   19.3280 H         1 UNK         0.0000 
     42 H42         2.2986   48.7190   17.6792 H         1 UNK         0.0000 
     43 H43         3.0034   51.4284   21.3542 H         1 UNK         0.0000 
     44 H44         1.3882   50.0434   23.4692 H         1 UNK         0.0000 
     45 H45         2.7003   51.1241   23.6940 H         1 UNK         0.0000 
     46 H46         0.0085   51.9738   22.5493 H         1 UNK         0.0000 
     47 H47         0.4304   52.1097   24.2111 H         1 UNK         0.0000 
     48 H48         1.5405   53.6820   21.8376 H         1 UNK         0.0000 
     49 H49         0.7409   54.3157   23.2674 H         1 UNK         0.0000 
     50 H50         3.4728   53.9799   20.7648 H         1 UNK         0.0000 
     51 H51         5.7313   54.7043   20.1150 H         1 UNK         0.0000 
     52 H52         6.9924   54.9375   24.1753 H         1 UNK         0.0000 
     53 H53         0.9854   53.4809   25.8063 H         1 UNK         0.0000 
     54 H54         6.6244   54.7101   29.0683 H         1 UNK         0.0000 
     55 H55        -0.4131   51.1561   29.8416 H         1 UNK         0.0000 
     56 H56        -0.6993   52.9044   31.5429 H         1 UNK         0.0000 
     57 H57         0.3038   55.1377   31.2037 H         1 UNK         0.0000 
     58 H58         8.3742   55.3143   22.3830 H         1 UNK         0.0000 
@<TRIPOS>BOND
     1    1    6 ar   
     2    1    2 ar   
     3    1   38 1    
     4    2    3 ar   
     5    2   39 1    
     6    3    4 ar   
     7    3   40 1    
     8    4    5 ar   
     9    4    7 1    
    10    5    6 ar   
    11    5   41 1    
    12    6   42 1    
    13    7    8 1    
    14    7   43 1    
    15    8    9 1    
    16    8   44 1    
    17    8   45 1    
    18    9   10 1    
    19    9   46 1    
    20    9   47 1    
    21   10   11 1    
    22   10   48 1    
    23   10   49 1    
    24   11   19 ar   
    25   11   12 ar   
    26   12   17 ar   
    27   12   13 ar   
    28   13   14 ar   
    29   13   50 1    
    30   14   15 ar   
    31   14   51 1    
    32   15   16 ar   
    33   15   37 1    
    34   16   17 ar   
    35   16   52 1    
    36   17   18 ar   
    37   18   23 ar   
    38   18   19 ar   
    39   19   20 ar   
    40   20   21 ar   
    41   20   53 1    
    42   21   22 ar   
    43   21   29 1    
    44   22   27 1    
    45   22   23 ar   
    46   23   24 1    
    47   24   25 2    
    48   24   26 am   BACKBONE|DICT|INTERRES
    49   26   27 am   BACKBONE|DICT|INTERRES
    50   26   54 1    
    51   27   28 2    
    52   29   34 ar   
    53   29   30 ar   
    54   30   31 ar   
    55   30   36 1    
    56   31   32 ar   
    57   31   55 1    
    58   32   33 ar   
    59   32   56 1    
    60   33   34 ar   
    61   33   57 1    
    62   34   35 1    
    63   37   58 1    
@<TRIPOS>SUBSTRUCTURE
     1 UNK         1 GROUP             0       ****    0 ROOT    
