@<TRIPOS>MOLECULE
CHEMBL270866_28
63   68    1
SMALL
USER_CHARGES


@<TRIPOS>ATOM
      1 C1          1.2826   53.8689   23.1622 C.3       1 UNK         0.0000 
      2 N2          2.6113   54.0617   23.7221 N.pl3     1 UNK         0.0000 
      3 C3          2.8847   53.9738   25.0657 C.ar      1 UNK         0.0000 
      4 C4          2.0226   53.6815   26.1218 C.ar      1 UNK         0.0000 
      5 C5          2.5242   53.7510   27.4192 C.ar      1 UNK         0.0000 
      6 C6          3.8727   54.0555   27.6263 C.ar      1 UNK         0.0000 
      7 C7          4.7323   54.2997   26.5855 C.ar      1 UNK         0.0000 
      8 C8          4.2576   54.2674   25.2638 C.ar      1 UNK         0.0000 
      9 C9          4.8281   54.4705   23.9927 C.ar      1 UNK         0.0000 
     10 C10         3.7800   54.3485   23.0393 C.ar      1 UNK         0.0000 
     11 C11         4.0092   54.5243   21.6761 C.ar      1 UNK         0.0000 
     12 C12         5.3169   54.8015   21.2592 C.ar      1 UNK         0.0000 
     13 C13         6.3476   54.9546   22.1844 C.ar      1 UNK         0.0000 
     14 C14         6.1260   54.7726   23.5450 C.ar      1 UNK         0.0000 
     15 O15         7.5044   55.2967   21.8056 O.co2     1 UNK         0.0000 
     16 S16         5.7219   54.8926   19.4611 S.3       1 UNK         0.0000 
     17 O17         5.1044   56.1924   18.9447 O.2       1 UNK         0.0000 
     18 C18         4.6523   53.5227   18.8085 C.3       1 UNK         0.0000 
     19 C19         4.5908   52.2661   19.7029 C.3       1 UNK         0.0000 
     20 C20         3.3298   51.4639   19.3627 C.3       1 UNK         0.0000 
     21 N21         3.0456   50.4763   20.5037 N.4       1 UNK         0.0000 
     22 C22         1.9781   49.4376   20.1523 C.3       1 UNK         0.0000 
     23 C23         1.6025   48.8943   21.5221 C.3       1 UNK         0.0000 
     24 C24         1.7554   50.0298   22.5260 C.3       1 UNK         0.0000 
     25 C25         2.5079   51.1315   21.7891 C.3       1 UNK         0.0000 
     26 C26         6.0659   54.5920   27.1623 C.2       1 UNK         0.0000 
     27 O27         7.1044   54.8958   26.5902 O.2       1 UNK         0.0000 
     28 N28         5.9044   54.4966   28.4907 N.am      1 UNK         0.0000 
     29 C29         4.6572   54.1876   28.8818 C.2       1 UNK         0.0000 
     30 O30         4.2724   54.0728   30.0435 O.2       1 UNK         0.0000 
     31 C31         1.5843   53.4644   28.5195 C.ar      1 UNK         0.0000 
     32 C32         1.0096   52.1895   28.5663 C.ar      1 UNK         0.0000 
     33 C33         0.0877   51.8702   29.5501 C.ar      1 UNK         0.0000 
     34 C34        -0.2284   52.8067   30.5211 C.ar      1 UNK         0.0000 
     35 C35         0.3188   54.0856   30.4867 C.ar      1 UNK         0.0000 
     36 C36         1.2090   54.4301   29.4726 C.ar      1 UNK         0.0000 
     37 Cl37        1.7810   56.0654   29.4033 Cl        1 UNK         0.0000 
     38 H38         0.9678   52.8398   23.3282 H         1 UNK         0.0000 
     39 H39         0.5768   54.5130   23.6816 H         1 UNK         0.0000 
     40 H40         1.2706   54.0966   22.0989 H         1 UNK         0.0000 
     41 H41         0.9865   53.4355   25.9453 H         1 UNK         0.0000 
     42 H42         3.2134   54.4278   20.9556 H         1 UNK         0.0000 
     43 H43         6.9516   54.8931   24.2252 H         1 UNK         0.0000 
     44 H44         5.0148   53.2463   17.8178 H         1 UNK         0.0000 
     45 H45         3.6643   53.9618   18.6635 H         1 UNK         0.0000 
     46 H46         4.5701   52.4554   20.7577 H         1 UNK         0.0000 
     47 H47         5.5168   51.6967   19.6817 H         1 UNK         0.0000 
     48 H48         3.4299   50.8955   18.4401 H         1 UNK         0.0000 
     49 H49         2.4372   52.0858   19.2768 H         1 UNK         0.0000 
     50 H50         2.4145   48.7172   19.4565 H         1 UNK         0.0000 
     51 H51         1.1644   49.9695   19.6546 H         1 UNK         0.0000 
     52 H52         2.3044   48.0969   21.7730 H         1 UNK         0.0000 
     53 H53         0.5877   48.4967   21.5253 H         1 UNK         0.0000 
     54 H54         0.7834   50.3917   22.8640 H         1 UNK         0.0000 
     55 H55         2.3031   49.7013   23.4121 H         1 UNK         0.0000 
     56 H56         1.8322   51.9110   21.4401 H         1 UNK         0.0000 
     57 H57         3.3272   51.5854   22.3433 H         1 UNK         0.0000 
     58 H58         6.6478   54.7142   29.1405 H         1 UNK         0.0000 
     59 H59         1.2665   51.4439   27.8272 H         1 UNK         0.0000 
     60 H60        -0.3784   50.8967   29.5703 H         1 UNK         0.0000 
     61 H61        -0.9323   52.5308   31.2817 H         1 UNK         0.0000 
     62 H62         0.0354   54.8127   31.2337 H         1 UNK         0.0000 
     63 H63         3.9038   49.9849   20.7080 H         1 UNK         0.0000 
@<TRIPOS>BOND
     1    1    2 1    
     2    1   38 1    
     3    1   39 1    
     4    1   40 1    
     5    2   10 ar   
     6    2    3 ar   
     7    3    8 ar   
     8    3    4 ar   
     9    4    5 ar   
    10    4   41 1    
    11    5    6 ar   
    12    5   31 1    
    13    6   29 1    
    14    6    7 ar   
    15    7    8 ar   
    16    7   26 1    
    17    8    9 ar   
    18    9   14 ar   
    19    9   10 ar   
    20   10   11 ar   
    21   11   12 ar   
    22   11   42 1    
    23   12   13 ar   
    24   12   16 1    
    25   13   14 ar   
    26   13   15 1    
    27   14   43 1    
    28   16   17 2    
    29   16   18 1    
    30   18   19 1    
    31   18   44 1    
    32   18   45 1    
    33   19   20 1    
    34   19   46 1    
    35   19   47 1    
    36   20   21 1    
    37   20   48 1    
    38   20   49 1    
    39   21   25 1    
    40   21   22 1    
    41   21   63 1    
    42   22   23 1    
    43   22   50 1    
    44   22   51 1    
    45   23   24 1    
    46   23   52 1    
    47   23   53 1    
    48   24   25 1    
    49   24   54 1    
    50   24   55 1    
    51   25   56 1    
    52   25   57 1    
    53   26   27 2    
    54   26   28 am   BACKBONE|DICT|INTERRES
    55   28   29 am   BACKBONE|DICT|INTERRES
    56   28   58 1    
    57   29   30 2    
    58   31   36 ar   
    59   31   32 ar   
    60   32   33 ar   
    61   32   59 1    
    62   33   34 ar   
    63   33   60 1    
    64   34   35 ar   
    65   34   61 1    
    66   35   36 ar   
    67   35   62 1    
    68   36   37 1    
@<TRIPOS>SUBSTRUCTURE
     1 UNK         1 GROUP             0       ****    0 ROOT    
