CHEMBL529897_67
                    3D
 Schrodinger Suite 2024-2.
 51 56  0  0  1  0            999 V2000
    0.1259   51.8760   29.5063 C   0  0  0  0  0  0
   -0.1565   52.8347   30.4716 C   0  0  0  0  0  0
    0.3750   54.1159   30.3598 C   0  0  0  0  0  0
    1.2181   54.4356   29.2950 C   0  0  0  0  0  0
    1.5776   53.4446   28.3597 C   0  0  0  0  0  0
    1.0035   52.1723   28.4693 C   0  0  0  0  0  0
    2.5384   53.6964   27.2553 C   0  0  0  0  0  0
    2.0795   53.6097   25.9378 C   0  0  0  0  0  0
    2.9757   53.8943   24.8962 C   0  0  0  0  0  0
    4.3435   54.1932   25.1318 C   0  0  0  0  0  0
    4.9641   54.3991   23.8736 C   0  0  0  0  0  0
    6.2813   54.7076   23.4615 C   0  0  0  0  0  0
    6.5397   54.9302   22.1078 C   0  0  0  0  0  0
    5.5280   54.8026   21.1655 C   0  0  0  0  0  0
    4.2243   54.4712   21.5239 C   0  0  0  0  0  0
    3.9462   54.2795   22.8851 C   0  0  0  0  0  0
    2.7497   53.9979   23.5381 N   0  0  0  0  0  0
    1.4242   53.8916   22.9290 C   0  0  0  0  0  0
    0.9742   52.4617   22.5409 C   0  0  0  0  0  0
    1.7662   51.8791   21.4649 N   0  0  0  0  0  0
    3.0779   51.4625   21.5747 C   0  0  0  0  0  0
    3.5016   50.9468   20.3777 C   0  0  0  0  0  0
    2.4421   51.0528   19.4961 N   0  3  0  0  0  0
    1.3750   51.6246   20.1613 C   0  0  0  0  0  0
    7.7934   55.2970   21.6819 O   0  0  0  0  0  0
    4.7672   54.2417   26.4716 C   0  0  0  0  0  0
    3.8822   54.0059   27.4935 C   0  0  0  0  0  0
    4.6385   54.1560   28.7707 C   0  0  0  0  0  0
    4.2335   54.0315   29.9243 O   0  0  0  0  0  0
    5.8897   54.4891   28.4085 N   0  0  0  0  0  0
    6.0716   54.5729   27.0818 C   0  0  0  0  0  0
    7.1044   54.8965   26.5199 O   0  0  0  0  0  0
    1.7691   56.0732   29.1534 Cl  0  0  0  0  0  0
   -0.3252   50.8967   29.5733 H   0  0  0  0  0  0
   -0.8267   52.5881   31.2816 H   0  0  0  0  0  0
    0.1173   54.8680   31.0914 H   0  0  0  0  0  0
    1.2411   51.4015   27.7494 H   0  0  0  0  0  0
    1.0449   53.3721   25.7410 H   0  0  0  0  0  0
    7.0864   54.8109   24.1676 H   0  0  0  0  0  0
    5.7561   54.9729   20.1230 H   0  0  0  0  0  0
    3.4641   54.3856   20.7631 H   0  0  0  0  0  0
    1.4109   54.5545   22.0818 H   0  0  0  0  0  0
    0.7028   54.3267   23.6216 H   0  0  0  0  0  0
   -0.0696   52.4752   22.2247 H   0  0  0  0  0  0
    1.0166   51.7908   23.4012 H   0  0  0  0  0  0
    3.6131   51.6121   22.4817 H   0  0  0  0  0  0
    4.4591   50.5519   20.0816 H   0  0  0  0  0  0
    0.4072   51.8440   19.7336 H   0  0  0  0  0  0
    8.4580   55.3007   22.3855 H   0  0  0  0  0  0
    6.6160   54.7223   29.0722 H   0  0  0  0  0  0
    2.4705   50.7716   18.5208 H   0  0  0  0  0  0
  1  6  2  0  0  0
  1  2  1  0  0  0
  1 34  1  0  0  0
  2  3  2  0  0  0
  2 35  1  0  0  0
  3  4  1  0  0  0
  3 36  1  0  0  0
  4  5  2  0  0  0
  4 33  1  0  0  0
  5  6  1  0  0  0
  5  7  1  0  0  0
  6 37  1  0  0  0
  7 27  2  0  0  0
  7  8  1  0  0  0
  8  9  2  0  0  0
  8 38  1  0  0  0
  9 17  1  0  0  0
  9 10  1  0  0  0
 10 11  1  0  0  0
 10 26  2  0  0  0
 11 16  2  0  0  0
 11 12  1  0  0  0
 12 13  2  0  0  0
 12 39  1  0  0  0
 13 14  1  0  0  0
 13 25  1  0  0  0
 14 15  2  0  0  0
 14 40  1  0  0  0
 15 16  1  0  0  0
 15 41  1  0  0  0
 16 17  1  0  0  0
 17 18  1  0  0  0
 18 19  1  0  0  0
 18 42  1  0  0  0
 18 43  1  0  0  0
 19 20  1  0  0  0
 19 44  1  0  0  0
 19 45  1  0  0  0
 20 24  1  0  0  0
 20 21  1  0  0  0
 21 22  2  0  0  0
 21 46  1  0  0  0
 22 23  1  0  0  0
 22 47  1  0  0  0
 23 24  2  0  0  0
 23 51  1  0  0  0
 24 48  1  0  0  0
 25 49  1  0  0  0
 26 31  1  0  0  0
 26 27  1  0  0  0
 27 28  1  0  0  0
 28 29  2  0  0  0
 28 30  1  0  0  0
 30 31  1  0  0  0
 30 50  1  0  0  0
 31 32  2  0  0  0
M  CHG  1  23   1
M  END
> <i_i_glide_confnum>
35

> <i_i_glide_lignum>
68

> <i_i_glide_posenum>
345

> <i_i_glide_rotatable_bonds>
5

> <i_m_Source_File_Index>
94

> <b_m_subgroup_collapsed>
0

> <r_i_docking_score>
-11.1039

> <r_i_glide_ecoul>
-10.974

> <r_i_glide_eff_state_penalty>
0

> <r_i_glide_einternal>
2.73777

> <r_i_glide_emodel>
-109.356

> <r_i_glide_energy>
-60.0441

> <r_i_glide_erotb>
0.383636

> <r_i_glide_esite>
-0.0665375

> <r_i_glide_evdw>
-49.07

> <r_i_glide_gscore>
-11.1039

> <r_i_glide_hbond>
-0.91622

> <r_i_glide_ligand_efficiency>
-0.336482

> <r_i_glide_ligand_efficiency_ln>
-2.46945

> <r_i_glide_ligand_efficiency_sa>
-1.07928

> <r_i_glide_lipo>
-3.8857

> <r_i_glide_metal>
0

> <r_i_glide_rewards>
-2.51946

> <s_i_glide_gridfile>
wee1_glide-grid

> <s_m_Source_File>
wee1_actives_glide_SP.sdf

> <s_m_Source_Path>
/Users/zhangxujun/Desktop

> <s_m_entry_id>
232

> <s_m_entry_name>
wee1_actives_glide_SP.94

> <s_m_subgroup_title>
wee1_actives_glide_SP

> <s_m_subgroupid>
wee1_actives_glide_SP


$$$$
