CHEMBL459889_98
                    3D
 Schrodinger Suite 2024-2.
 45 49  0  0  1  0            999 V2000
    0.6081   54.2681   30.3962 C   0  0  0  0  0  0
   -0.0955   53.0776   30.5360 C   0  0  0  0  0  0
   -0.0598   52.1224   29.5264 C   0  0  0  0  0  0
    0.7328   52.3218   28.3965 C   0  0  0  0  0  0
    1.5202   53.4872   28.2747 C   0  0  0  0  0  0
    1.3913   54.4751   29.2640 C   0  0  0  0  0  0
    2.4999   53.6956   27.1623 C   0  0  0  0  0  0
    2.0647   53.6044   25.8328 C   0  0  0  0  0  0
    2.9905   53.8157   24.7972 C   0  0  0  0  0  0
    4.3490   54.1398   25.0549 C   0  0  0  0  0  0
    4.9894   54.3304   23.8057 C   0  0  0  0  0  0
    6.2961   54.7046   23.4219 C   0  0  0  0  0  0
    6.5796   54.8968   22.0717 C   0  0  0  0  0  0
    5.6125   54.6547   21.1023 C   0  0  0  0  0  0
    4.3266   54.2283   21.4306 C   0  0  0  0  0  0
    4.0155   54.0967   22.7928 C   0  0  0  0  0  0
    2.8170   53.7822   23.4219 N   0  0  0  0  0  0
    1.5394   53.5403   22.7517 C   0  0  0  0  0  0
    0.9841   52.1083   22.9914 C   0  0  0  0  0  0
   -0.5357   52.1202   23.2081 C   0  0  0  0  0  0
   -0.9875   52.8949   24.0798 O   0  0  0  0  0  0
   -1.2265   51.3768   22.4793 O   0  5  0  0  0  0
    7.8280   55.3125   21.6816 O   0  0  0  0  0  0
    4.7524   54.2254   26.4000 C   0  0  0  0  0  0
    3.8504   53.9990   27.4129 C   0  0  0  0  0  0
    4.6053   54.1471   28.6967 C   0  0  0  0  0  0
    4.2079   54.0203   29.8524 O   0  0  0  0  0  0
    5.8575   54.4819   28.3469 N   0  0  0  0  0  0
    6.0552   54.5648   27.0237 C   0  0  0  0  0  0
    7.1041   54.8875   26.4840 O   0  0  0  0  0  0
    0.7054   51.0830   27.1912 Cl  0  0  0  0  0  0
    0.5582   55.0225   31.1679 H   0  0  0  0  0  0
   -0.6950   52.8984   31.4149 H   0  0  0  0  0  0
   -0.6426   51.2168   29.6271 H   0  0  0  0  0  0
    1.9501   55.3964   29.1825 H   0  0  0  0  0  0
    1.0313   53.3778   25.6143 H   0  0  0  0  0  0
    7.0699   54.8915   24.1445 H   0  0  0  0  0  0
    5.8660   54.7953   20.0614 H   0  0  0  0  0  0
    3.5981   54.0570   20.6509 H   0  0  0  0  0  0
    0.8672   54.3279   23.0949 H   0  0  0  0  0  0
    1.6589   53.6962   21.6818 H   0  0  0  0  0  0
    1.2138   51.4828   22.1276 H   0  0  0  0  0  0
    1.4537   51.6105   23.8402 H   0  0  0  0  0  0
    8.4695   55.3228   22.4053 H   0  0  0  0  0  0
    6.5787   54.7070   29.0181 H   0  0  0  0  0  0
  1  6  2  0  0  0
  1  2  1  0  0  0
  1 32  1  0  0  0
  2  3  2  0  0  0
  2 33  1  0  0  0
  3  4  1  0  0  0
  3 34  1  0  0  0
  4  5  2  0  0  0
  4 31  1  0  0  0
  5  6  1  0  0  0
  5  7  1  0  0  0
  6 35  1  0  0  0
  7 25  2  0  0  0
  7  8  1  0  0  0
  8  9  2  0  0  0
  8 36  1  0  0  0
  9 17  1  0  0  0
  9 10  1  0  0  0
 10 11  1  0  0  0
 10 24  2  0  0  0
 11 16  2  0  0  0
 11 12  1  0  0  0
 12 13  2  0  0  0
 12 37  1  0  0  0
 13 14  1  0  0  0
 13 23  1  0  0  0
 14 15  2  0  0  0
 14 38  1  0  0  0
 15 16  1  0  0  0
 15 39  1  0  0  0
 16 17  1  0  0  0
 17 18  1  0  0  0
 18 19  1  0  0  0
 18 40  1  0  0  0
 18 41  1  0  0  0
 19 20  1  0  0  0
 19 42  1  0  0  0
 19 43  1  0  0  0
 20 21  2  0  0  0
 20 22  1  0  0  0
 23 44  1  0  0  0
 24 29  1  0  0  0
 24 25  1  0  0  0
 25 26  1  0  0  0
 26 27  2  0  0  0
 26 28  1  0  0  0
 28 29  1  0  0  0
 28 45  1  0  0  0
 29 30  2  0  0  0
M  CHG  1  22  -1
M  END
> <i_i_glide_confnum>
11

> <i_i_glide_lignum>
99

> <i_i_glide_posenum>
15

> <i_i_glide_rotatable_bonds>
5

> <i_m_Source_File_Index>
70

> <b_m_subgroup_collapsed>
0

> <r_i_docking_score>
-11.3395

> <r_i_glide_ecoul>
-14.3592

> <r_i_glide_eff_state_penalty>
0

> <r_i_glide_einternal>
7.02661

> <r_i_glide_emodel>
-105.777

> <r_i_glide_energy>
-63.1017

> <r_i_glide_erotb>
0.222167

> <r_i_glide_esite>
0

> <r_i_glide_evdw>
-48.7426

> <r_i_glide_gscore>
-11.3395

> <r_i_glide_hbond>
-0.890007

> <r_i_glide_ligand_efficiency>
-0.365789

> <r_i_glide_ligand_efficiency_ln>
-2.5574

> <r_i_glide_ligand_efficiency_sa>
-1.14908

> <r_i_glide_lipo>
-3.5864

> <r_i_glide_metal>
0

> <r_i_glide_rewards>
-2.49421

> <s_i_glide_gridfile>
wee1_glide-grid

> <s_m_Source_File>
wee1_actives_glide_SP.sdf

> <s_m_Source_Path>
/Users/zhangxujun/Desktop

> <s_m_entry_id>
208

> <s_m_entry_name>
wee1_actives_glide_SP.70

> <s_m_subgroup_title>
wee1_actives_glide_SP

> <s_m_subgroupid>
wee1_actives_glide_SP


$$$$
