@<TRIPOS>MOLECULE
CHEMBL483611_56
61   66    1
SMALL
USER_CHARGES


@<TRIPOS>ATOM
      1 C1         -0.0246   53.2532   30.7490 C.ar      1 UNK         0.0000 
      2 C2          0.4978   54.5105   30.4739 C.ar      1 UNK         0.0000 
      3 C3          1.2711   54.7189   29.3330 C.ar      1 UNK         0.0000 
      4 C4          1.5952   53.6380   28.4888 C.ar      1 UNK         0.0000 
      5 C5          1.0731   52.3683   28.7886 C.ar      1 UNK         0.0000 
      6 C6          0.2312   52.1963   29.8843 C.ar      1 UNK         0.0000 
      7 Cl7         1.4915   50.9732   27.8521 Cl        1 UNK         0.0000 
      8 C8          2.5193   53.8129   27.3361 C.ar      1 UNK         0.0000 
      9 C9          2.0319   53.6966   26.0295 C.ar      1 UNK         0.0000 
     10 C10         2.9273   53.8419   24.9575 C.ar      1 UNK         0.0000 
     11 C11         4.2979   54.1629   25.1691 C.ar      1 UNK         0.0000 
     12 C12         4.8988   54.3302   23.9009 C.ar      1 UNK         0.0000 
     13 C13         6.1859   54.7227   23.4759 C.ar      1 UNK         0.0000 
     14 C14         6.4375   54.8705   22.1133 C.ar      1 UNK         0.0000 
     15 C15         5.4630   54.5485   21.1762 C.ar      1 UNK         0.0000 
     16 C16         4.1936   54.1073   21.5500 C.ar      1 UNK         0.0000 
     17 C17         3.9057   54.0388   22.9220 C.ar      1 UNK         0.0000 
     18 N18         2.7206   53.7397   23.5887 N.pl3     1 UNK         0.0000 
     19 C19         1.4377   53.4273   22.9445 C.3       1 UNK         0.0000 
     20 C20         1.0184   51.9317   23.0191 C.3       1 UNK         0.0000 
     21 C21         0.0597   51.5041   24.1700 C.3       1 UNK         0.0000 
     22 C22        -1.2899   52.2667   24.2577 C.2       1 UNK         0.0000 
     23 O23        -1.6687   52.8953   23.2658 O.2       1 UNK         0.0000 
     24 N24        -2.0516   52.1946   25.3860 N.am      1 UNK         0.0000 
     25 C25        -3.3091   52.9700   25.4673 C.3       1 UNK         0.0000 
     26 C26        -4.3865   52.0643   26.0871 C.3       1 UNK         0.0000 
     27 O27        -3.9568   51.6005   27.3570 O.3       1 UNK         0.0000 
     28 C28        -2.7758   50.8096   27.2865 C.3       1 UNK         0.0000 
     29 C29        -1.5862   51.5507   26.6336 C.3       1 UNK         0.0000 
     30 O30         7.6671   55.2995   21.6818 O.3       1 UNK         0.0000 
     31 C31         4.7467   54.2651   26.5001 C.ar      1 UNK         0.0000 
     32 C32         3.8751   54.0733   27.5402 C.ar      1 UNK         0.0000 
     33 C33         4.6528   54.2052   28.8041 C.2       1 UNK         0.0000 
     34 O34         4.2622   54.0969   29.9641 O.2       1 UNK         0.0000 
     35 N35         5.9042   54.4967   28.4194 N.am      1 UNK         0.0000 
     36 C36         6.0693   54.5817   27.0888 C.2       1 UNK         0.0000 
     37 O37         7.1044   54.8917   26.5173 O.2       1 UNK         0.0000 
     38 Cl38        1.8189   56.3314   29.0102 Cl        1 UNK         0.0000 
     39 H39        -0.6238   53.0919   31.6339 H         1 UNK         0.0000 
     40 H40         0.2959   55.3342   31.1415 H         1 UNK         0.0000 
     41 H41        -0.2116   51.2350   30.0818 H         1 UNK         0.0000 
     42 H42         0.9863   53.5064   25.8628 H         1 UNK         0.0000 
     43 H43         6.9664   54.9613   24.1758 H         1 UNK         0.0000 
     44 H44         5.6936   54.6439   20.1254 H         1 UNK         0.0000 
     45 H45         3.4555   53.8828   20.7939 H         1 UNK         0.0000 
     46 H46         1.5076   53.6975   21.8930 H         1 UNK         0.0000 
     47 H47         0.6870   54.0975   23.3587 H         1 UNK         0.0000 
     48 H48         1.9082   51.3007   23.0394 H         1 UNK         0.0000 
     49 H49         0.5351   51.6725   22.0751 H         1 UNK         0.0000 
     50 H50         0.6042   51.5565   25.1064 H         1 UNK         0.0000 
     51 H51        -0.1838   50.4496   24.0348 H         1 UNK         0.0000 
     52 H52        -3.6685   53.3473   24.5082 H         1 UNK         0.0000 
     53 H53        -3.1163   53.7900   26.1586 H         1 UNK         0.0000 
     54 H54        -5.3239   52.6092   26.1977 H         1 UNK         0.0000 
     55 H55        -4.5903   51.2211   25.4232 H         1 UNK         0.0000 
     56 H56        -2.5011   50.4971   28.2940 H         1 UNK         0.0000 
     57 H57        -2.9816   49.8985   26.7220 H         1 UNK         0.0000 
     58 H58        -1.2399   52.3488   27.2908 H         1 UNK         0.0000 
     59 H59        -0.8464   50.7743   26.4397 H         1 UNK         0.0000 
     60 H60         8.3352   55.3238   22.3794 H         1 UNK         0.0000 
     61 H61         6.6460   54.7128   29.0715 H         1 UNK         0.0000 
@<TRIPOS>BOND
     1    1    6 ar   
     2    1    2 ar   
     3    1   39 1    
     4    2    3 ar   
     5    2   40 1    
     6    3    4 ar   
     7    3   38 1    
     8    4    5 ar   
     9    4    8 1    
    10    5    6 ar   
    11    5    7 1    
    12    6   41 1    
    13    8   32 ar   
    14    8    9 ar   
    15    9   10 ar   
    16    9   42 1    
    17   10   18 ar   
    18   10   11 ar   
    19   11   12 ar   
    20   11   31 ar   
    21   12   17 ar   
    22   12   13 ar   
    23   13   14 ar   
    24   13   43 1    
    25   14   15 ar   
    26   14   30 1    
    27   15   16 ar   
    28   15   44 1    
    29   16   17 ar   
    30   16   45 1    
    31   17   18 ar   
    32   18   19 1    
    33   19   20 1    
    34   19   46 1    
    35   19   47 1    
    36   20   21 1    
    37   20   48 1    
    38   20   49 1    
    39   21   22 1    
    40   21   50 1    
    41   21   51 1    
    42   22   23 2    
    43   22   24 am   BACKBONE|DICT|INTERRES
    44   24   29 1    
    45   24   25 1    
    46   25   26 1    
    47   25   52 1    
    48   25   53 1    
    49   26   27 1    
    50   26   54 1    
    51   26   55 1    
    52   27   28 1    
    53   28   29 1    
    54   28   56 1    
    55   28   57 1    
    56   29   58 1    
    57   29   59 1    
    58   30   60 1    
    59   31   36 1    
    60   31   32 ar   
    61   32   33 1    
    62   33   34 2    
    63   33   35 am   BACKBONE|DICT|INTERRES
    64   35   36 am   BACKBONE|DICT|INTERRES
    65   35   61 1    
    66   36   37 2    
@<TRIPOS>SUBSTRUCTURE
     1 UNK         1 GROUP             0       ****    0 ROOT    
