@<TRIPOS>MOLECULE
CHEMBL453347_54
64   69    1
SMALL
USER_CHARGES


@<TRIPOS>ATOM
      1 C1         -2.3093   46.5141   23.8228 C.3       1 UNK         0.0000 
      2 N2         -1.5133   47.7134   23.5888 N.3       1 UNK         0.0000 
      3 C3         -0.3968   47.7771   24.5449 C.3       1 UNK         0.0000 
      4 C4          0.4875   49.0138   24.2930 C.3       1 UNK         0.0000 
      5 N5         -0.4108   50.2624   24.3880 N.4       1 UNK         0.0000 
      6 C6         -1.5788   50.1850   23.3788 C.3       1 UNK         0.0000 
      7 C7         -2.3797   48.8975   23.6608 C.3       1 UNK         0.0000 
      8 C8          0.3808   51.5866   24.3397 C.3       1 UNK         0.0000 
      9 C9          1.0515   51.9356   22.9897 C.3       1 UNK         0.0000 
     10 C10         1.4865   53.4250   22.8764 C.3       1 UNK         0.0000 
     11 N11         2.7584   53.7536   23.5392 N.pl3     1 UNK         0.0000 
     12 C12         3.9446   54.0715   22.8842 C.ar      1 UNK         0.0000 
     13 C13         4.2376   54.1609   21.5145 C.ar      1 UNK         0.0000 
     14 C14         5.5098   54.6016   21.1537 C.ar      1 UNK         0.0000 
     15 C15         6.4859   54.8957   22.1003 C.ar      1 UNK         0.0000 
     16 C16         6.2250   54.7348   23.4592 C.ar      1 UNK         0.0000 
     17 C17         4.9323   54.3478   23.8733 C.ar      1 UNK         0.0000 
     18 C18         4.3226   54.1692   25.1369 C.ar      1 UNK         0.0000 
     19 C19         2.9570   53.8515   24.9105 C.ar      1 UNK         0.0000 
     20 C20         2.0584   53.6966   25.9755 C.ar      1 UNK         0.0000 
     21 C21         2.5329   53.7602   27.2869 C.ar      1 UNK         0.0000 
     22 C22         3.8808   54.0510   27.5094 C.ar      1 UNK         0.0000 
     23 C23         4.7564   54.2637   26.4742 C.ar      1 UNK         0.0000 
     24 C24         6.0716   54.5847   27.0710 C.2       1 UNK         0.0000 
     25 O25         7.1044   54.8967   26.5012 O.2       1 UNK         0.0000 
     26 N26         5.9046   54.4967   28.3999 N.am      1 UNK         0.0000 
     27 C27         4.6523   54.1975   28.7780 C.2       1 UNK         0.0000 
     28 O28         4.2621   54.0963   29.9383 O.2       1 UNK         0.0000 
     29 C29         1.5812   53.4824   28.3906 C.ar      1 UNK         0.0000 
     30 C30         1.3459   54.4232   29.4002 C.ar      1 UNK         0.0000 
     31 C31         0.4918   54.1181   30.4548 C.ar      1 UNK         0.0000 
     32 C32        -0.1456   52.8819   30.4793 C.ar      1 UNK         0.0000 
     33 C33         0.0386   51.9580   29.4584 C.ar      1 UNK         0.0000 
     34 C34         0.9114   52.2544   28.4209 C.ar      1 UNK         0.0000 
     35 O35         7.7257   55.3090   21.6818 O.3       1 UNK         0.0000 
     36 H36        -1.6960   45.6252   23.6878 H         1 UNK         0.0000 
     37 H37        -3.1340   46.4496   23.1105 H         1 UNK         0.0000 
     38 H38        -2.7266   46.4965   24.8320 H         1 UNK         0.0000 
     39 H39        -0.8116   47.8331   25.5555 H         1 UNK         0.0000 
     40 H40         0.2349   46.8966   24.4827 H         1 UNK         0.0000 
     41 H41         0.9818   49.0099   23.3194 H         1 UNK         0.0000 
     42 H42         1.2238   49.0966   25.0943 H         1 UNK         0.0000 
     43 H43        -1.1748   50.2039   22.3657 H         1 UNK         0.0000 
     44 H44        -2.2029   51.0614   23.5623 H         1 UNK         0.0000 
     45 H45        -3.2022   48.8210   22.9471 H         1 UNK         0.0000 
     46 H46        -2.7954   48.9511   24.6705 H         1 UNK         0.0000 
     47 H47        -0.3670   52.3276   24.6273 H         1 UNK         0.0000 
     48 H48         1.1043   51.4685   25.1444 H         1 UNK         0.0000 
     49 H49         1.9087   51.2844   22.8119 H         1 UNK         0.0000 
     50 H50         0.3635   51.7401   22.1694 H         1 UNK         0.0000 
     51 H51         1.5605   53.6966   21.8241 H         1 UNK         0.0000 
     52 H52         0.7210   54.0876   23.2829 H         1 UNK         0.0000 
     53 H53         3.5044   53.9482   20.7502 H         1 UNK         0.0000 
     54 H54         5.7462   54.7112   20.1051 H         1 UNK         0.0000 
     55 H55         7.0059   54.9535   24.1649 H         1 UNK         0.0000 
     56 H56         1.0096   53.5412   25.8115 H         1 UNK         0.0000 
     57 H57         6.6423   54.7171   29.0553 H         1 UNK         0.0000 
     58 H58         1.8446   55.3820   29.3809 H         1 UNK         0.0000 
     59 H59         0.3222   54.8337   31.2463 H         1 UNK         0.0000 
     60 H60        -0.8221   52.6358   31.2816 H         1 UNK         0.0000 
     61 H61        -0.4804   51.0093   29.4844 H         1 UNK         0.0000 
     62 H62         1.0783   51.5175   27.6491 H         1 UNK         0.0000 
     63 H63         8.3878   55.3308   22.3863 H         1 UNK         0.0000 
     64 H64        -0.8300   50.2263   25.3096 H         1 UNK         0.0000 
@<TRIPOS>BOND
     1    1    2 1    
     2    1   36 1    
     3    1   37 1    
     4    1   38 1    
     5    2    7 1    
     6    2    3 1    
     7    3    4 1    
     8    3   39 1    
     9    3   40 1    
    10    4    5 1    
    11    4   41 1    
    12    4   42 1    
    13    5    6 1    
    14    5    8 1    
    15    5   64 1    
    16    6    7 1    
    17    6   43 1    
    18    6   44 1    
    19    7   45 1    
    20    7   46 1    
    21    8    9 1    
    22    8   47 1    
    23    8   48 1    
    24    9   10 1    
    25    9   49 1    
    26    9   50 1    
    27   10   11 1    
    28   10   51 1    
    29   10   52 1    
    30   11   19 ar   
    31   11   12 ar   
    32   12   17 ar   
    33   12   13 ar   
    34   13   14 ar   
    35   13   53 1    
    36   14   15 ar   
    37   14   54 1    
    38   15   16 ar   
    39   15   35 1    
    40   16   17 ar   
    41   16   55 1    
    42   17   18 ar   
    43   18   23 ar   
    44   18   19 ar   
    45   19   20 ar   
    46   20   21 ar   
    47   20   56 1    
    48   21   22 ar   
    49   21   29 1    
    50   22   27 1    
    51   22   23 ar   
    52   23   24 1    
    53   24   25 2    
    54   24   26 am   BACKBONE|DICT|INTERRES
    55   26   27 am   BACKBONE|DICT|INTERRES
    56   26   57 1    
    57   27   28 2    
    58   29   34 ar   
    59   29   30 ar   
    60   30   31 ar   
    61   30   58 1    
    62   31   32 ar   
    63   31   59 1    
    64   32   33 ar   
    65   32   60 1    
    66   33   34 ar   
    67   33   61 1    
    68   34   62 1    
    69   35   63 1    
@<TRIPOS>SUBSTRUCTURE
     1 UNK         1 GROUP             0       ****    0 ROOT    
