CHEMBL488571_104
                    3D
 Schrodinger Suite 2024-2.
 42 46  0  0  1  0            999 V2000
    5.3385   54.5233   21.3434 C   0  0  0  0  0  0
    4.0596   54.0922   21.6843 C   0  0  0  0  0  0
    3.7565   53.9886   23.0503 C   0  0  0  0  0  0
    4.7234   54.2664   24.0557 C   0  0  0  0  0  0
    6.0138   54.6691   23.6656 C   0  0  0  0  0  0
    6.2878   54.8271   22.3113 C   0  0  0  0  0  0
    7.5048   55.2965   21.9189 O   0  0  0  0  0  0
    4.1077   54.0586   25.3083 C   0  0  0  0  0  0
    2.7669   53.6355   25.0595 C   0  0  0  0  0  0
    2.5762   53.6372   23.6869 N   0  0  0  0  0  0
    1.3465   53.2520   23.0085 C   0  0  0  0  0  0
    1.3103   51.7229   22.7930 C   0  0  0  0  0  0
    0.3066   51.3258   21.6985 C   0  0  0  0  0  0
   -0.8726   51.6764   21.7875 O   0  0  0  0  0  0
    0.7569   50.5477   20.5864 N   0  0  0  0  0  0
    2.0338   50.1780   20.2211 C   0  0  0  0  0  0
    1.8988   49.4440   19.0517 C   0  0  0  0  0  0
    0.6354   49.3338   18.6845 N   0  0  0  0  0  0
   -0.0322   49.9961   19.5991 C   0  0  0  0  0  0
    1.8865   53.2969   26.1022 C   0  0  0  0  0  0
    2.3472   53.4399   27.4119 C   0  0  0  0  0  0
    3.6473   53.8682   27.6548 C   0  0  0  0  0  0
    4.5293   54.1608   26.6479 C   0  0  0  0  0  0
    5.8197   54.5458   27.2820 C   0  0  0  0  0  0
    6.8831   54.8749   26.7578 O   0  0  0  0  0  0
    5.5868   54.4966   28.6060 N   0  0  0  0  0  0
    4.3388   54.1146   28.9424 C   0  0  0  0  0  0
    3.8906   54.0140   30.0809 O   0  0  0  0  0  0
    5.5891   54.6402   20.2990 H   0  0  0  0  0  0
    3.3318   53.8709   20.9148 H   0  0  0  0  0  0
    6.7795   54.8924   24.3876 H   0  0  0  0  0  0
    8.1678   55.2998   22.6205 H   0  0  0  0  0  0
    1.3045   53.7993   22.0666 H   0  0  0  0  0  0
    0.4982   53.5941   23.6023 H   0  0  0  0  0  0
    0.9961   51.2304   23.7141 H   0  0  0  0  0  0
    2.3076   51.3381   22.5900 H   0  0  0  0  0  0
    2.9181   50.4643   20.7701 H   0  0  0  0  0  0
    2.7052   49.0159   18.4679 H   0  0  0  0  0  0
   -1.1037   50.1291   19.6252 H   0  0  0  0  0  0
    0.8772   52.9631   25.9146 H   0  0  0  0  0  0
    1.6826   53.2136   28.2341 H   0  0  0  0  0  0
    6.2881   54.7613   29.2831 H   0  0  0  0  0  0
  1  6  2  0  0  0
  1  2  1  0  0  0
  1 29  1  0  0  0
  2  3  2  0  0  0
  2 30  1  0  0  0
  3 10  1  0  0  0
  3  4  1  0  0  0
  4  5  2  0  0  0
  4  8  1  0  0  0
  5  6  1  0  0  0
  5 31  1  0  0  0
  6  7  1  0  0  0
  7 32  1  0  0  0
  8 23  2  0  0  0
  8  9  1  0  0  0
  9 10  1  0  0  0
  9 20  2  0  0  0
 10 11  1  0  0  0
 11 12  1  0  0  0
 11 33  1  0  0  0
 11 34  1  0  0  0
 12 13  1  0  0  0
 12 35  1  0  0  0
 12 36  1  0  0  0
 13 14  2  0  0  0
 13 15  1  0  0  0
 15 19  1  0  0  0
 15 16  1  0  0  0
 16 17  2  0  0  0
 16 37  1  0  0  0
 17 18  1  0  0  0
 17 38  1  0  0  0
 18 19  2  0  0  0
 19 39  1  0  0  0
 20 21  1  0  0  0
 20 40  1  0  0  0
 21 22  2  0  0  0
 21 41  1  0  0  0
 22 27  1  0  0  0
 22 23  1  0  0  0
 23 24  1  0  0  0
 24 25  2  0  0  0
 24 26  1  0  0  0
 26 27  1  0  0  0
 26 42  1  0  0  0
 27 28  2  0  0  0
M  END
> <i_i_glide_confnum>
4

> <i_i_glide_lignum>
105

> <i_i_glide_posenum>
358

> <i_i_glide_rotatable_bonds>
5

> <i_m_Source_File_Index>
26

> <b_m_subgroup_collapsed>
0

> <r_i_docking_score>
-10.0809

> <r_i_glide_ecoul>
-12.4801

> <r_i_glide_eff_state_penalty>
0

> <r_i_glide_einternal>
5.82474

> <r_i_glide_emodel>
-87.4637

> <r_i_glide_energy>
-54.934

> <r_i_glide_erotb>
0.413915

> <r_i_glide_esite>
-0.0060091

> <r_i_glide_evdw>
-42.454

> <r_i_glide_gscore>
-10.0809

> <r_i_glide_hbond>
-1.14252

> <r_i_glide_ligand_efficiency>
-0.360032

> <r_i_glide_ligand_efficiency_ln>
-2.32696

> <r_i_glide_ligand_efficiency_sa>
-1.09327

> <r_i_glide_lipo>
-2.68281

> <r_i_glide_metal>
0

> <r_i_glide_rewards>
-2.66875

> <s_i_glide_gridfile>
wee1_glide-grid

> <s_m_Source_File>
wee1_actives_glide_SP.sdf

> <s_m_Source_Path>
/Users/zhangxujun/Desktop

> <s_m_entry_id>
164

> <s_m_entry_name>
wee1_actives_glide_SP.26

> <s_m_subgroup_title>
wee1_actives_glide_SP

> <s_m_subgroupid>
wee1_actives_glide_SP


$$$$
