@<TRIPOS>MOLECULE
CHEMBL469612_6
64   69    1
SMALL
USER_CHARGES


@<TRIPOS>ATOM
      1 C1          0.0986   51.7052   29.2818 C.ar      1 UNK         0.0000 
      2 C2         -0.2135   52.6337   30.2703 C.ar      1 UNK         0.0000 
      3 C3          0.3251   53.9169   30.2135 C.ar      1 UNK         0.0000 
      4 C4          1.1950   54.2712   29.1807 C.ar      1 UNK         0.0000 
      5 C5          1.5699   53.3161   28.2128 C.ar      1 UNK         0.0000 
      6 C6          0.9948   52.0401   28.2722 C.ar      1 UNK         0.0000 
      7 C7          2.5478   53.6008   27.1246 C.ar      1 UNK         0.0000 
      8 C8          2.1201   53.4906   25.7958 C.ar      1 UNK         0.0000 
      9 C9          3.0375   53.7583   24.7653 C.ar      1 UNK         0.0000 
     10 C10         4.3891   54.1074   25.0305 C.ar      1 UNK         0.0000 
     11 C11         5.0313   54.3241   23.7824 C.ar      1 UNK         0.0000 
     12 C12         6.3306   54.7182   23.3969 C.ar      1 UNK         0.0000 
     13 C13         6.6300   54.8968   22.0439 C.ar      1 UNK         0.0000 
     14 C14         5.6647   54.6421   21.0609 C.ar      1 UNK         0.0000 
     15 C15         4.3714   54.2440   21.4082 C.ar      1 UNK         0.0000 
     16 C16         4.0650   54.0975   22.7687 C.ar      1 UNK         0.0000 
     17 N17         2.8649   53.7805   23.3917 N.pl3     1 UNK         0.0000 
     18 C18         1.5991   53.5731   22.6963 C.3       1 UNK         0.0000 
     19 C19         1.6058   52.2655   21.8846 C.3       1 UNK         0.0000 
     20 O20         0.5196   52.2793   20.9851 O.3       1 UNK         0.0000 
     21 C21         6.0071   54.7616   19.5745 C.3       1 UNK         0.0000 
     22 C22         5.5149   56.0738   18.9383 C.3       1 UNK         0.0000 
     23 C23         6.1136   56.3052   17.5354 C.3       1 UNK         0.0000 
     24 C24         5.4663   57.4634   16.7409 C.3       1 UNK         0.0000 
     25 N25         4.0410   57.2611   16.4789 N.pl3     1 UNK         0.0000 
     26 C26         3.1030   58.2597   16.3721 C.ar      1 UNK         0.0000 
     27 C27         1.8689   57.6987   16.0787 C.ar      1 UNK         0.0000 
     28 C28         2.0499   56.3200   15.9807 C.ar      1 UNK         0.0000 
     29 C29         3.3947   56.0728   16.2068 C.ar      1 UNK         0.0000 
     30 O30         7.8987   55.2976   21.6819 O.3       1 UNK         0.0000 
     31 C31         4.7804   54.1915   26.3801 C.ar      1 UNK         0.0000 
     32 C32         3.8804   53.9391   27.3860 C.ar      1 UNK         0.0000 
     33 C33         4.6144   54.0919   28.6771 C.2       1 UNK         0.0000 
     34 O34         4.2006   53.9391   29.8239 O.2       1 UNK         0.0000 
     35 N35         5.8601   54.4641   28.3408 N.am      1 UNK         0.0000 
     36 C36         6.0650   54.5549   27.0177 C.2       1 UNK         0.0000 
     37 O37         7.1044   54.8977   26.4796 O.2       1 UNK         0.0000 
     38 Cl38        1.7595   55.9097   29.1290 Cl        1 UNK         0.0000 
     39 H39        -0.3504   50.7250   29.3004 H         1 UNK         0.0000 
     40 H40        -0.8938   52.3639   31.0661 H         1 UNK         0.0000 
     41 H41         0.0550   54.6431   30.9680 H         1 UNK         0.0000 
     42 H42         1.2494   51.2920   27.5349 H         1 UNK         0.0000 
     43 H43         1.0962   53.2219   25.5851 H         1 UNK         0.0000 
     44 H44         7.0994   54.9052   24.1250 H         1 UNK         0.0000 
     45 H45         3.6304   54.0789   20.6395 H         1 UNK         0.0000 
     46 H46         0.7960   53.5506   23.4321 H         1 UNK         0.0000 
     47 H47         1.4626   54.4575   22.0818 H         1 UNK         0.0000 
     48 H48         2.5216   52.1591   21.3024 H         1 UNK         0.0000 
     49 H49         1.5894   51.3945   22.5418 H         1 UNK         0.0000 
     50 H50         0.7043   52.9430   20.3109 H         1 UNK         0.0000 
     51 H51         5.5729   53.9131   19.0429 H         1 UNK         0.0000 
     52 H52         7.0828   54.6604   19.4290 H         1 UNK         0.0000 
     53 H53         5.7744   56.9193   19.5769 H         1 UNK         0.0000 
     54 H54         4.4263   56.0532   18.8817 H         1 UNK         0.0000 
     55 H55         6.0584   55.3871   16.9492 H         1 UNK         0.0000 
     56 H56         7.1798   56.5094   17.6412 H         1 UNK         0.0000 
     57 H57         5.9634   57.6018   15.7803 H         1 UNK         0.0000 
     58 H58         5.5731   58.3959   17.2990 H         1 UNK         0.0000 
     59 H59         3.3905   59.2934   16.5176 H         1 UNK         0.0000 
     60 H60         0.9403   58.2366   15.9525 H         1 UNK         0.0000 
     61 H61         1.2874   55.5864   15.7604 H         1 UNK         0.0000 
     62 H62         3.9409   55.1411   16.2033 H         1 UNK         0.0000 
     63 H63         8.5261   55.2969   22.4195 H         1 UNK         0.0000 
     64 H64         6.5692   54.7020   29.0201 H         1 UNK         0.0000 
@<TRIPOS>BOND
     1    1    6 ar   
     2    1    2 ar   
     3    1   39 1    
     4    2    3 ar   
     5    2   40 1    
     6    3    4 ar   
     7    3   41 1    
     8    4    5 ar   
     9    4   38 1    
    10    5    6 ar   
    11    5    7 1    
    12    6   42 1    
    13    7   32 ar   
    14    7    8 ar   
    15    8    9 ar   
    16    8   43 1    
    17    9   17 ar   
    18    9   10 ar   
    19   10   11 ar   
    20   10   31 ar   
    21   11   16 ar   
    22   11   12 ar   
    23   12   13 ar   
    24   12   44 1    
    25   13   14 ar   
    26   13   30 1    
    27   14   15 ar   
    28   14   21 1    
    29   15   16 ar   
    30   15   45 1    
    31   16   17 ar   
    32   17   18 1    
    33   18   19 1    
    34   18   46 1    
    35   18   47 1    
    36   19   20 1    
    37   19   48 1    
    38   19   49 1    
    39   20   50 1    
    40   21   22 1    
    41   21   51 1    
    42   21   52 1    
    43   22   23 1    
    44   22   53 1    
    45   22   54 1    
    46   23   24 1    
    47   23   55 1    
    48   23   56 1    
    49   24   25 1    
    50   24   57 1    
    51   24   58 1    
    52   25   29 ar   
    53   25   26 ar   
    54   26   27 ar   
    55   26   59 1    
    56   27   28 ar   
    57   27   60 1    
    58   28   29 ar   
    59   28   61 1    
    60   29   62 1    
    61   30   63 1    
    62   31   36 1    
    63   31   32 ar   
    64   32   33 1    
    65   33   34 2    
    66   33   35 am   BACKBONE|DICT|INTERRES
    67   35   36 am   BACKBONE|DICT|INTERRES
    68   35   64 1    
    69   36   37 2    
@<TRIPOS>SUBSTRUCTURE
     1 UNK         1 GROUP             0       ****    0 ROOT    
