CHEMBL472208_5
                    3D
 Schrodinger Suite 2024-2.
 51 56  0  0  1  0            999 V2000
    0.5423   54.3841   30.4596 C   0  0  0  0  0  0
   -0.0952   53.1669   30.6775 C   0  0  0  0  0  0
    0.0589   52.1257   29.7667 C   0  0  0  0  0  0
    0.8976   52.2768   28.6626 C   0  0  0  0  0  0
    1.5682   53.4972   28.4371 C   0  0  0  0  0  0
    1.3484   54.5521   29.3355 C   0  0  0  0  0  0
    2.5187   53.6955   27.3002 C   0  0  0  0  0  0
    2.0496   53.5895   25.9843 C   0  0  0  0  0  0
    2.9491   53.7758   24.9184 C   0  0  0  0  0  0
    4.3107   54.1230   25.1454 C   0  0  0  0  0  0
    4.9204   54.3179   23.8826 C   0  0  0  0  0  0
    6.2050   54.7350   23.4695 C   0  0  0  0  0  0
    6.4673   54.8930   22.1090 C   0  0  0  0  0  0
    5.5034   54.5698   21.1614 C   0  0  0  0  0  0
    4.2376   54.1085   21.5214 C   0  0  0  0  0  0
    3.9421   54.0213   22.8915 C   0  0  0  0  0  0
    2.7581   53.6899   23.5422 N   0  0  0  0  0  0
    1.5034   53.3293   22.8688 C   0  0  0  0  0  0
    1.2262   51.8044   22.8432 C   0  0  0  0  0  0
    0.2938   51.2765   24.3608 S   0  0  1  0  0  0
   -0.9496   52.1666   24.4252 O   0  0  0  0  0  0
   -0.3230   49.6443   23.8103 C   0  0  0  0  0  0
   -0.8960   49.3147   22.6820 N   0  0  0  0  0  0
    0.0111   48.5630   25.6217 H   0  0  0  0  0  0
   -1.2333   48.0542   22.9106 C   0  0  0  0  0  0
   -0.9249   47.5399   24.0833 N   0  0  0  0  0  0
   -0.3347   48.5806   24.6699 N   0  0  0  0  0  0
    7.6960   55.3303   21.6817 O   0  0  0  0  0  0
    4.7456   54.2231   26.4812 C   0  0  0  0  0  0
    3.8684   54.0074   27.5152 C   0  0  0  0  0  0
    4.6376   54.1855   28.7822 C   0  0  0  0  0  0
    4.2464   54.0958   29.9431 O   0  0  0  0  0  0
    5.8895   54.4946   28.4046 N   0  0  0  0  0  0
    6.0635   54.5596   27.0749 C   0  0  0  0  0  0
    7.1043   54.8642   26.5098 O   0  0  0  0  0  0
    1.1102   50.9055   27.6331 Cl  0  0  0  0  0  0
    0.4174   55.1952   31.1636 H   0  0  0  0  0  0
   -0.7105   53.0221   31.5527 H   0  0  0  0  0  0
   -0.4615   51.1927   29.9335 H   0  0  0  0  0  0
    1.8414   55.5022   29.1840 H   0  0  0  0  0  0
    1.0052   53.3827   25.8157 H   0  0  0  0  0  0
    6.9777   54.9767   24.1770 H   0  0  0  0  0  0
    5.7413   54.6720   20.1129 H   0  0  0  0  0  0
    3.5093   53.8769   20.7569 H   0  0  0  0  0  0
    1.5469   53.6966   21.8437 H   0  0  0  0  0  0
    0.6899   53.8837   23.3386 H   0  0  0  0  0  0
    2.1380   51.2193   22.7182 H   0  0  0  0  0  0
    0.5933   51.5780   21.9855 H   0  0  0  0  0  0
   -1.7422   47.4698   22.1591 H   0  0  0  0  0  0
    8.3611   55.3627   22.3818 H   0  0  0  0  0  0
    6.6236   54.7268   29.0610 H   0  0  0  0  0  0
  1  6  2  0  0  0
  1  2  1  0  0  0
  1 37  1  0  0  0
  2  3  2  0  0  0
  2 38  1  0  0  0
  3  4  1  0  0  0
  3 39  1  0  0  0
  4  5  2  0  0  0
  4 36  1  0  0  0
  5  6  1  0  0  0
  5  7  1  0  0  0
  6 40  1  0  0  0
  7 30  2  0  0  0
  7  8  1  0  0  0
  8  9  2  0  0  0
  8 41  1  0  0  0
  9 17  1  0  0  0
  9 10  1  0  0  0
 10 11  1  0  0  0
 10 29  2  0  0  0
 11 16  2  0  0  0
 11 12  1  0  0  0
 12 13  2  0  0  0
 12 42  1  0  0  0
 13 14  1  0  0  0
 13 28  1  0  0  0
 14 15  2  0  0  0
 14 43  1  0  0  0
 15 16  1  0  0  0
 15 44  1  0  0  0
 16 17  1  0  0  0
 17 18  1  0  0  0
 18 19  1  0  0  0
 18 45  1  0  0  0
 18 46  1  0  0  0
 19 20  1  0  0  0
 19 47  1  0  0  0
 19 48  1  0  0  0
 20 21  2  0  0  0
 20 22  1  0  0  0
 22 23  2  0  0  0
 22 27  1  0  0  0
 23 25  1  0  0  0
 24 27  1  0  0  0
 25 49  1  0  0  0
 25 26  2  0  0  0
 26 27  1  0  0  0
 28 50  1  0  0  0
 29 34  1  0  0  0
 29 30  1  0  0  0
 30 31  1  0  0  0
 31 32  2  0  0  0
 31 33  1  0  0  0
 33 34  1  0  0  0
 33 51  1  0  0  0
 34 35  2  0  0  0
M  END
> <i_i_glide_confnum>
32

> <i_i_glide_lignum>
6

> <i_i_glide_posenum>
289

> <i_i_glide_rotatable_bonds>
6

> <i_m_Source_File_Index>
101

> <b_m_subgroup_collapsed>
0

> <r_i_docking_score>
-11.6334

> <r_i_glide_ecoul>
-15.1258

> <r_i_glide_eff_state_penalty>
0

> <r_i_glide_einternal>
1.84711

> <r_i_glide_emodel>
-121.968

> <r_i_glide_energy>
-70.3492

> <r_i_glide_erotb>
0.319674

> <r_i_glide_esite>
-0.0561636

> <r_i_glide_evdw>
-55.2234

> <r_i_glide_gscore>
-11.6334

> <r_i_glide_hbond>
-0.92984

> <r_i_glide_ligand_efficiency>
-0.332384

> <r_i_glide_ligand_efficiency_ln>
-2.5538

> <r_i_glide_ligand_efficiency_sa>
-1.08725

> <r_i_glide_lipo>
-3.67477

> <r_i_glide_metal>
0

> <r_i_glide_rewards>
-2.26229

> <s_i_glide_gridfile>
wee1_glide-grid

> <s_m_Source_File>
wee1_actives_glide_SP.sdf

> <s_m_Source_Path>
/Users/zhangxujun/Desktop

> <s_m_entry_id>
239

> <s_m_entry_name>
wee1_actives_glide_SP.101

> <s_m_subgroup_title>
wee1_actives_glide_SP

> <s_m_subgroupid>
wee1_actives_glide_SP


$$$$
