CHEMBL607707_70
                    3D
 Schrodinger Suite 2024-2.
 57 59  0  0  1  0            999 V2000
    7.2775   53.3278   23.4645 C   0  0  0  0  0  0
    6.6189   54.6509   23.0693 C   0  0  0  0  0  0
    5.2040   54.4967   22.9514 O   0  0  0  0  0  0
    4.4105   54.1591   24.0365 C   0  0  0  0  0  0
    4.7892   54.4232   25.3566 C   0  0  0  0  0  0
    3.9128   54.1622   26.4352 C   0  0  0  0  0  0
    2.6153   53.6118   26.1951 C   0  0  0  0  0  0
    2.2572   53.3457   24.8397 C   0  0  0  0  0  0
    3.1402   53.6101   23.7877 C   0  0  0  0  0  0
    2.6810   53.3539   22.4812 N   0  0  0  0  0  0
    3.3355   52.6590   21.5230 C   0  0  0  0  0  0
    4.4215   52.0953   21.6817 O   0  0  0  0  0  0
    2.6339   52.6400   20.2628 C   0  0  0  0  0  0
    3.2461   52.3340   19.1008 C   0  0  0  0  0  0
    2.5584   52.3184   17.7510 C   0  0  0  0  0  0
    2.3044   50.8967   17.2041 N   0  3  0  0  0  0
    1.4213   50.0296   18.1256 C   0  0  0  0  0  0
    1.7630   50.9244   15.7609 C   0  0  0  0  0  0
    1.7415   53.4187   27.3302 C   0  0  0  0  0  0
    2.1949   53.8517   28.5937 C   0  0  0  0  0  0
    3.4883   54.3542   28.7145 C   0  0  0  0  0  0
    4.3412   54.4966   27.6788 N   0  0  0  0  0  0
    1.3643   53.8059   29.7962 C   0  0  0  0  0  0
    0.7042   53.7729   30.7446 N   0  0  0  0  0  0
    0.4328   52.8967   27.2111 N   0  0  0  0  0  0
   -0.0020   51.7514   26.5370 C   0  0  0  0  0  0
    0.7040   50.5541   26.6396 C   0  0  0  0  0  0
    0.2825   49.4220   25.9419 C   0  0  0  0  0  0
   -0.8681   49.4764   25.1556 C   0  0  0  0  0  0
   -1.6020   50.6656   25.0795 C   0  0  0  0  0  0
   -1.1741   51.7959   25.7806 C   0  0  0  0  0  0
   -3.0320   50.7571   24.1139 Cl  0  0  0  0  0  0
   -1.2653   48.3754   24.4748 F   0  0  0  0  0  0
    8.3493   53.2973   23.2816 H   0  0  0  0  0  0
    7.1377   53.1603   24.5307 H   0  0  0  0  0  0
    6.8305   52.5188   22.8817 H   0  0  0  0  0  0
    6.9868   54.9506   22.0877 H   0  0  0  0  0  0
    6.8872   55.4599   23.7500 H   0  0  0  0  0  0
    5.7473   54.8668   25.5770 H   0  0  0  0  0  0
    1.2764   52.9534   24.6190 H   0  0  0  0  0  0
    1.7636   53.7053   22.2556 H   0  0  0  0  0  0
    1.5844   52.8968   20.2791 H   0  0  0  0  0  0
    4.3035   52.0967   19.0821 H   0  0  0  0  0  0
    3.1792   52.8270   17.0111 H   0  0  0  0  0  0
    1.5809   52.8038   17.7846 H   0  0  0  0  0  0
    0.4511   50.5182   18.2244 H   0  0  0  0  0  0
    1.9331   49.9457   19.0854 H   0  0  0  0  0  0
    1.3359   49.0463   17.6605 H   0  0  0  0  0  0
    0.7839   51.4059   15.7700 H   0  0  0  0  0  0
    2.4814   51.4792   15.1551 H   0  0  0  0  0  0
    1.7036   49.8890   15.4205 H   0  0  0  0  0  0
    3.8801   54.6795   29.6685 H   0  0  0  0  0  0
   -0.1674   53.1324   27.9888 H   0  0  0  0  0  0
    1.5683   50.4919   27.2816 H   0  0  0  0  0  0
    0.8342   48.4967   26.0287 H   0  0  0  0  0  0
   -1.7392   52.7139   25.7152 H   0  0  0  0  0  0
    3.2067   50.4020   17.1423 H   0  0  0  0  0  0
  1  2  1  0  0  0
  1 34  1  0  0  0
  1 35  1  0  0  0
  1 36  1  0  0  0
  2  3  1  0  0  0
  2 37  1  0  0  0
  2 38  1  0  0  0
  3  4  1  0  0  0
  4  9  2  0  0  0
  4  5  1  0  0  0
  5  6  2  0  0  0
  5 39  1  0  0  0
  6 22  1  0  0  0
  6  7  1  0  0  0
  7  8  2  0  0  0
  7 19  1  0  0  0
  8  9  1  0  0  0
  8 40  1  0  0  0
  9 10  1  0  0  0
 10 11  1  0  0  0
 10 41  1  0  0  0
 11 12  2  0  0  0
 11 13  1  0  0  0
 13 14  2  0  0  0
 13 42  1  0  0  0
 14 15  1  0  0  0
 14 43  1  0  0  0
 15 16  1  0  0  0
 15 44  1  0  0  0
 15 45  1  0  0  0
 16 17  1  0  0  0
 16 18  1  0  0  0
 16 57  1  0  0  0
 17 46  1  0  0  0
 17 47  1  0  0  0
 17 48  1  0  0  0
 18 49  1  0  0  0
 18 50  1  0  0  0
 18 51  1  0  0  0
 19 20  2  0  0  0
 19 25  1  0  0  0
 20 21  1  0  0  0
 20 23  1  0  0  0
 21 22  2  0  0  0
 21 52  1  0  0  0
 23 24  3  0  0  0
 25 26  1  0  0  0
 25 53  1  0  0  0
 26 31  2  0  0  0
 26 27  1  0  0  0
 27 28  2  0  0  0
 27 54  1  0  0  0
 28 29  1  0  0  0
 28 55  1  0  0  0
 29 30  2  0  0  0
 29 33  1  0  0  0
 30 31  1  0  0  0
 30 32  1  0  0  0
 31 56  1  0  0  0
M  CHG  1  16   1
M  END
> <i_i_glide_confnum>
100

> <i_i_glide_lignum>
71

> <i_i_glide_posenum>
344

> <i_i_glide_rotatable_bonds>
10

> <i_m_Source_File_Index>
66

> <b_m_subgroup_collapsed>
0

> <r_i_docking_score>
-5.20091

> <r_i_glide_ecoul>
-5.63787

> <r_i_glide_eff_state_penalty>
0

> <r_i_glide_einternal>
15.1566

> <r_i_glide_emodel>
-53.8887

> <r_i_glide_energy>
-44.8697

> <r_i_glide_erotb>
0.64283

> <r_i_glide_esite>
-0.142865

> <r_i_glide_evdw>
-39.2318

> <r_i_glide_gscore>
-5.20091

> <r_i_glide_hbond>
-0.230225

> <r_i_glide_ligand_efficiency>
-0.157603

> <r_i_glide_ligand_efficiency_ln>
-1.15665

> <r_i_glide_ligand_efficiency_sa>
-0.505518

> <r_i_glide_lipo>
-2.17199

> <r_i_glide_metal>
0

> <r_i_glide_rewards>
-0.491384

> <s_i_glide_gridfile>
wee1_glide-grid

> <s_m_Source_File>
wee1_actives_glide_SP.sdf

> <s_m_Source_Path>
/Users/zhangxujun/Desktop

> <s_m_entry_id>
204

> <s_m_entry_name>
wee1_actives_glide_SP.66

> <s_m_subgroup_title>
wee1_actives_glide_SP

> <s_m_subgroupid>
wee1_actives_glide_SP


$$$$
