@<TRIPOS>MOLECULE
CHEMBL271715_34
68   73    1
SMALL
USER_CHARGES


@<TRIPOS>ATOM
      1 C1          0.1075   51.8702   29.4961 C.ar      1 UNK         0.0000 
      2 C2         -0.1622   52.8114   30.4812 C.ar      1 UNK         0.0000 
      3 C3          0.3965   54.0839   30.4076 C.ar      1 UNK         0.0000 
      4 C4          1.2531   54.4134   29.3568 C.ar      1 UNK         0.0000 
      5 C5          1.5908   53.4413   28.3913 C.ar      1 UNK         0.0000 
      6 C6          0.9931   52.1768   28.4701 C.ar      1 UNK         0.0000 
      7 C7          2.5455   53.6980   27.2811 C.ar      1 UNK         0.0000 
      8 C8          2.0878   53.5680   25.9660 C.ar      1 UNK         0.0000 
      9 C9          2.9821   53.8186   24.9129 C.ar      1 UNK         0.0000 
     10 C10         4.3335   54.1868   25.1378 C.ar      1 UNK         0.0000 
     11 C11         4.9413   54.3879   23.8707 C.ar      1 UNK         0.0000 
     12 C12         6.2261   54.7909   23.4484 C.ar      1 UNK         0.0000 
     13 C13         6.5004   54.8967   22.0839 C.ar      1 UNK         0.0000 
     14 C14         5.5346   54.5607   21.1286 C.ar      1 UNK         0.0000 
     15 C15         4.2475   54.1672   21.5126 C.ar      1 UNK         0.0000 
     16 C16         3.9596   54.0971   22.8841 C.ar      1 UNK         0.0000 
     17 N17         2.7811   53.7760   23.5464 N.pl3     1 UNK         0.0000 
     18 C18         1.5151   53.4186   22.9154 C.3       1 UNK         0.0000 
     19 C19         1.3959   51.9123   22.6051 C.3       1 UNK         0.0000 
     20 O20         2.3801   51.4790   21.6883 O.3       1 UNK         0.0000 
     21 O21         5.9050   54.5188   19.8005 O.3       1 UNK         0.0000 
     22 C22         5.2174   55.3659   18.8847 C.3       1 UNK         0.0000 
     23 C23         4.8615   54.5795   17.6172 C.3       1 UNK         0.0000 
     24 C24         3.8312   53.4774   17.9204 C.3       1 UNK         0.0000 
     25 N25         3.3650   52.7266   16.6492 N.4       1 UNK         0.0000 
     26 C26         2.6509   53.6436   15.6253 C.3       1 UNK         0.0000 
     27 C27         2.0758   52.7938   14.4743 C.3       1 UNK         0.0000 
     28 O28         1.2463   51.7460   14.9673 O.3       1 UNK         0.0000 
     29 C29         1.9043   50.8272   15.8340 C.3       1 UNK         0.0000 
     30 C30         2.4611   51.5484   17.0784 C.3       1 UNK         0.0000 
     31 O31         7.7536   55.2986   21.6817 O.3       1 UNK         0.0000 
     32 C32         4.7615   54.2657   26.4761 C.ar      1 UNK         0.0000 
     33 C33         3.8878   54.0215   27.5066 C.ar      1 UNK         0.0000 
     34 C34         4.6579   54.1617   28.7768 C.2       1 UNK         0.0000 
     35 O35         4.2670   54.0273   29.9339 O.2       1 UNK         0.0000 
     36 N36         5.9042   54.4966   28.4044 N.am      1 UNK         0.0000 
     37 C37         6.0728   54.5877   27.0761 C.2       1 UNK         0.0000 
     38 O38         7.1044   54.8973   26.5045 O.2       1 UNK         0.0000 
     39 Cl39        1.8463   56.0407   29.2816 Cl        1 UNK         0.0000 
     40 H40        -0.3602   50.8968   29.5391 H         1 UNK         0.0000 
     41 H41        -0.8390   52.5551   31.2816 H         1 UNK         0.0000 
     42 H42         0.1531   54.8196   31.1603 H         1 UNK         0.0000 
     43 H43         1.2173   51.4188   27.7325 H         1 UNK         0.0000 
     44 H44         1.0607   53.2918   25.7810 H         1 UNK         0.0000 
     45 H45         7.0007   55.0336   24.1551 H         1 UNK         0.0000 
     46 H46         3.5060   53.9155   20.7714 H         1 UNK         0.0000 
     47 H47         0.7183   53.6791   23.6112 H         1 UNK         0.0000 
     48 H48         1.3097   54.0739   22.0810 H         1 UNK         0.0000 
     49 H49         1.5765   51.3413   23.5170 H         1 UNK         0.0000 
     50 H50         0.3945   51.6544   22.2583 H         1 UNK         0.0000 
     51 H51         2.1908   51.8574   20.8270 H         1 UNK         0.0000 
     52 H52         5.8757   56.1995   18.6371 H         1 UNK         0.0000 
     53 H53         4.3046   55.8030   19.2815 H         1 UNK         0.0000 
     54 H54         5.7647   54.1457   17.1858 H         1 UNK         0.0000 
     55 H55         4.4740   55.2890   16.8879 H         1 UNK         0.0000 
     56 H56         2.9291   53.8769   18.3896 H         1 UNK         0.0000 
     57 H57         4.2718   52.7158   18.5694 H         1 UNK         0.0000 
     58 H58         3.3964   54.3326   15.2285 H         1 UNK         0.0000 
     59 H59         1.8737   54.1959   16.1573 H         1 UNK         0.0000 
     60 H60         1.4938   53.4159   13.7935 H         1 UNK         0.0000 
     61 H61         2.8937   52.3667   13.8902 H         1 UNK         0.0000 
     62 H62         1.2040   50.0459   16.1294 H         1 UNK         0.0000 
     63 H63         2.7057   50.3314   15.2852 H         1 UNK         0.0000 
     64 H64         1.6599   51.9482   17.7018 H         1 UNK         0.0000 
     65 H65         3.0994   50.8915   17.6722 H         1 UNK         0.0000 
     66 H66         8.4005   55.3285   22.3994 H         1 UNK         0.0000 
     67 H67         6.6397   54.7203   29.0613 H         1 UNK         0.0000 
     68 H68         4.1663   52.3035   16.1959 H         1 UNK         0.0000 
@<TRIPOS>BOND
     1    1    6 ar   
     2    1    2 ar   
     3    1   40 1    
     4    2    3 ar   
     5    2   41 1    
     6    3    4 ar   
     7    3   42 1    
     8    4    5 ar   
     9    4   39 1    
    10    5    6 ar   
    11    5    7 1    
    12    6   43 1    
    13    7   33 ar   
    14    7    8 ar   
    15    8    9 ar   
    16    8   44 1    
    17    9   17 ar   
    18    9   10 ar   
    19   10   11 ar   
    20   10   32 ar   
    21   11   16 ar   
    22   11   12 ar   
    23   12   13 ar   
    24   12   45 1    
    25   13   14 ar   
    26   13   31 1    
    27   14   15 ar   
    28   14   21 1    
    29   15   16 ar   
    30   15   46 1    
    31   16   17 ar   
    32   17   18 1    
    33   18   19 1    
    34   18   47 1    
    35   18   48 1    
    36   19   20 1    
    37   19   49 1    
    38   19   50 1    
    39   20   51 1    
    40   21   22 1    
    41   22   23 1    
    42   22   52 1    
    43   22   53 1    
    44   23   24 1    
    45   23   54 1    
    46   23   55 1    
    47   24   25 1    
    48   24   56 1    
    49   24   57 1    
    50   25   30 1    
    51   25   26 1    
    52   25   68 1    
    53   26   27 1    
    54   26   58 1    
    55   26   59 1    
    56   27   28 1    
    57   27   60 1    
    58   27   61 1    
    59   28   29 1    
    60   29   30 1    
    61   29   62 1    
    62   29   63 1    
    63   30   64 1    
    64   30   65 1    
    65   31   66 1    
    66   32   37 1    
    67   32   33 ar   
    68   33   34 1    
    69   34   35 2    
    70   34   36 am   BACKBONE|DICT|INTERRES
    71   36   37 am   BACKBONE|DICT|INTERRES
    72   36   67 1    
    73   37   38 2    
@<TRIPOS>SUBSTRUCTURE
     1 UNK         1 GROUP             0       ****    0 ROOT    
