CHEMBL213422_81
                    3D
 Schrodinger Suite 2024-2.
 35 39  0  0  1  0            999 V2000
    5.2828   54.5055   21.2440 C   0  0  0  0  0  0
    4.0000   54.0901   21.5954 C   0  0  0  0  0  0
    3.7107   53.9916   22.9582 C   0  0  0  0  0  0
    4.6752   54.2728   23.9660 C   0  0  0  0  0  0
    5.9641   54.6795   23.5661 C   0  0  0  0  0  0
    6.2388   54.8241   22.2032 C   0  0  0  0  0  0
    7.4583   55.2965   21.8001 O   0  0  0  0  0  0
    4.0469   54.0540   25.2205 C   0  0  0  0  0  0
    2.7129   53.6389   24.9570 C   0  0  0  0  0  0
    2.5421   53.6318   23.5913 N   0  0  0  0  0  0
    1.6884   53.3762   23.1196 H   0  0  0  0  0  0
    1.8154   53.2954   25.9754 C   0  0  0  0  0  0
    2.2567   53.3667   27.3045 C   0  0  0  0  0  0
    3.5648   53.8050   27.5765 C   0  0  0  0  0  0
    4.4484   54.1278   26.5682 C   0  0  0  0  0  0
    5.7438   54.4995   27.2012 C   0  0  0  0  0  0
    6.7973   54.8537   26.6774 O   0  0  0  0  0  0
    5.5279   54.4111   28.5235 N   0  0  0  0  0  0
    4.2945   53.9959   28.8662 C   0  0  0  0  0  0
    3.9035   53.8340   30.0215 O   0  0  0  0  0  0
    1.2671   52.9222   28.3408 C   0  0  0  0  0  0
    0.9312   53.5420   29.5586 C   0  0  0  0  0  0
   -0.0143   52.7650   30.2182 C   0  0  0  0  0  0
   -0.3124   51.6993   29.4117 N   0  0  0  0  0  0
   -0.9748   50.9634   29.6229 H   0  0  0  0  0  0
    0.4554   51.7845   28.2782 C   0  0  0  0  0  0
    5.5215   54.6146   20.1946 H   0  0  0  0  0  0
    3.2657   53.8662   20.8371 H   0  0  0  0  0  0
    6.7354   54.9114   24.2802 H   0  0  0  0  0  0
    7.5727   55.2878   20.8474 H   0  0  0  0  0  0
    0.8121   52.9670   25.7413 H   0  0  0  0  0  0
    6.2369   54.6539   29.1985 H   0  0  0  0  0  0
    1.3606   54.4630   29.9317 H   0  0  0  0  0  0
   -0.4955   52.8745   31.1837 H   0  0  0  0  0  0
    0.3698   51.0133   27.5246 H   0  0  0  0  0  0
  1  6  2  0  0  0
  1  2  1  0  0  0
  1 27  1  0  0  0
  2  3  2  0  0  0
  2 28  1  0  0  0
  3 10  1  0  0  0
  3  4  1  0  0  0
  4  5  2  0  0  0
  4  8  1  0  0  0
  5  6  1  0  0  0
  5 29  1  0  0  0
  6  7  1  0  0  0
  7 30  1  0  0  0
  8 15  2  0  0  0
  8  9  1  0  0  0
  9 10  1  0  0  0
  9 12  2  0  0  0
 10 11  1  0  0  0
 12 13  1  0  0  0
 12 31  1  0  0  0
 13 14  2  0  0  0
 13 21  1  0  0  0
 14 19  1  0  0  0
 14 15  1  0  0  0
 15 16  1  0  0  0
 16 17  2  0  0  0
 16 18  1  0  0  0
 18 19  1  0  0  0
 18 32  1  0  0  0
 19 20  2  0  0  0
 21 26  2  0  0  0
 21 22  1  0  0  0
 22 23  2  0  0  0
 22 33  1  0  0  0
 23 24  1  0  0  0
 23 34  1  0  0  0
 24 25  1  0  0  0
 24 26  1  0  0  0
 26 35  1  0  0  0
M  END
> <i_i_glide_confnum>
3

> <i_i_glide_lignum>
82

> <i_i_glide_posenum>
106

> <i_i_glide_rotatable_bonds>
2

> <i_m_Source_File_Index>
84

> <b_m_subgroup_collapsed>
0

> <r_i_docking_score>
-9.03365

> <r_i_glide_ecoul>
-7.95537

> <r_i_glide_eff_state_penalty>
0

> <r_i_glide_einternal>
1.59859

> <r_i_glide_emodel>
-80.706

> <r_i_glide_energy>
-50.8567

> <r_i_glide_erotb>
0.185034

> <r_i_glide_esite>
-0.0415417

> <r_i_glide_evdw>
-42.9013

> <r_i_glide_gscore>
-9.03365

> <r_i_glide_hbond>
-0.631571

> <r_i_glide_ligand_efficiency>
-0.376402

> <r_i_glide_ligand_efficiency_ln>
-2.16217

> <r_i_glide_ligand_efficiency_sa>
-1.08573

> <r_i_glide_lipo>
-2.73584

> <r_i_glide_metal>
0

> <r_i_glide_rewards>
-2.47136

> <s_i_glide_gridfile>
wee1_glide-grid

> <s_m_Source_File>
wee1_actives_glide_SP.sdf

> <s_m_Source_Path>
/Users/zhangxujun/Desktop

> <s_m_entry_id>
222

> <s_m_entry_name>
wee1_actives_glide_SP.84

> <s_m_subgroup_title>
wee1_actives_glide_SP

> <s_m_subgroupid>
wee1_actives_glide_SP


$$$$
