CHEMBL510668_115
                    3D
 Schrodinger Suite 2024-2.
 59 64  0  0  1  0            999 V2000
   -0.2006   52.7558   30.3304 C   0  0  0  0  0  0
   -0.0165   51.8379   29.2997 C   0  0  0  0  0  0
    0.8660   52.1284   28.2676 C   0  0  0  0  0  0
    1.5497   53.3499   28.2456 C   0  0  0  0  0  0
    1.3068   54.2920   29.2549 C   0  0  0  0  0  0
    0.4462   53.9894   30.3060 C   0  0  0  0  0  0
    2.5230   53.6276   27.1558 C   0  0  0  0  0  0
    2.0835   53.5159   25.8298 C   0  0  0  0  0  0
    2.9985   53.7382   24.7905 C   0  0  0  0  0  0
    4.3484   54.1042   25.0483 C   0  0  0  0  0  0
    4.9815   54.3078   23.7992 C   0  0  0  0  0  0
    6.2745   54.7198   23.4188 C   0  0  0  0  0  0
    6.5627   54.8970   22.0688 C   0  0  0  0  0  0
    5.6092   54.6139   21.0969 C   0  0  0  0  0  0
    4.3347   54.1527   21.4252 C   0  0  0  0  0  0
    4.0197   54.0299   22.7870 C   0  0  0  0  0  0
    2.8310   53.6696   23.4133 N   0  0  0  0  0  0
    1.5944   53.2878   22.7200 C   0  0  0  0  0  0
    1.3638   51.7545   22.6547 C   0  0  0  0  0  0
    0.7313   51.1565   23.9334 C   0  0  0  0  0  0
    0.2153   49.7878   23.7993 N   0  0  0  0  0  0
   -0.9504   49.7109   22.9041 C   0  0  0  0  0  0
   -1.5873   48.3045   22.8831 C   0  0  0  0  0  0
   -1.9175   47.8734   24.1978 O   0  0  0  0  0  0
   -0.7999   47.8698   25.0817 C   0  0  0  0  0  0
   -0.1109   49.2516   25.1331 C   0  0  0  0  0  0
    7.8061   55.3302   21.6814 O   0  0  0  0  0  0
    4.7549   54.2097   26.3944 C   0  0  0  0  0  0
    3.8598   53.9744   27.4088 C   0  0  0  0  0  0
    4.6008   54.1596   28.6932 C   0  0  0  0  0  0
    4.1921   54.0609   29.8481 O   0  0  0  0  0  0
    5.8533   54.4967   28.3424 N   0  0  0  0  0  0
    6.0541   54.5702   27.0184 C   0  0  0  0  0  0
    7.1041   54.8958   26.4792 O   0  0  0  0  0  0
   -0.8706   52.5109   31.1432 H   0  0  0  0  0  0
   -0.5447   50.8968   29.3188 H   0  0  0  0  0  0
    1.0277   51.3928   27.4921 H   0  0  0  0  0  0
    1.8115   55.2483   29.2428 H   0  0  0  0  0  0
    0.2843   54.7036   31.0994 H   0  0  0  0  0  0
    1.0548   53.2684   25.6280 H   0  0  0  0  0  0
    7.0373   54.9428   24.1428 H   0  0  0  0  0  0
    5.8643   54.7433   20.0569 H   0  0  0  0  0  0
    3.6134   53.9456   20.6462 H   0  0  0  0  0  0
    1.6248   53.6967   21.7093 H   0  0  0  0  0  0
    0.7568   53.7917   23.2040 H   0  0  0  0  0  0
    2.3330   51.2768   22.4925 H   0  0  0  0  0  0
    0.7834   51.5131   21.7664 H   0  0  0  0  0  0
   -0.0492   51.8171   24.3142 H   0  0  0  0  0  0
    1.5045   51.1441   24.7010 H   0  0  0  0  0  0
   -0.6761   49.9922   21.8885 H   0  0  0  0  0  0
   -1.7004   50.4357   23.2252 H   0  0  0  0  0  0
   -2.4918   48.3102   22.2744 H   0  0  0  0  0  0
   -0.8950   47.5972   22.4239 H   0  0  0  0  0  0
   -1.1365   47.5883   26.0804 H   0  0  0  0  0  0
   -0.0757   47.1237   24.7554 H   0  0  0  0  0  0
   -0.7679   49.9460   25.6607 H   0  0  0  0  0  0
    0.7970   49.1906   25.7356 H   0  0  0  0  0  0
    8.4481   55.3470   22.4039 H   0  0  0  0  0  0
    6.5711   54.7374   29.0114 H   0  0  0  0  0  0
  1  6  2  0  0  0
  1  2  1  0  0  0
  1 35  1  0  0  0
  2  3  2  0  0  0
  2 36  1  0  0  0
  3  4  1  0  0  0
  3 37  1  0  0  0
  4  5  2  0  0  0
  4  7  1  0  0  0
  5  6  1  0  0  0
  5 38  1  0  0  0
  6 39  1  0  0  0
  7 29  2  0  0  0
  7  8  1  0  0  0
  8  9  2  0  0  0
  8 40  1  0  0  0
  9 17  1  0  0  0
  9 10  1  0  0  0
 10 11  1  0  0  0
 10 28  2  0  0  0
 11 16  2  0  0  0
 11 12  1  0  0  0
 12 13  2  0  0  0
 12 41  1  0  0  0
 13 14  1  0  0  0
 13 27  1  0  0  0
 14 15  2  0  0  0
 14 42  1  0  0  0
 15 16  1  0  0  0
 15 43  1  0  0  0
 16 17  1  0  0  0
 17 18  1  0  0  0
 18 19  1  0  0  0
 18 44  1  0  0  0
 18 45  1  0  0  0
 19 20  1  0  0  0
 19 46  1  0  0  0
 19 47  1  0  0  0
 20 21  1  0  0  0
 20 48  1  0  0  0
 20 49  1  0  0  0
 21 26  1  0  0  0
 21 22  1  0  0  0
 22 23  1  0  0  0
 22 50  1  0  0  0
 22 51  1  0  0  0
 23 24  1  0  0  0
 23 52  1  0  0  0
 23 53  1  0  0  0
 24 25  1  0  0  0
 25 26  1  0  0  0
 25 54  1  0  0  0
 25 55  1  0  0  0
 26 56  1  0  0  0
 26 57  1  0  0  0
 27 58  1  0  0  0
 28 33  1  0  0  0
 28 29  1  0  0  0
 29 30  1  0  0  0
 30 31  2  0  0  0
 30 32  1  0  0  0
 32 33  1  0  0  0
 32 59  1  0  0  0
 33 34  2  0  0  0
M  END
> <i_i_glide_confnum>
41

> <i_i_glide_lignum>
116

> <i_i_glide_posenum>
302

> <i_i_glide_rotatable_bonds>
6

> <i_m_Source_File_Index>
125

> <b_m_subgroup_collapsed>
0

> <r_i_docking_score>
-11.1269

> <r_i_glide_ecoul>
-13.801

> <r_i_glide_eff_state_penalty>
0

> <r_i_glide_einternal>
3.18386

> <r_i_glide_emodel>
-107.378

> <r_i_glide_energy>
-64.78

> <r_i_glide_erotb>
0.271108

> <r_i_glide_esite>
0

> <r_i_glide_evdw>
-50.9789

> <r_i_glide_gscore>
-11.1269

> <r_i_glide_hbond>
-0.904265

> <r_i_glide_ligand_efficiency>
-0.327262

> <r_i_glide_ligand_efficiency_ln>
-2.45825

> <r_i_glide_ligand_efficiency_sa>
-1.0602

> <r_i_glide_lipo>
-3.5908

> <r_i_glide_metal>
0

> <r_i_glide_rewards>
-2.28385

> <s_i_glide_gridfile>
wee1_glide-grid

> <s_m_Source_File>
wee1_actives_glide_SP.sdf

> <s_m_Source_Path>
/Users/zhangxujun/Desktop

> <s_m_entry_id>
263

> <s_m_entry_name>
wee1_actives_glide_SP.125

> <s_m_subgroup_title>
wee1_actives_glide_SP

> <s_m_subgroupid>
wee1_actives_glide_SP


$$$$
