@<TRIPOS>MOLECULE
CHEMBL178510_25
55   59    1
SMALL
USER_CHARGES


@<TRIPOS>ATOM
      1 C1          2.3783   53.6990   24.4122 C.3       1 UNK         0.0000 
      2 N2          3.0357   53.9190   25.7178 N.pl3     1 UNK         0.0000 
      3 C3          4.4049   54.3058   25.7060 C.ar      1 UNK         0.0000 
      4 C4          5.0739   54.4968   26.9227 C.ar      1 UNK         0.0000 
      5 C5          4.3038   54.3574   28.1580 C.ar      1 UNK         0.0000 
      6 C6          3.0019   53.9915   28.1154 C.ar      1 UNK         0.0000 
      7 C7          2.3020   53.6941   26.8572 C.ar      1 UNK         0.0000 
      8 O8          1.1380   53.2857   26.8443 O.2       1 UNK         0.0000 
      9 C9          2.2286   53.8239   29.3677 C.ar      1 UNK         0.0000 
     10 C10         2.3393   52.6362   30.1086 C.ar      1 UNK         0.0000 
     11 C11         1.5095   52.4129   31.2085 C.ar      1 UNK         0.0000 
     12 C12         0.5545   53.3549   31.5729 C.ar      1 UNK         0.0000 
     13 C13         0.4757   54.5566   30.8779 C.ar      1 UNK         0.0000 
     14 C14         1.3209   54.8082   29.7956 C.ar      1 UNK         0.0000 
     15 Cl15        1.2293   56.3516   29.0129 Cl        1 UNK         0.0000 
     16 Cl16        3.5044   51.4330   29.6819 Cl        1 UNK         0.0000 
     17 C17         6.4398   54.7619   26.8703 C.ar      1 UNK         0.0000 
     18 N18         7.1037   54.8545   25.6905 N.ar      1 UNK         0.0000 
     19 C19         6.3775   54.6908   24.5561 C.ar      1 UNK         0.0000 
     20 N20         5.0467   54.4345   24.5136 N.ar      1 UNK         0.0000 
     21 N21         7.1044   54.8180   23.3707 N.pl3     1 UNK         0.0000 
     22 C22         6.7491   54.9917   22.0253 C.ar      1 UNK         0.0000 
     23 C23         7.7404   55.5205   21.2011 C.ar      1 UNK         0.0000 
     24 C24         7.4981   55.7371   19.8513 C.ar      1 UNK         0.0000 
     25 C25         6.2441   55.4500   19.3140 C.ar      1 UNK         0.0000 
     26 C26         5.2508   54.8955   20.1251 C.ar      1 UNK         0.0000 
     27 C27         5.5043   54.6586   21.4767 C.ar      1 UNK         0.0000 
     28 C28         5.9647   55.7549   17.8465 C.3       1 UNK         0.0000 
     29 C29         5.4160   57.1817   17.5898 C.3       1 UNK         0.0000 
     30 C30         6.2792   58.3692   18.0952 C.3       1 UNK         0.0000 
     31 C31         7.5303   58.7490   17.2576 C.3       1 UNK         0.0000 
     32 N32         8.3277   59.6964   17.9623 N.2       1 UNK         0.0000 
     33 N33         9.4520   59.1564   18.0838 N.2       1 UNK         0.0000 
     34 N34         9.5007   58.0016   17.5648 N.2       1 UNK         0.0000 
     35 N35         8.4149   57.6544   17.0427 N.2       1 UNK         0.0000 
     36 H36         1.3254   53.4217   24.4816 H         1 UNK         0.0000 
     37 H37         2.4347   54.6019   23.8067 H         1 UNK         0.0000 
     38 H38         2.8878   52.9028   23.8666 H         1 UNK         0.0000 
     39 H39         4.7759   54.5510   29.1123 H         1 UNK         0.0000 
     40 H40         1.5968   51.5069   31.7891 H         1 UNK         0.0000 
     41 H41        -0.0953   53.1708   32.4167 H         1 UNK         0.0000 
     42 H42        -0.2396   55.2966   31.1951 H         1 UNK         0.0000 
     43 H43         7.0225   54.8941   27.7721 H         1 UNK         0.0000 
     44 H44         8.1103   54.9083   23.5302 H         1 UNK         0.0000 
     45 H45         8.7124   55.7684   21.6042 H         1 UNK         0.0000 
     46 H46         8.2850   56.1451   19.2354 H         1 UNK         0.0000 
     47 H47         4.2796   54.6592   19.7168 H         1 UNK         0.0000 
     48 H48         4.7202   54.2251   22.0736 H         1 UNK         0.0000 
     49 H49         5.2517   55.0190   17.4694 H         1 UNK         0.0000 
     50 H50         6.8672   55.5705   17.2623 H         1 UNK         0.0000 
     51 H51         4.4348   57.2471   18.0631 H         1 UNK         0.0000 
     52 H52         5.2257   57.3061   16.5244 H         1 UNK         0.0000 
     53 H53         6.5478   58.2097   19.1388 H         1 UNK         0.0000 
     54 H54         5.6369   59.2531   18.1092 H         1 UNK         0.0000 
     55 H55         7.2363   59.1735   16.2932 H         1 UNK         0.0000 
@<TRIPOS>BOND
     1    1    2 1    
     2    1   36 1    
     3    1   37 1    
     4    1   38 1    
     5    2    7 ar   
     6    2    3 ar   
     7    3   20 ar   
     8    3    4 ar   
     9    4    5 ar   
    10    4   17 ar   
    11    5    6 ar   
    12    5   39 1    
    13    6    7 ar   
    14    6    9 1    
    15    7    8 2    
    16    9   14 ar   
    17    9   10 ar   
    18   10   11 ar   
    19   10   16 1    
    20   11   12 ar   
    21   11   40 1    
    22   12   13 ar   
    23   12   41 1    
    24   13   14 ar   
    25   13   42 1    
    26   14   15 1    
    27   17   18 ar   
    28   17   43 1    
    29   18   19 ar   
    30   19   20 ar   
    31   19   21 1    
    32   21   22 1    
    33   21   44 1    
    34   22   27 ar   
    35   22   23 ar   
    36   23   24 ar   
    37   23   45 1    
    38   24   25 ar   
    39   24   46 1    
    40   25   26 ar   
    41   25   28 1    
    42   26   27 ar   
    43   26   47 1    
    44   27   48 1    
    45   28   29 1    
    46   28   49 1    
    47   28   50 1    
    48   29   30 1    
    49   29   51 1    
    50   29   52 1    
    51   30   31 1    
    52   30   53 1    
    53   30   54 1    
    54   31   35 1    
    55   31   32 1    
    56   31   55 1    
    57   32   33 2    
    58   33   34 1    
    59   34   35 2    
@<TRIPOS>SUBSTRUCTURE
     1 UNK         1 GROUP             0       ****    0 ROOT    
