@<TRIPOS>MOLECULE
CHEMBL488571_104
42   46    1
SMALL
USER_CHARGES


@<TRIPOS>ATOM
      1 C1          5.3385   54.5233   21.3434 C.ar      1 UNK         0.0000 
      2 C2          4.0596   54.0922   21.6843 C.ar      1 UNK         0.0000 
      3 C3          3.7565   53.9886   23.0503 C.ar      1 UNK         0.0000 
      4 C4          4.7234   54.2664   24.0557 C.ar      1 UNK         0.0000 
      5 C5          6.0138   54.6691   23.6656 C.ar      1 UNK         0.0000 
      6 C6          6.2878   54.8271   22.3113 C.ar      1 UNK         0.0000 
      7 O7          7.5048   55.2965   21.9189 O.3       1 UNK         0.0000 
      8 C8          4.1077   54.0586   25.3083 C.ar      1 UNK         0.0000 
      9 C9          2.7669   53.6355   25.0595 C.ar      1 UNK         0.0000 
     10 N10         2.5762   53.6372   23.6869 N.pl3     1 UNK         0.0000 
     11 C11         1.3465   53.2520   23.0085 C.3       1 UNK         0.0000 
     12 C12         1.3103   51.7229   22.7930 C.3       1 UNK         0.0000 
     13 C13         0.3066   51.3258   21.6985 C.2       1 UNK         0.0000 
     14 O14        -0.8726   51.6764   21.7875 O.2       1 UNK         0.0000 
     15 N15         0.7569   50.5477   20.5864 N.pl3     1 UNK         0.0000 
     16 C16         2.0338   50.1780   20.2211 C.ar      1 UNK         0.0000 
     17 C17         1.8988   49.4440   19.0517 C.ar      1 UNK         0.0000 
     18 N18         0.6354   49.3338   18.6845 N.2       1 UNK         0.0000 
     19 C19        -0.0322   49.9961   19.5991 C.ar      1 UNK         0.0000 
     20 C20         1.8865   53.2969   26.1022 C.ar      1 UNK         0.0000 
     21 C21         2.3472   53.4399   27.4119 C.ar      1 UNK         0.0000 
     22 C22         3.6473   53.8682   27.6548 C.ar      1 UNK         0.0000 
     23 C23         4.5293   54.1608   26.6479 C.ar      1 UNK         0.0000 
     24 C24         5.8197   54.5458   27.2820 C.2       1 UNK         0.0000 
     25 O25         6.8831   54.8749   26.7578 O.2       1 UNK         0.0000 
     26 N26         5.5868   54.4966   28.6060 N.am      1 UNK         0.0000 
     27 C27         4.3388   54.1146   28.9424 C.2       1 UNK         0.0000 
     28 O28         3.8906   54.0140   30.0809 O.2       1 UNK         0.0000 
     29 H29         5.5891   54.6402   20.2990 H         1 UNK         0.0000 
     30 H30         3.3318   53.8709   20.9148 H         1 UNK         0.0000 
     31 H31         6.7795   54.8924   24.3876 H         1 UNK         0.0000 
     32 H32         8.1678   55.2998   22.6205 H         1 UNK         0.0000 
     33 H33         1.3045   53.7993   22.0666 H         1 UNK         0.0000 
     34 H34         0.4982   53.5941   23.6023 H         1 UNK         0.0000 
     35 H35         0.9961   51.2304   23.7141 H         1 UNK         0.0000 
     36 H36         2.3076   51.3381   22.5900 H         1 UNK         0.0000 
     37 H37         2.9181   50.4643   20.7701 H         1 UNK         0.0000 
     38 H38         2.7052   49.0159   18.4679 H         1 UNK         0.0000 
     39 H39        -1.1037   50.1291   19.6252 H         1 UNK         0.0000 
     40 H40         0.8772   52.9631   25.9146 H         1 UNK         0.0000 
     41 H41         1.6826   53.2136   28.2341 H         1 UNK         0.0000 
     42 H42         6.2881   54.7613   29.2831 H         1 UNK         0.0000 
@<TRIPOS>BOND
     1    1    6 ar   
     2    1    2 ar   
     3    1   29 1    
     4    2    3 ar   
     5    2   30 1    
     6    3   10 ar   
     7    3    4 ar   
     8    4    5 ar   
     9    4    8 ar   
    10    5    6 ar   
    11    5   31 1    
    12    6    7 1    
    13    7   32 1    
    14    8   23 ar   
    15    8    9 ar   
    16    9   10 ar   
    17    9   20 ar   
    18   10   11 1    
    19   11   12 1    
    20   11   33 1    
    21   11   34 1    
    22   12   13 1    
    23   12   35 1    
    24   12   36 1    
    25   13   14 2    
    26   13   15 1    
    27   15   19 ar   
    28   15   16 ar   
    29   16   17 ar   
    30   16   37 1    
    31   17   18 ar   
    32   17   38 1    
    33   18   19 ar   
    34   19   39 1    
    35   20   21 ar   
    36   20   40 1    
    37   21   22 ar   
    38   21   41 1    
    39   22   27 1    
    40   22   23 ar   
    41   23   24 1    
    42   24   25 2    
    43   24   26 am   BACKBONE|DICT|INTERRES
    44   26   27 am   BACKBONE|DICT|INTERRES
    45   26   42 1    
    46   27   28 2    
@<TRIPOS>SUBSTRUCTURE
     1 UNK         1 GROUP             0       ****    0 ROOT    
