@<TRIPOS>MOLECULE
CHEMBL379149_82
35   39    1
SMALL
USER_CHARGES


@<TRIPOS>ATOM
      1 C1         -0.0767   52.7110   30.2339 C.ar      1 UNK         0.0000 
      2 C2          0.9138   53.4978   29.6406 C.ar      1 UNK         0.0000 
      3 C3          1.2482   52.9489   28.4034 C.ar      1 UNK         0.0000 
      4 N4          0.4308   51.8462   28.2548 N.pl3     1 UNK         0.0000 
      5 H5          0.4341   51.2298   27.4537 H         1 UNK         0.0000 
      6 C6         -0.3847   51.6991   29.3434 C.ar      1 UNK         0.0000 
      7 C7          2.2395   53.3632   27.3586 C.ar      1 UNK         0.0000 
      8 C8          1.8063   53.2961   26.0253 C.ar      1 UNK         0.0000 
      9 C9          2.7144   53.6300   25.0146 C.ar      1 UNK         0.0000 
     10 C10         4.0460   54.0391   25.2920 C.ar      1 UNK         0.0000 
     11 C11         4.6857   54.2609   24.0495 C.ar      1 UNK         0.0000 
     12 C12         5.9796   54.6687   23.6777 C.ar      1 UNK         0.0000 
     13 C13         6.2776   54.8322   22.3286 C.ar      1 UNK         0.0000 
     14 C14         5.3350   54.5388   21.3470 C.ar      1 UNK         0.0000 
     15 C15         4.0489   54.1021   21.6670 C.ar      1 UNK         0.0000 
     16 C16         3.7374   53.9865   23.0267 C.ar      1 UNK         0.0000 
     17 N17         2.5612   53.6195   23.6442 N.pl3     1 UNK         0.0000 
     18 H18         1.7147   53.3679   23.1542 H         1 UNK         0.0000 
     19 O19         7.5065   55.2969   21.9608 O.3       1 UNK         0.0000 
     20 C20         4.4407   54.1182   26.6410 C.ar      1 UNK         0.0000 
     21 C21         3.5497   53.7915   27.6397 C.ar      1 UNK         0.0000 
     22 C22         4.2762   53.9740   28.9323 C.2       1 UNK         0.0000 
     23 O23         3.8827   53.7924   30.0816 O.2       1 UNK         0.0000 
     24 N24         5.5055   54.4051   28.6000 N.am      1 UNK         0.0000 
     25 C25         5.7290   54.4991   27.2813 C.2       1 UNK         0.0000 
     26 O26         6.7811   54.8695   26.7651 O.2       1 UNK         0.0000 
     27 H27        -0.5256   52.8608   31.2085 H         1 UNK         0.0000 
     28 H28         1.3552   54.3806   30.0765 H         1 UNK         0.0000 
     29 H29        -1.1042   50.8965   29.3959 H         1 UNK         0.0000 
     30 H30         0.8033   52.9791   25.7809 H         1 UNK         0.0000 
     31 H31         6.7325   54.9000   24.4109 H         1 UNK         0.0000 
     32 H32         5.5970   54.6654   20.3072 H         1 UNK         0.0000 
     33 H33         3.3248   53.8891   20.8926 H         1 UNK         0.0000 
     34 H34         8.1574   55.2967   22.6772 H         1 UNK         0.0000 
     35 H35         6.2077   54.6562   29.2792 H         1 UNK         0.0000 
@<TRIPOS>BOND
     1    1    6 ar   
     2    1    2 ar   
     3    1   27 1    
     4    2    3 ar   
     5    2   28 1    
     6    3    4 ar   
     7    3    7 1    
     8    4    5 1    
     9    4    6 ar   
    10    6   29 1    
    11    7   21 ar   
    12    7    8 ar   
    13    8    9 ar   
    14    8   30 1    
    15    9   17 ar   
    16    9   10 ar   
    17   10   11 ar   
    18   10   20 ar   
    19   11   16 ar   
    20   11   12 ar   
    21   12   13 ar   
    22   12   31 1    
    23   13   14 ar   
    24   13   19 1    
    25   14   15 ar   
    26   14   32 1    
    27   15   16 ar   
    28   15   33 1    
    29   16   17 ar   
    30   17   18 1    
    31   19   34 1    
    32   20   25 1    
    33   20   21 ar   
    34   21   22 1    
    35   22   23 2    
    36   22   24 am   BACKBONE|DICT|INTERRES
    37   24   25 am   BACKBONE|DICT|INTERRES
    38   24   35 1    
    39   25   26 2    
@<TRIPOS>SUBSTRUCTURE
     1 UNK         1 GROUP             0       ****    0 ROOT    
