@<TRIPOS>MOLECULE
CHEMBL272351_68
63   68    1
SMALL
USER_CHARGES


@<TRIPOS>ATOM
      1 C1          1.6401   53.3594   22.6653 C.3       1 UNK         0.0000 
      2 N2          2.8731   53.7291   23.3387 N.pl3     1 UNK         0.0000 
      3 C3          3.0191   53.7952   24.7157 C.ar      1 UNK         0.0000 
      4 C4          2.0887   53.5620   25.7424 C.ar      1 UNK         0.0000 
      5 C5          2.5094   53.6925   27.0741 C.ar      1 UNK         0.0000 
      6 C6          3.8494   54.0083   27.3398 C.ar      1 UNK         0.0000 
      7 C7          4.7554   54.2497   26.3373 C.ar      1 UNK         0.0000 
      8 C8          4.3651   54.1583   24.9880 C.ar      1 UNK         0.0000 
      9 C9          5.0151   54.3512   23.7438 C.ar      1 UNK         0.0000 
     10 C10         4.0600   54.0964   22.7204 C.ar      1 UNK         0.0000 
     11 C11         4.3847   54.2315   21.3612 C.ar      1 UNK         0.0000 
     12 C12         5.6744   54.6587   21.0362 C.ar      1 UNK         0.0000 
     13 C13         6.6327   54.8968   22.0266 C.ar      1 UNK         0.0000 
     14 C14         6.3189   54.7313   23.3743 C.ar      1 UNK         0.0000 
     15 O15         7.9041   55.2971   21.6817 O.3       1 UNK         0.0000 
     16 O16         6.0219   54.7976   19.7132 O.3       1 UNK         0.0000 
     17 C17         5.4759   55.9398   19.0633 C.3       1 UNK         0.0000 
     18 C18         5.9930   56.0117   17.6176 C.3       1 UNK         0.0000 
     19 C19         7.5283   56.0551   17.4669 C.3       1 UNK         0.0000 
     20 N20         8.1781   57.2029   18.1132 N.3       1 UNK         0.0000 
     21 C21         9.6366   57.0315   18.0406 C.3       1 UNK         0.0000 
     22 C22        10.4153   58.2407   18.6013 C.3       1 UNK         0.0000 
     23 O23         9.9675   59.4713   18.0352 O.3       1 UNK         0.0000 
     24 C24         8.5621   59.6732   18.1488 C.3       1 UNK         0.0000 
     25 C25         7.7678   58.4950   17.5423 C.3       1 UNK         0.0000 
     26 C26         6.0479   54.5861   26.9797 C.2       1 UNK         0.0000 
     27 O27         7.1044   54.8982   26.4518 O.2       1 UNK         0.0000 
     28 N28         5.8382   54.4963   28.2994 N.am      1 UNK         0.0000 
     29 C29         4.5904   54.1325   28.6323 C.2       1 UNK         0.0000 
     30 O30         4.1820   53.9619   29.7796 O.2       1 UNK         0.0000 
     31 C31         1.5335   53.4417   28.1702 C.ar      1 UNK         0.0000 
     32 C32         0.9212   52.1846   28.2406 C.ar      1 UNK         0.0000 
     33 C33         0.0570   51.8671   29.2833 C.ar      1 UNK         0.0000 
     34 C34        -0.1813   52.7917   30.2943 C.ar      1 UNK         0.0000 
     35 C35         0.3830   54.0617   30.2231 C.ar      1 UNK         0.0000 
     36 C36         1.2169   54.4019   29.1566 C.ar      1 UNK         0.0000 
     37 Cl37        1.8192   56.0262   29.0964 Cl        1 UNK         0.0000 
     38 H38         1.3060   52.3885   23.0310 H         1 UNK         0.0000 
     39 H39         0.8822   54.1084   22.8832 H         1 UNK         0.0000 
     40 H40         1.7827   53.2962   21.5880 H         1 UNK         0.0000 
     41 H41         1.0667   53.2927   25.5179 H         1 UNK         0.0000 
     42 H42         3.6671   54.0401   20.5766 H         1 UNK         0.0000 
     43 H43         7.0792   54.9268   24.1084 H         1 UNK         0.0000 
     44 H44         8.5212   55.2989   22.4266 H         1 UNK         0.0000 
     45 H45         5.7348   56.8537   19.6028 H         1 UNK         0.0000 
     46 H46         4.3880   55.8698   19.0394 H         1 UNK         0.0000 
     47 H47         5.5298   56.8429   17.0855 H         1 UNK         0.0000 
     48 H48         5.6350   55.1250   17.0923 H         1 UNK         0.0000 
     49 H49         7.7936   56.0201   16.4085 H         1 UNK         0.0000 
     50 H50         7.9288   55.1421   17.9148 H         1 UNK         0.0000 
     51 H51         9.9401   56.8647   17.0050 H         1 UNK         0.0000 
     52 H52         9.9140   56.1261   18.5831 H         1 UNK         0.0000 
     53 H53        10.3048   58.2677   19.6817 H         1 UNK         0.0000 
     54 H54        11.4813   58.1239   18.3999 H         1 UNK         0.0000 
     55 H55         8.2829   59.7873   19.1979 H         1 UNK         0.0000 
     56 H56         8.3049   60.6024   17.6404 H         1 UNK         0.0000 
     57 H57         6.7015   58.6581   17.7007 H         1 UNK         0.0000 
     58 H58         7.9112   58.4805   16.4608 H         1 UNK         0.0000 
     59 H59         6.5535   54.7192   28.9789 H         1 UNK         0.0000 
     60 H60         1.1257   51.4338   27.4908 H         1 UNK         0.0000 
     61 H61        -0.4154   50.8965   29.3213 H         1 UNK         0.0000 
     62 H62        -0.8275   52.5275   31.1208 H         1 UNK         0.0000 
     63 H63         0.1669   54.7864   30.9952 H         1 UNK         0.0000 
@<TRIPOS>BOND
     1    1    2 1    
     2    1   38 1    
     3    1   39 1    
     4    1   40 1    
     5    2   10 ar   
     6    2    3 ar   
     7    3    8 ar   
     8    3    4 ar   
     9    4    5 ar   
    10    4   41 1    
    11    5    6 ar   
    12    5   31 1    
    13    6   29 1    
    14    6    7 ar   
    15    7    8 ar   
    16    7   26 1    
    17    8    9 ar   
    18    9   14 ar   
    19    9   10 ar   
    20   10   11 ar   
    21   11   12 ar   
    22   11   42 1    
    23   12   13 ar   
    24   12   16 1    
    25   13   14 ar   
    26   13   15 1    
    27   14   43 1    
    28   15   44 1    
    29   16   17 1    
    30   17   18 1    
    31   17   45 1    
    32   17   46 1    
    33   18   19 1    
    34   18   47 1    
    35   18   48 1    
    36   19   20 1    
    37   19   49 1    
    38   19   50 1    
    39   20   25 1    
    40   20   21 1    
    41   21   22 1    
    42   21   51 1    
    43   21   52 1    
    44   22   23 1    
    45   22   53 1    
    46   22   54 1    
    47   23   24 1    
    48   24   25 1    
    49   24   55 1    
    50   24   56 1    
    51   25   57 1    
    52   25   58 1    
    53   26   27 2    
    54   26   28 am   BACKBONE|DICT|INTERRES
    55   28   29 am   BACKBONE|DICT|INTERRES
    56   28   59 1    
    57   29   30 2    
    58   31   36 ar   
    59   31   32 ar   
    60   32   33 ar   
    61   32   60 1    
    62   33   34 ar   
    63   33   61 1    
    64   34   35 ar   
    65   34   62 1    
    66   35   36 ar   
    67   35   63 1    
    68   36   37 1    
@<TRIPOS>SUBSTRUCTURE
     1 UNK         1 GROUP             0       ****    0 ROOT    
