@<TRIPOS>MOLECULE
CHEMBL483801_85
52   55    1
SMALL
USER_CHARGES


@<TRIPOS>ATOM
      1 C1          4.2797   52.8960   18.4011 C.3       1 UNK         0.0000 
      2 N2          2.7394   52.8375   18.3014 N.4       1 UNK         0.0000 
      3 C3          2.2172   53.8726   17.2836 C.3       1 UNK         0.0000 
      4 C4          2.2068   51.4131   17.9927 C.3       1 UNK         0.0000 
      5 C5          2.4350   50.4421   19.1702 C.3       1 UNK         0.0000 
      6 N6          1.7175   50.8462   20.3843 N.am      1 UNK         0.0000 
      7 C7          2.3023   51.2495   21.5237 C.2       1 UNK         0.0000 
      8 O8          3.5208   51.2820   21.6718 O.2       1 UNK         0.0000 
      9 C9          1.3719   51.6838   22.6666 C.3       1 UNK         0.0000 
     10 C10         1.3898   53.2049   22.9826 C.3       1 UNK         0.0000 
     11 N11         2.6124   53.6367   23.6667 N.pl3     1 UNK         0.0000 
     12 C12         3.7775   54.0678   23.0462 C.ar      1 UNK         0.0000 
     13 C13         4.0703   54.2636   21.6894 C.ar      1 UNK         0.0000 
     14 C14         5.3543   54.6901   21.3636 C.ar      1 UNK         0.0000 
     15 C15         6.3209   54.8965   22.3370 C.ar      1 UNK         0.0000 
     16 C16         6.0460   54.6907   23.6859 C.ar      1 UNK         0.0000 
     17 C17         4.7489   54.2993   24.0606 C.ar      1 UNK         0.0000 
     18 C18         4.1243   54.0729   25.3057 C.ar      1 UNK         0.0000 
     19 C19         2.7918   53.6401   25.0418 C.ar      1 UNK         0.0000 
     20 C20         1.9033   53.2966   26.0783 C.ar      1 UNK         0.0000 
     21 C21         2.3542   53.4275   27.3935 C.ar      1 UNK         0.0000 
     22 C22         3.6493   53.8608   27.6503 C.ar      1 UNK         0.0000 
     23 C23         4.5360   54.1643   26.6499 C.ar      1 UNK         0.0000 
     24 C24         5.8182   54.5547   27.2965 C.2       1 UNK         0.0000 
     25 O25         6.8819   54.8951   26.7781 O.2       1 UNK         0.0000 
     26 N26         5.5779   54.4942   28.6185 N.am      1 UNK         0.0000 
     27 C27         4.3311   54.0969   28.9454 C.2       1 UNK         0.0000 
     28 O28         3.8809   53.9772   30.0811 O.2       1 UNK         0.0000 
     29 O29         7.5524   55.3377   21.9547 O.3       1 UNK         0.0000 
     30 H30         4.6975   52.4987   17.4773 H         1 UNK         0.0000 
     31 H31         4.5821   52.2956   19.2596 H         1 UNK         0.0000 
     32 H32         4.5700   53.9362   18.5428 H         1 UNK         0.0000 
     33 H33         2.6064   53.6067   16.2992 H         1 UNK         0.0000 
     34 H34         1.1277   53.8387   17.3066 H         1 UNK         0.0000 
     35 H35         2.5700   54.8545   17.6018 H         1 UNK         0.0000 
     36 H36         1.1407   51.5251   17.7863 H         1 UNK         0.0000 
     37 H37         2.7045   51.0806   17.0778 H         1 UNK         0.0000 
     38 H38         2.0760   49.4537   18.8814 H         1 UNK         0.0000 
     39 H39         3.5037   50.3015   19.3404 H         1 UNK         0.0000 
     40 H40         0.7137   50.7543   20.3705 H         1 UNK         0.0000 
     41 H41         0.3480   51.3814   22.4432 H         1 UNK         0.0000 
     42 H42         1.6463   51.1168   23.5584 H         1 UNK         0.0000 
     43 H43         1.2717   53.7999   22.0776 H         1 UNK         0.0000 
     44 H44         0.5360   53.4735   23.6080 H         1 UNK         0.0000 
     45 H45         3.3322   54.0989   20.9207 H         1 UNK         0.0000 
     46 H46         5.6083   54.8718   20.3311 H         1 UNK         0.0000 
     47 H47         6.8178   54.8683   24.4144 H         1 UNK         0.0000 
     48 H48         0.8996   52.9576   25.8803 H         1 UNK         0.0000 
     49 H49         1.6856   53.1848   28.2035 H         1 UNK         0.0000 
     50 H50         6.2760   54.7559   29.2999 H         1 UNK         0.0000 
     51 H51         8.2148   55.3029   22.6576 H         1 UNK         0.0000 
     52 H52         2.3648   53.0997   19.2055 H         1 UNK         0.0000 
@<TRIPOS>BOND
     1    1    2 1    
     2    1   30 1    
     3    1   31 1    
     4    1   32 1    
     5    2    3 1    
     6    2    4 1    
     7    2   52 1    
     8    3   33 1    
     9    3   34 1    
    10    3   35 1    
    11    4    5 1    
    12    4   36 1    
    13    4   37 1    
    14    5    6 1    
    15    5   38 1    
    16    5   39 1    
    17    6    7 am   BACKBONE|DICT|INTERRES
    18    6   40 1    
    19    7    8 2    
    20    7    9 1    
    21    9   10 1    
    22    9   41 1    
    23    9   42 1    
    24   10   11 1    
    25   10   43 1    
    26   10   44 1    
    27   11   19 ar   
    28   11   12 ar   
    29   12   17 ar   
    30   12   13 ar   
    31   13   14 ar   
    32   13   45 1    
    33   14   15 ar   
    34   14   46 1    
    35   15   16 ar   
    36   15   29 1    
    37   16   17 ar   
    38   16   47 1    
    39   17   18 ar   
    40   18   23 ar   
    41   18   19 ar   
    42   19   20 ar   
    43   20   21 ar   
    44   20   48 1    
    45   21   22 ar   
    46   21   49 1    
    47   22   27 1    
    48   22   23 ar   
    49   23   24 1    
    50   24   25 2    
    51   24   26 am   BACKBONE|DICT|INTERRES
    52   26   27 am   BACKBONE|DICT|INTERRES
    53   26   50 1    
    54   27   28 2    
    55   29   51 1    
@<TRIPOS>SUBSTRUCTURE
     1 UNK         1 GROUP             0       ****    0 ROOT    
