@<TRIPOS>MOLECULE
CHEMBL362862_125
73   77    1
SMALL
USER_CHARGES


@<TRIPOS>ATOM
      1 C1          6.6719   54.2359   27.6307 C.3       1 UNK         0.0000 
      2 N2          5.2606   54.1159   27.2052 N.pl3     1 UNK         0.0000 
      3 C3          4.9804   54.2077   25.8101 C.ar      1 UNK         0.0000 
      4 C4          3.6556   54.0599   25.3732 C.ar      1 UNK         0.0000 
      5 C5          2.6161   53.8604   26.3827 C.ar      1 UNK         0.0000 
      6 C6          2.9236   53.8062   27.6986 C.ar      1 UNK         0.0000 
      7 C7          4.3118   53.9009   28.1770 C.ar      1 UNK         0.0000 
      8 O8          4.5742   53.8055   29.3764 O.2       1 UNK         0.0000 
      9 C9          1.8388   53.6427   28.6996 C.ar      1 UNK         0.0000 
     10 C10         1.4755   54.7074   29.5487 C.ar      1 UNK         0.0000 
     11 C11         0.5399   54.5088   30.5636 C.ar      1 UNK         0.0000 
     12 C12        -0.0829   53.2747   30.7183 C.ar      1 UNK         0.0000 
     13 C13         0.2115   52.2395   29.8414 C.ar      1 UNK         0.0000 
     14 C14         1.1734   52.4078   28.8464 C.ar      1 UNK         0.0000 
     15 Cl15        1.5052   51.0615   27.8155 Cl        1 UNK         0.0000 
     16 Cl16        2.1697   56.2881   29.3891 Cl        1 UNK         0.0000 
     17 C17         3.4145   54.0957   24.0025 C.ar      1 UNK         0.0000 
     18 N18         4.4153   54.3014   23.1121 N.ar      1 UNK         0.0000 
     19 C19         5.6643   54.4967   23.6133 C.ar      1 UNK         0.0000 
     20 N20         5.9963   54.4390   24.9264 N.ar      1 UNK         0.0000 
     21 N21         6.7049   54.8987   22.7662 N.pl3     1 UNK         0.0000 
     22 C22         6.7864   55.2858   21.4165 C.ar      1 UNK         0.0000 
     23 C23         8.0367   55.6970   20.9506 C.ar      1 UNK         0.0000 
     24 C24         8.2152   56.0857   19.6267 C.ar      1 UNK         0.0000 
     25 C25         7.1295   56.0749   18.7494 C.ar      1 UNK         0.0000 
     26 C26         5.8780   55.6527   19.1991 C.ar      1 UNK         0.0000 
     27 C27         5.7101   55.2519   20.5219 C.ar      1 UNK         0.0000 
     28 C28         7.2972   56.5216   17.3039 C.3       1 UNK         0.0000 
     29 C29         7.1413   55.3764   16.2839 C.3       1 UNK         0.0000 
     30 C30         8.2861   54.3430   16.3482 C.3       1 UNK         0.0000 
     31 C31         8.0743   53.1287   15.4421 C.2       1 UNK         0.0000 
     32 O32         6.9707   52.5942   15.3137 O.2       1 UNK         0.0000 
     33 O33         9.2135   52.7414   14.8243 O.3       1 UNK         0.0000 
     34 C34         9.2510   51.5726   14.0060 C.3       1 UNK         0.0000 
     35 C35         9.3983   50.3087   14.8793 C.3       1 UNK         0.0000 
     36 N36        10.8831   50.1295   15.2710 N.4       1 UNK         0.0000 
     37 C37        11.6702   49.3812   14.1685 C.3       1 UNK         0.0000 
     38 C38        13.1255   49.1583   14.6255 C.3       1 UNK         0.0000 
     39 O39        13.1858   48.5610   15.9206 O.3       1 UNK         0.0000 
     40 C40        12.5408   49.2964   16.9575 C.3       1 UNK         0.0000 
     41 C41        11.0378   49.4633   16.6539 C.3       1 UNK         0.0000 
     42 H42         6.8324   54.0961   28.7009 H         1 UNK         0.0000 
     43 H43         7.2830   53.4921   27.1181 H         1 UNK         0.0000 
     44 H44         7.0562   55.2229   27.3725 H         1 UNK         0.0000 
     45 H45         1.5820   53.7800   26.0740 H         1 UNK         0.0000 
     46 H46         0.3013   55.3150   31.2390 H         1 UNK         0.0000 
     47 H47        -0.7963   53.1167   31.5158 H         1 UNK         0.0000 
     48 H48        -0.3049   51.2964   29.9507 H         1 UNK         0.0000 
     49 H49         2.4217   53.9622   23.5969 H         1 UNK         0.0000 
     50 H50         7.5847   54.9800   23.2632 H         1 UNK         0.0000 
     51 H51         8.8844   55.7175   21.6209 H         1 UNK         0.0000 
     52 H52         9.1935   56.4005   19.2928 H         1 UNK         0.0000 
     53 H53         5.0332   55.6320   18.5272 H         1 UNK         0.0000 
     54 H54         4.7275   54.9199   20.8131 H         1 UNK         0.0000 
     55 H55         8.2609   57.0169   17.1672 H         1 UNK         0.0000 
     56 H56         6.5485   57.2890   17.1036 H         1 UNK         0.0000 
     57 H57         7.1016   55.8031   15.2796 H         1 UNK         0.0000 
     58 H58         6.1745   54.8889   16.4326 H         1 UNK         0.0000 
     59 H59         8.3865   53.9668   17.3666 H         1 UNK         0.0000 
     60 H60         9.2357   54.8227   16.1074 H         1 UNK         0.0000 
     61 H61        10.0796   51.6620   13.3028 H         1 UNK         0.0000 
     62 H62         8.3433   51.5118   13.4008 H         1 UNK         0.0000 
     63 H63         9.0426   49.3928   14.4015 H         1 UNK         0.0000 
     64 H64         8.8533   50.4291   15.8189 H         1 UNK         0.0000 
     65 H65        11.6527   50.0129   13.2826 H         1 UNK         0.0000 
     66 H66        11.1589   48.4402   13.9589 H         1 UNK         0.0000 
     67 H67        13.6493   48.5195   13.9102 H         1 UNK         0.0000 
     68 H68        13.6501   50.1163   14.6394 H         1 UNK         0.0000 
     69 H69        12.7042   48.7891   17.9082 H         1 UNK         0.0000 
     70 H70        13.0049   50.2801   17.0518 H         1 UNK         0.0000 
     71 H71        10.4996   48.5185   16.6238 H         1 UNK         0.0000 
     72 H72        10.5773   50.1334   17.3860 H         1 UNK         0.0000 
     73 H73        11.2983   51.0494   15.3596 H         1 UNK         0.0000 
@<TRIPOS>BOND
     1    1    2 1    
     2    1   42 1    
     3    1   43 1    
     4    1   44 1    
     5    2    7 ar   
     6    2    3 ar   
     7    3   20 ar   
     8    3    4 ar   
     9    4    5 ar   
    10    4   17 ar   
    11    5    6 ar   
    12    5   45 1    
    13    6    7 ar   
    14    6    9 1    
    15    7    8 2    
    16    9   14 ar   
    17    9   10 ar   
    18   10   11 ar   
    19   10   16 1    
    20   11   12 ar   
    21   11   46 1    
    22   12   13 ar   
    23   12   47 1    
    24   13   14 ar   
    25   13   48 1    
    26   14   15 1    
    27   17   18 ar   
    28   17   49 1    
    29   18   19 ar   
    30   19   20 ar   
    31   19   21 1    
    32   21   22 1    
    33   21   50 1    
    34   22   27 ar   
    35   22   23 ar   
    36   23   24 ar   
    37   23   51 1    
    38   24   25 ar   
    39   24   52 1    
    40   25   26 ar   
    41   25   28 1    
    42   26   27 ar   
    43   26   53 1    
    44   27   54 1    
    45   28   29 1    
    46   28   55 1    
    47   28   56 1    
    48   29   30 1    
    49   29   57 1    
    50   29   58 1    
    51   30   31 1    
    52   30   59 1    
    53   30   60 1    
    54   31   32 2    
    55   31   33 1    
    56   33   34 1    
    57   34   35 1    
    58   34   61 1    
    59   34   62 1    
    60   35   36 1    
    61   35   63 1    
    62   35   64 1    
    63   36   41 1    
    64   36   37 1    
    65   36   73 1    
    66   37   38 1    
    67   37   65 1    
    68   37   66 1    
    69   38   39 1    
    70   38   67 1    
    71   38   68 1    
    72   39   40 1    
    73   40   41 1    
    74   40   69 1    
    75   40   70 1    
    76   41   71 1    
    77   41   72 1    
@<TRIPOS>SUBSTRUCTURE
     1 UNK         1 GROUP             0       ****    0 ROOT    
