CHEMBL486661_129
                    3D
 Schrodinger Suite 2024-2.
 59 64  0  0  1  0            999 V2000
    0.1093   51.8814   29.5048 C   0  0  0  0  0  0
   -0.1854   52.8226   30.4822 C   0  0  0  0  0  0
    0.3560   54.1037   30.4120 C   0  0  0  0  0  0
    1.2169   54.4451   29.3680 C   0  0  0  0  0  0
    1.5768   53.4747   28.4111 C   0  0  0  0  0  0
    1.0001   52.1997   28.4873 C   0  0  0  0  0  0
    2.5332   53.7406   27.3085 C   0  0  0  0  0  0
    2.0702   53.6245   25.9950 C   0  0  0  0  0  0
    2.9680   53.8428   24.9409 C   0  0  0  0  0  0
    4.3268   54.1850   25.1661 C   0  0  0  0  0  0
    4.9366   54.3694   23.9001 C   0  0  0  0  0  0
    6.2283   54.7502   23.4780 C   0  0  0  0  0  0
    6.4854   54.8965   22.1147 C   0  0  0  0  0  0
    5.5044   54.6024   21.1737 C   0  0  0  0  0  0
    4.2276   54.1796   21.5423 C   0  0  0  0  0  0
    3.9455   54.0964   22.9137 C   0  0  0  0  0  0
    2.7645   53.7816   23.5742 N   0  0  0  0  0  0
    1.4940   53.4351   22.9380 C   0  0  0  0  0  0
    1.4018   51.9417   22.5469 C   0  0  0  0  0  0
    1.4432   50.9376   23.7320 C   0  0  0  0  0  0
    0.2828   50.0423   23.7887 N   0  0  0  0  0  0
    0.2253   49.3427   25.0837 C   0  0  0  0  0  0
   -0.9385   48.3263   25.1539 C   0  0  0  0  0  0
   -0.8993   47.4256   24.0482 O   0  0  0  0  0  0
   -0.9227   48.0976   22.7914 C   0  0  0  0  0  0
    0.2605   49.0845   22.6740 C   0  0  0  0  0  0
    7.7225   55.3050   21.6819 O   0  0  0  0  0  0
    4.7570   54.2691   26.5036 C   0  0  0  0  0  0
    3.8788   54.0489   27.5350 C   0  0  0  0  0  0
    4.6465   54.1973   28.8059 C   0  0  0  0  0  0
    4.2481   54.0948   29.9640 O   0  0  0  0  0  0
    5.9015   54.4967   28.4308 N   0  0  0  0  0  0
    6.0712   54.5866   27.1020 C   0  0  0  0  0  0
    7.1044   54.8967   26.5325 O   0  0  0  0  0  0
    1.7874   56.0820   29.2818 Cl  0  0  0  0  0  0
   -0.3424   50.9008   29.5457 H   0  0  0  0  0  0
   -0.8621   52.5606   31.2809 H   0  0  0  0  0  0
    0.0943   54.8360   31.1603 H   0  0  0  0  0  0
    1.2458   51.4457   27.7526 H   0  0  0  0  0  0
    1.0382   53.3657   25.8133 H   0  0  0  0  0  0
    7.0128   54.9691   24.1799 H   0  0  0  0  0  0
    5.7385   54.7028   20.1234 H   0  0  0  0  0  0
    3.4825   53.9684   20.7889 H   0  0  0  0  0  0
    1.3680   54.0899   22.0813 H   0  0  0  0  0  0
    0.6814   53.6994   23.6141 H   0  0  0  0  0  0
    2.1912   51.6908   21.8365 H   0  0  0  0  0  0
    0.4792   51.8201   21.9786 H   0  0  0  0  0  0
    1.5048   51.4781   24.6721 H   0  0  0  0  0  0
    2.3472   50.3297   23.6709 H   0  0  0  0  0  0
    0.1244   50.0712   25.8896 H   0  0  0  0  0  0
    1.1663   48.8232   25.2711 H   0  0  0  0  0  0
   -0.8957   47.7558   26.0817 H   0  0  0  0  0  0
   -1.8865   48.8664   25.1581 H   0  0  0  0  0  0
   -0.8961   47.3615   21.9877 H   0  0  0  0  0  0
   -1.8601   48.6465   22.6854 H   0  0  0  0  0  0
    1.2034   48.5350   22.6567 H   0  0  0  0  0  0
    0.2061   49.6121   21.7218 H   0  0  0  0  0  0
    8.3876   55.3309   22.3833 H   0  0  0  0  0  0
    6.6373   54.7158   29.0884 H   0  0  0  0  0  0
  1  6  2  0  0  0
  1  2  1  0  0  0
  1 36  1  0  0  0
  2  3  2  0  0  0
  2 37  1  0  0  0
  3  4  1  0  0  0
  3 38  1  0  0  0
  4  5  2  0  0  0
  4 35  1  0  0  0
  5  6  1  0  0  0
  5  7  1  0  0  0
  6 39  1  0  0  0
  7 29  2  0  0  0
  7  8  1  0  0  0
  8  9  2  0  0  0
  8 40  1  0  0  0
  9 17  1  0  0  0
  9 10  1  0  0  0
 10 11  1  0  0  0
 10 28  2  0  0  0
 11 16  2  0  0  0
 11 12  1  0  0  0
 12 13  2  0  0  0
 12 41  1  0  0  0
 13 14  1  0  0  0
 13 27  1  0  0  0
 14 15  2  0  0  0
 14 42  1  0  0  0
 15 16  1  0  0  0
 15 43  1  0  0  0
 16 17  1  0  0  0
 17 18  1  0  0  0
 18 19  1  0  0  0
 18 44  1  0  0  0
 18 45  1  0  0  0
 19 20  1  0  0  0
 19 46  1  0  0  0
 19 47  1  0  0  0
 20 21  1  0  0  0
 20 48  1  0  0  0
 20 49  1  0  0  0
 21 26  1  0  0  0
 21 22  1  0  0  0
 22 23  1  0  0  0
 22 50  1  0  0  0
 22 51  1  0  0  0
 23 24  1  0  0  0
 23 52  1  0  0  0
 23 53  1  0  0  0
 24 25  1  0  0  0
 25 26  1  0  0  0
 25 54  1  0  0  0
 25 55  1  0  0  0
 26 56  1  0  0  0
 26 57  1  0  0  0
 27 58  1  0  0  0
 28 33  1  0  0  0
 28 29  1  0  0  0
 29 30  1  0  0  0
 30 31  2  0  0  0
 30 32  1  0  0  0
 32 33  1  0  0  0
 32 59  1  0  0  0
 33 34  2  0  0  0
M  END
> <i_i_glide_confnum>
115

> <i_i_glide_lignum>
130

> <i_i_glide_posenum>
383

> <i_i_glide_rotatable_bonds>
6

> <i_m_Source_File_Index>
62

> <b_m_subgroup_collapsed>
0

> <r_i_docking_score>
-11.8138

> <r_i_glide_ecoul>
-14.6177

> <r_i_glide_eff_state_penalty>
0

> <r_i_glide_einternal>
3.83868

> <r_i_glide_emodel>
-118.879

> <r_i_glide_energy>
-70.4688

> <r_i_glide_erotb>
0.339047

> <r_i_glide_esite>
0

> <r_i_glide_evdw>
-55.8511

> <r_i_glide_gscore>
-11.8138

> <r_i_glide_hbond>
-0.93189

> <r_i_glide_ligand_efficiency>
-0.337536

> <r_i_glide_ligand_efficiency_ln>
-2.59338

> <r_i_glide_ligand_efficiency_sa>
-1.1041

> <r_i_glide_lipo>
-4.03243

> <r_i_glide_metal>
0

> <r_i_glide_rewards>
-2.20329

> <s_i_glide_gridfile>
wee1_glide-grid

> <s_m_Source_File>
wee1_actives_glide_SP.sdf

> <s_m_Source_Path>
/Users/zhangxujun/Desktop

> <s_m_entry_id>
200

> <s_m_entry_name>
wee1_actives_glide_SP.62

> <s_m_subgroup_title>
wee1_actives_glide_SP

> <s_m_subgroupid>
wee1_actives_glide_SP


$$$$
