@<TRIPOS>MOLECULE
CHEMBL519238_126
54   59    1
SMALL
USER_CHARGES


@<TRIPOS>ATOM
      1 C1         -0.1054   52.7904   30.4470 C.ar      1 UNK         0.0000 
      2 C2          0.5188   54.0312   30.3736 C.ar      1 UNK         0.0000 
      3 C3          1.3531   54.3115   29.2966 C.ar      1 UNK         0.0000 
      4 C4          1.5920   53.3432   28.3127 C.ar      1 UNK         0.0000 
      5 C5          0.9208   52.1173   28.3810 C.ar      1 UNK         0.0000 
      6 C6          0.0629   51.8457   29.4400 C.ar      1 UNK         0.0000 
      7 C7          2.5501   53.6020   27.2051 C.ar      1 UNK         0.0000 
      8 C8          2.0980   53.4763   25.8860 C.ar      1 UNK         0.0000 
      9 C9          2.9914   53.7420   24.8324 C.ar      1 UNK         0.0000 
     10 C10         4.3465   54.0967   25.0746 C.ar      1 UNK         0.0000 
     11 C11         4.9677   54.2962   23.8196 C.ar      1 UNK         0.0000 
     12 C12         6.2736   54.6628   23.4275 C.ar      1 UNK         0.0000 
     13 C13         6.5421   54.8967   22.0813 C.ar      1 UNK         0.0000 
     14 C14         5.5523   54.7198   21.1232 C.ar      1 UNK         0.0000 
     15 C15         4.2636   54.3106   21.4591 C.ar      1 UNK         0.0000 
     16 C16         3.9726   54.1040   22.8173 C.ar      1 UNK         0.0000 
     17 N17         2.7863   53.7497   23.4579 N.pl3     1 UNK         0.0000 
     18 C18         1.4741   53.5422   22.8260 C.3       1 UNK         0.0000 
     19 C19         1.4470   52.4907   21.6918 C.3       1 UNK         0.0000 
     20 C20         2.0821   51.1289   22.0427 C.3       1 UNK         0.0000 
     21 N21         2.1284   50.2681   20.8693 N.pl3     1 UNK         0.0000 
     22 C22         1.3716   49.1235   20.6464 C.ar      1 UNK         0.0000 
     23 C23         1.7332   48.5898   19.4105 C.ar      1 UNK         0.0000 
     24 N24         2.7044   49.4217   18.8817 N.pl3     1 UNK         0.0000 
     25 C25         2.9344   50.4524   19.7636 C.ar      1 UNK         0.0000 
     26 O26         7.7931   55.2967   21.6817 O.3       1 UNK         0.0000 
     27 C27         4.7679   54.1928   26.4155 C.ar      1 UNK         0.0000 
     28 C28         3.8852   53.9564   27.4405 C.ar      1 UNK         0.0000 
     29 C29         4.6374   54.1545   28.7168 C.2       1 UNK         0.0000 
     30 O30         4.2403   54.0560   29.8750 O.2       1 UNK         0.0000 
     31 N31         5.8834   54.4967   28.3524 N.am      1 UNK         0.0000 
     32 C32         6.0680   54.5629   27.0258 C.2       1 UNK         0.0000 
     33 O33         7.1044   54.8967   26.4725 O.2       1 UNK         0.0000 
     34 H34        -0.7513   52.5602   31.2817 H         1 UNK         0.0000 
     35 H35         0.3611   54.7664   31.1494 H         1 UNK         0.0000 
     36 H36         1.8449   55.2724   29.2463 H         1 UNK         0.0000 
     37 H37         1.0757   51.3625   27.6231 H         1 UNK         0.0000 
     38 H38        -0.4531   50.8968   29.4948 H         1 UNK         0.0000 
     39 H39         1.0685   53.2072   25.7063 H         1 UNK         0.0000 
     40 H40         7.0622   54.8085   24.1431 H         1 UNK         0.0000 
     41 H41         5.7877   54.9074   20.0854 H         1 UNK         0.0000 
     42 H42         3.5220   54.2178   20.6826 H         1 UNK         0.0000 
     43 H43         1.1338   54.5170   22.4816 H         1 UNK         0.0000 
     44 H44         0.7612   53.2265   23.5852 H         1 UNK         0.0000 
     45 H45         1.9058   52.8967   20.7936 H         1 UNK         0.0000 
     46 H46         0.4055   52.3292   21.4086 H         1 UNK         0.0000 
     47 H47         1.5428   50.6287   22.8491 H         1 UNK         0.0000 
     48 H48         3.1044   51.2517   22.3979 H         1 UNK         0.0000 
     49 H49         0.6553   48.7931   21.3854 H         1 UNK         0.0000 
     50 H50         1.4040   47.7134   18.8685 H         1 UNK         0.0000 
     51 H51         3.6547   51.2472   19.6162 H         1 UNK         0.0000 
     52 H52         8.4475   55.2967   22.3942 H         1 UNK         0.0000 
     53 H53         6.6053   54.7486   29.0140 H         1 UNK         0.0000 
     54 H54         3.2055   49.2967   17.9863 H         1 UNK         0.0000 
@<TRIPOS>BOND
     1    1    6 ar   
     2    1    2 ar   
     3    1   34 1    
     4    2    3 ar   
     5    2   35 1    
     6    3    4 ar   
     7    3   36 1    
     8    4    5 ar   
     9    4    7 1    
    10    5    6 ar   
    11    5   37 1    
    12    6   38 1    
    13    7   28 ar   
    14    7    8 ar   
    15    8    9 ar   
    16    8   39 1    
    17    9   17 ar   
    18    9   10 ar   
    19   10   11 ar   
    20   10   27 ar   
    21   11   16 ar   
    22   11   12 ar   
    23   12   13 ar   
    24   12   40 1    
    25   13   14 ar   
    26   13   26 1    
    27   14   15 ar   
    28   14   41 1    
    29   15   16 ar   
    30   15   42 1    
    31   16   17 ar   
    32   17   18 1    
    33   18   19 1    
    34   18   43 1    
    35   18   44 1    
    36   19   20 1    
    37   19   45 1    
    38   19   46 1    
    39   20   21 1    
    40   20   47 1    
    41   20   48 1    
    42   21   25 ar   
    43   21   22 ar   
    44   22   23 ar   
    45   22   49 1    
    46   23   24 ar   
    47   23   50 1    
    48   24   25 ar   
    49   24   54 1    
    50   25   51 1    
    51   26   52 1    
    52   27   32 1    
    53   27   28 ar   
    54   28   29 1    
    55   29   30 2    
    56   29   31 am   BACKBONE|DICT|INTERRES
    57   31   32 am   BACKBONE|DICT|INTERRES
    58   31   53 1    
    59   32   33 2    
@<TRIPOS>SUBSTRUCTURE
     1 UNK         1 GROUP             0       ****    0 ROOT    
