CHEMBL486828_87
                    3D
 Schrodinger Suite 2024-2.
 60 65  0  0  1  0            999 V2000
   -0.2230   52.8370   30.4786 C   0  0  0  0  0  0
    0.0056   51.8782   29.5058 C   0  0  0  0  0  0
    0.8798   52.1426   28.4598 C   0  0  0  0  0  0
    1.5294   53.3920   28.3675 C   0  0  0  0  0  0
    1.2003   54.3906   29.3091 C   0  0  0  0  0  0
    0.3522   54.0971   30.3750 C   0  0  0  0  0  0
    1.7828   56.0190   29.1730 Cl  0  0  0  0  0  0
    2.5225   53.6487   27.2864 C   0  0  0  0  0  0
    2.0921   53.5576   25.9624 C   0  0  0  0  0  0
    3.0131   53.8020   24.9374 C   0  0  0  0  0  0
    4.3664   54.1366   25.1935 C   0  0  0  0  0  0
    4.9974   54.3362   23.9403 C   0  0  0  0  0  0
    6.3038   54.6987   23.5480 C   0  0  0  0  0  0
    6.5780   54.8970   22.1950 C   0  0  0  0  0  0
    5.5939   54.6968   21.2342 C   0  0  0  0  0  0
    4.3033   54.2976   21.5728 C   0  0  0  0  0  0
    4.0106   54.1263   22.9332 C   0  0  0  0  0  0
    2.8237   53.7923   23.5725 N   0  0  0  0  0  0
    1.5433   53.4750   22.9507 C   0  0  0  0  0  0
    1.3870   51.9638   22.6612 C   0  0  0  0  0  0
    2.2974   51.3778   21.5593 C   0  0  0  0  0  0
    2.0861   52.0675   20.1863 N   0  3  0  0  0  0
    0.6407   51.9364   19.6525 C   0  0  0  0  0  0
    0.5533   52.6139   18.2716 C   0  0  0  0  0  0
    1.5121   52.0677   17.3726 O   0  0  0  0  0  0
    2.8725   52.1741   17.7874 C   0  0  0  0  0  0
    3.1031   51.5105   19.1589 C   0  0  0  0  0  0
    7.8270   55.2979   21.7931 O   0  0  0  0  0  0
    4.7660   54.2128   26.5408 C   0  0  0  0  0  0
    3.8631   53.9670   27.5474 C   0  0  0  0  0  0
    4.5978   54.1149   28.8372 C   0  0  0  0  0  0
    4.1734   53.9773   29.9827 O   0  0  0  0  0  0
    5.8503   54.4687   28.4983 N   0  0  0  0  0  0
    6.0580   54.5622   27.1752 C   0  0  0  0  0  0
    7.1044   54.8959   26.6376 O   0  0  0  0  0  0
    1.1045   50.8832   27.2962 Cl  0  0  0  0  0  0
   -0.8954   52.6020   31.2817 H   0  0  0  0  0  0
   -0.4921   50.9197   29.5720 H   0  0  0  0  0  0
    0.1220   54.8533   31.1116 H   0  0  0  0  0  0
    1.0649   53.3032   25.7483 H   0  0  0  0  0  0
    7.0842   54.8631   24.2701 H   0  0  0  0  0  0
    5.8366   54.8611   20.1939 H   0  0  0  0  0  0
    3.5566   54.1842   20.8042 H   0  0  0  0  0  0
    1.4446   54.0984   22.0793 H   0  0  0  0  0  0
    0.7386   53.8157   23.6032 H   0  0  0  0  0  0
    0.3442   51.7454   22.4347 H   0  0  0  0  0  0
    1.5759   51.4119   23.5838 H   0  0  0  0  0  0
    2.1107   50.3130   21.4018 H   0  0  0  0  0  0
    3.3526   51.5135   21.8045 H   0  0  0  0  0  0
   -0.0153   52.4528   20.3517 H   0  0  0  0  0  0
    0.3923   50.8737   19.6140 H   0  0  0  0  0  0
   -0.4420   52.4859   17.8448 H   0  0  0  0  0  0
    0.7208   53.6885   18.3754 H   0  0  0  0  0  0
    3.5063   51.7002   17.0355 H   0  0  0  0  0  0
    3.1610   53.2260   17.8367 H   0  0  0  0  0  0
    2.9873   50.4256   19.1033 H   0  0  0  0  0  0
    4.1017   51.7511   19.5279 H   0  0  0  0  0  0
    8.4740   55.2969   22.5174 H   0  0  0  0  0  0
    6.5637   54.7027   29.1756 H   0  0  0  0  0  0
    2.2716   53.0586   20.2823 H   0  0  0  0  0  0
  1  6  2  0  0  0
  1  2  1  0  0  0
  1 37  1  0  0  0
  2  3  2  0  0  0
  2 38  1  0  0  0
  3  4  1  0  0  0
  3 36  1  0  0  0
  4  5  2  0  0  0
  4  8  1  0  0  0
  5  6  1  0  0  0
  5  7  1  0  0  0
  6 39  1  0  0  0
  8 30  2  0  0  0
  8  9  1  0  0  0
  9 10  2  0  0  0
  9 40  1  0  0  0
 10 18  1  0  0  0
 10 11  1  0  0  0
 11 12  1  0  0  0
 11 29  2  0  0  0
 12 17  2  0  0  0
 12 13  1  0  0  0
 13 14  2  0  0  0
 13 41  1  0  0  0
 14 15  1  0  0  0
 14 28  1  0  0  0
 15 16  2  0  0  0
 15 42  1  0  0  0
 16 17  1  0  0  0
 16 43  1  0  0  0
 17 18  1  0  0  0
 18 19  1  0  0  0
 19 20  1  0  0  0
 19 44  1  0  0  0
 19 45  1  0  0  0
 20 21  1  0  0  0
 20 46  1  0  0  0
 20 47  1  0  0  0
 21 22  1  0  0  0
 21 48  1  0  0  0
 21 49  1  0  0  0
 22 27  1  0  0  0
 22 23  1  0  0  0
 22 60  1  0  0  0
 23 24  1  0  0  0
 23 50  1  0  0  0
 23 51  1  0  0  0
 24 25  1  0  0  0
 24 52  1  0  0  0
 24 53  1  0  0  0
 25 26  1  0  0  0
 26 27  1  0  0  0
 26 54  1  0  0  0
 26 55  1  0  0  0
 27 56  1  0  0  0
 27 57  1  0  0  0
 28 58  1  0  0  0
 29 34  1  0  0  0
 29 30  1  0  0  0
 30 31  1  0  0  0
 31 32  2  0  0  0
 31 33  1  0  0  0
 33 34  1  0  0  0
 33 59  1  0  0  0
 34 35  2  0  0  0
M  CHG  1  22   1
M  END
> <i_i_glide_confnum>
30

> <i_i_glide_lignum>
88

> <i_i_glide_posenum>
223

> <i_i_glide_rotatable_bonds>
6

> <i_m_Source_File_Index>
31

> <b_m_subgroup_collapsed>
0

> <r_i_docking_score>
-11.6961

> <r_i_glide_ecoul>
-15.5481

> <r_i_glide_eff_state_penalty>
0

> <r_i_glide_einternal>
2.74707

> <r_i_glide_emodel>
-118.873

> <r_i_glide_energy>
-67.9167

> <r_i_glide_erotb>
0.298246

> <r_i_glide_esite>
-0.0192347

> <r_i_glide_evdw>
-52.3686

> <r_i_glide_gscore>
-11.6961

> <r_i_glide_hbond>
-0.936747

> <r_i_glide_ligand_efficiency>
-0.324891

> <r_i_glide_ligand_efficiency_ln>
-2.55177

> <r_i_glide_ligand_efficiency_sa>
-1.07277

> <r_i_glide_lipo>
-3.98383

> <r_i_glide_metal>
0

> <r_i_glide_rewards>
-2.10386

> <s_i_glide_gridfile>
wee1_glide-grid

> <s_m_Source_File>
wee1_actives_glide_SP.sdf

> <s_m_Source_Path>
/Users/zhangxujun/Desktop

> <s_m_entry_id>
169

> <s_m_entry_name>
wee1_actives_glide_SP.31

> <s_m_subgroup_title>
wee1_actives_glide_SP

> <s_m_subgroupid>
wee1_actives_glide_SP


$$$$
