CHEMBL178510_25
                    3D
 Schrodinger Suite 2024-2.
 55 59  0  0  1  0            999 V2000
    2.3783   53.6990   24.4122 C   0  0  0  0  0  0
    3.0357   53.9190   25.7178 N   0  0  0  0  0  0
    4.4049   54.3058   25.7060 C   0  0  0  0  0  0
    5.0739   54.4968   26.9227 C   0  0  0  0  0  0
    4.3038   54.3574   28.1580 C   0  0  0  0  0  0
    3.0019   53.9915   28.1154 C   0  0  0  0  0  0
    2.3020   53.6941   26.8572 C   0  0  0  0  0  0
    1.1380   53.2857   26.8443 O   0  0  0  0  0  0
    2.2286   53.8239   29.3677 C   0  0  0  0  0  0
    2.3393   52.6362   30.1086 C   0  0  0  0  0  0
    1.5095   52.4129   31.2085 C   0  0  0  0  0  0
    0.5545   53.3549   31.5729 C   0  0  0  0  0  0
    0.4757   54.5566   30.8779 C   0  0  0  0  0  0
    1.3209   54.8082   29.7956 C   0  0  0  0  0  0
    1.2293   56.3516   29.0129 Cl  0  0  0  0  0  0
    3.5044   51.4330   29.6819 Cl  0  0  0  0  0  0
    6.4398   54.7619   26.8703 C   0  0  0  0  0  0
    7.1037   54.8545   25.6905 N   0  0  0  0  0  0
    6.3775   54.6908   24.5561 C   0  0  0  0  0  0
    5.0467   54.4345   24.5136 N   0  0  0  0  0  0
    7.1044   54.8180   23.3707 N   0  0  0  0  0  0
    6.7491   54.9917   22.0253 C   0  0  0  0  0  0
    7.7404   55.5205   21.2011 C   0  0  0  0  0  0
    7.4981   55.7371   19.8513 C   0  0  0  0  0  0
    6.2441   55.4500   19.3140 C   0  0  0  0  0  0
    5.2508   54.8955   20.1251 C   0  0  0  0  0  0
    5.5043   54.6586   21.4767 C   0  0  0  0  0  0
    5.9647   55.7549   17.8465 C   0  0  0  0  0  0
    5.4160   57.1817   17.5898 C   0  0  0  0  0  0
    6.2792   58.3692   18.0952 C   0  0  0  0  0  0
    7.5303   58.7490   17.2576 C   0  0  0  0  0  0
    8.3277   59.6964   17.9623 N   0  0  0  0  0  0
    9.4520   59.1564   18.0838 N   0  0  0  0  0  0
    9.5007   58.0016   17.5648 N   0  0  0  0  0  0
    8.4149   57.6544   17.0427 N   0  0  0  0  0  0
    1.3254   53.4217   24.4816 H   0  0  0  0  0  0
    2.4347   54.6019   23.8067 H   0  0  0  0  0  0
    2.8878   52.9028   23.8666 H   0  0  0  0  0  0
    4.7759   54.5510   29.1123 H   0  0  0  0  0  0
    1.5968   51.5069   31.7891 H   0  0  0  0  0  0
   -0.0953   53.1708   32.4167 H   0  0  0  0  0  0
   -0.2396   55.2966   31.1951 H   0  0  0  0  0  0
    7.0225   54.8941   27.7721 H   0  0  0  0  0  0
    8.1103   54.9083   23.5302 H   0  0  0  0  0  0
    8.7124   55.7684   21.6042 H   0  0  0  0  0  0
    8.2850   56.1451   19.2354 H   0  0  0  0  0  0
    4.2796   54.6592   19.7168 H   0  0  0  0  0  0
    4.7202   54.2251   22.0736 H   0  0  0  0  0  0
    5.2517   55.0190   17.4694 H   0  0  0  0  0  0
    6.8672   55.5705   17.2623 H   0  0  0  0  0  0
    4.4348   57.2471   18.0631 H   0  0  0  0  0  0
    5.2257   57.3061   16.5244 H   0  0  0  0  0  0
    6.5478   58.2097   19.1388 H   0  0  0  0  0  0
    5.6369   59.2531   18.1092 H   0  0  0  0  0  0
    7.2363   59.1735   16.2932 H   0  0  0  0  0  0
  1  2  1  0  0  0
  1 36  1  0  0  0
  1 37  1  0  0  0
  1 38  1  0  0  0
  2  7  1  0  0  0
  2  3  1  0  0  0
  3 20  2  0  0  0
  3  4  1  0  0  0
  4  5  1  0  0  0
  4 17  2  0  0  0
  5  6  2  0  0  0
  5 39  1  0  0  0
  6  7  1  0  0  0
  6  9  1  0  0  0
  7  8  2  0  0  0
  9 14  2  0  0  0
  9 10  1  0  0  0
 10 11  2  0  0  0
 10 16  1  0  0  0
 11 12  1  0  0  0
 11 40  1  0  0  0
 12 13  2  0  0  0
 12 41  1  0  0  0
 13 14  1  0  0  0
 13 42  1  0  0  0
 14 15  1  0  0  0
 17 18  1  0  0  0
 17 43  1  0  0  0
 18 19  2  0  0  0
 19 20  1  0  0  0
 19 21  1  0  0  0
 21 22  1  0  0  0
 21 44  1  0  0  0
 22 27  2  0  0  0
 22 23  1  0  0  0
 23 24  2  0  0  0
 23 45  1  0  0  0
 24 25  1  0  0  0
 24 46  1  0  0  0
 25 26  2  0  0  0
 25 28  1  0  0  0
 26 27  1  0  0  0
 26 47  1  0  0  0
 27 48  1  0  0  0
 28 29  1  0  0  0
 28 49  1  0  0  0
 28 50  1  0  0  0
 29 30  1  0  0  0
 29 51  1  0  0  0
 29 52  1  0  0  0
 30 31  1  0  0  0
 30 53  1  0  0  0
 30 54  1  0  0  0
 31 35  1  0  0  0
 31 32  1  0  0  0
 31 55  1  0  0  0
 32 33  2  0  0  0
 33 34  1  0  0  0
 34 35  2  0  0  0
M  END
> <i_i_glide_confnum>
104

> <i_i_glide_lignum>
26

> <i_i_glide_posenum>
8

> <i_i_glide_rotatable_bonds>
7

> <i_m_Source_File_Index>
58

> <b_m_subgroup_collapsed>
0

> <r_i_docking_score>
-10.0813

> <r_i_glide_ecoul>
-10.516

> <r_i_glide_eff_state_penalty>
0

> <r_i_glide_einternal>
1.43762

> <r_i_glide_emodel>
-94.1911

> <r_i_glide_energy>
-58.6645

> <r_i_glide_erotb>
0.333911

> <r_i_glide_esite>
-0.170244

> <r_i_glide_evdw>
-48.1484

> <r_i_glide_gscore>
-10.0813

> <r_i_glide_hbond>
-0.608

> <r_i_glide_ligand_efficiency>
-0.288038

> <r_i_glide_ligand_efficiency_ln>
-2.21308

> <r_i_glide_ligand_efficiency_sa>
-0.942191

> <r_i_glide_lipo>
-3.56945

> <r_i_glide_metal>
0

> <r_i_glide_rewards>
-2.08273

> <s_i_glide_gridfile>
wee1_glide-grid

> <s_m_Source_File>
wee1_actives_glide_SP.sdf

> <s_m_Source_Path>
/Users/zhangxujun/Desktop

> <s_m_entry_id>
196

> <s_m_entry_name>
wee1_actives_glide_SP.58

> <s_m_subgroup_title>
wee1_actives_glide_SP

> <s_m_subgroupid>
wee1_actives_glide_SP


$$$$
