@<TRIPOS>MOLECULE
CHEMBL459889_98
45   49    1
SMALL
USER_CHARGES


@<TRIPOS>ATOM
      1 C1          0.6081   54.2681   30.3962 C.ar      1 UNK         0.0000 
      2 C2         -0.0955   53.0776   30.5360 C.ar      1 UNK         0.0000 
      3 C3         -0.0598   52.1224   29.5264 C.ar      1 UNK         0.0000 
      4 C4          0.7328   52.3218   28.3965 C.ar      1 UNK         0.0000 
      5 C5          1.5202   53.4872   28.2747 C.ar      1 UNK         0.0000 
      6 C6          1.3913   54.4751   29.2640 C.ar      1 UNK         0.0000 
      7 C7          2.4999   53.6956   27.1623 C.ar      1 UNK         0.0000 
      8 C8          2.0647   53.6044   25.8328 C.ar      1 UNK         0.0000 
      9 C9          2.9905   53.8157   24.7972 C.ar      1 UNK         0.0000 
     10 C10         4.3490   54.1398   25.0549 C.ar      1 UNK         0.0000 
     11 C11         4.9894   54.3304   23.8057 C.ar      1 UNK         0.0000 
     12 C12         6.2961   54.7046   23.4219 C.ar      1 UNK         0.0000 
     13 C13         6.5796   54.8968   22.0717 C.ar      1 UNK         0.0000 
     14 C14         5.6125   54.6547   21.1023 C.ar      1 UNK         0.0000 
     15 C15         4.3266   54.2283   21.4306 C.ar      1 UNK         0.0000 
     16 C16         4.0155   54.0967   22.7928 C.ar      1 UNK         0.0000 
     17 N17         2.8170   53.7822   23.4219 N.pl3     1 UNK         0.0000 
     18 C18         1.5394   53.5403   22.7517 C.3       1 UNK         0.0000 
     19 C19         0.9841   52.1083   22.9914 C.3       1 UNK         0.0000 
     20 C20        -0.5357   52.1202   23.2081 C.2       1 UNK         0.0000 
     21 O21        -0.9875   52.8949   24.0798 O.co2     1 UNK         0.0000 
     22 O22        -1.2265   51.3768   22.4793 O.co2     1 UNK         0.0000 
     23 O23         7.8280   55.3125   21.6816 O.3       1 UNK         0.0000 
     24 C24         4.7524   54.2254   26.4000 C.ar      1 UNK         0.0000 
     25 C25         3.8504   53.9990   27.4129 C.ar      1 UNK         0.0000 
     26 C26         4.6053   54.1471   28.6967 C.2       1 UNK         0.0000 
     27 O27         4.2079   54.0203   29.8524 O.2       1 UNK         0.0000 
     28 N28         5.8575   54.4819   28.3469 N.am      1 UNK         0.0000 
     29 C29         6.0552   54.5648   27.0237 C.2       1 UNK         0.0000 
     30 O30         7.1041   54.8875   26.4840 O.2       1 UNK         0.0000 
     31 Cl31        0.7054   51.0830   27.1912 Cl        1 UNK         0.0000 
     32 H32         0.5582   55.0225   31.1679 H         1 UNK         0.0000 
     33 H33        -0.6950   52.8984   31.4149 H         1 UNK         0.0000 
     34 H34        -0.6426   51.2168   29.6271 H         1 UNK         0.0000 
     35 H35         1.9501   55.3964   29.1825 H         1 UNK         0.0000 
     36 H36         1.0313   53.3778   25.6143 H         1 UNK         0.0000 
     37 H37         7.0699   54.8915   24.1445 H         1 UNK         0.0000 
     38 H38         5.8660   54.7953   20.0614 H         1 UNK         0.0000 
     39 H39         3.5981   54.0570   20.6509 H         1 UNK         0.0000 
     40 H40         0.8672   54.3279   23.0949 H         1 UNK         0.0000 
     41 H41         1.6589   53.6962   21.6818 H         1 UNK         0.0000 
     42 H42         1.2138   51.4828   22.1276 H         1 UNK         0.0000 
     43 H43         1.4537   51.6105   23.8402 H         1 UNK         0.0000 
     44 H44         8.4695   55.3228   22.4053 H         1 UNK         0.0000 
     45 H45         6.5787   54.7070   29.0181 H         1 UNK         0.0000 
@<TRIPOS>BOND
     1    1    6 ar   
     2    1    2 ar   
     3    1   32 1    
     4    2    3 ar   
     5    2   33 1    
     6    3    4 ar   
     7    3   34 1    
     8    4    5 ar   
     9    4   31 1    
    10    5    6 ar   
    11    5    7 1    
    12    6   35 1    
    13    7   25 ar   
    14    7    8 ar   
    15    8    9 ar   
    16    8   36 1    
    17    9   17 ar   
    18    9   10 ar   
    19   10   11 ar   
    20   10   24 ar   
    21   11   16 ar   
    22   11   12 ar   
    23   12   13 ar   
    24   12   37 1    
    25   13   14 ar   
    26   13   23 1    
    27   14   15 ar   
    28   14   38 1    
    29   15   16 ar   
    30   15   39 1    
    31   16   17 ar   
    32   17   18 1    
    33   18   19 1    
    34   18   40 1    
    35   18   41 1    
    36   19   20 1    
    37   19   42 1    
    38   19   43 1    
    39   20   21 2    
    40   20   22 1    
    41   23   44 1    
    42   24   29 1    
    43   24   25 ar   
    44   25   26 1    
    45   26   27 2    
    46   26   28 am   BACKBONE|DICT|INTERRES
    47   28   29 am   BACKBONE|DICT|INTERRES
    48   28   45 1    
    49   29   30 2    
@<TRIPOS>SUBSTRUCTURE
     1 UNK         1 GROUP             0       ****    0 ROOT    
