CHEMBL452078_50
                    3D
 Schrodinger Suite 2024-2.
 64 69  0  0  1  0            999 V2000
    1.9977   51.2680   15.9888 C   0  0  0  0  0  0
    2.3046   51.2943   17.4989 N   0  3  0  0  0  0
    1.8421   49.9934   18.1951 C   0  0  0  0  0  0
    2.3252   50.0387   19.6625 C   0  0  0  0  0  0
    1.7607   51.2014   20.3670 N   0  0  0  0  0  0
    2.0952   52.4567   19.6791 C   0  0  0  0  0  0
    1.6565   52.4949   18.2048 C   0  0  0  0  0  0
    2.2041   51.2154   21.7719 C   0  0  0  0  0  0
    1.2592   52.0090   22.7128 C   0  0  0  0  0  0
    1.5223   53.5245   22.9104 C   0  0  0  0  0  0
    2.8111   53.8061   23.5376 N   0  0  0  0  0  0
    3.9953   54.1516   22.8988 C   0  0  0  0  0  0
    4.2697   54.3730   21.5437 C   0  0  0  0  0  0
    5.5606   54.7513   21.1915 C   0  0  0  0  0  0
    6.5657   54.8985   22.1365 C   0  0  0  0  0  0
    6.3067   54.6705   23.4908 C   0  0  0  0  0  0
    4.9975   54.3212   23.8960 C   0  0  0  0  0  0
    4.3684   54.1208   25.1519 C   0  0  0  0  0  0
    3.0092   53.7974   24.9022 C   0  0  0  0  0  0
    2.0915   53.5562   25.9328 C   0  0  0  0  0  0
    2.5286   53.6475   27.2566 C   0  0  0  0  0  0
    3.8739   53.9536   27.5092 C   0  0  0  0  0  0
    4.7727   54.1941   26.4982 C   0  0  0  0  0  0
    6.0667   54.5456   27.1268 C   0  0  0  0  0  0
    7.1044   54.8938   26.5821 O   0  0  0  0  0  0
    5.8687   54.4454   28.4515 N   0  0  0  0  0  0
    4.6162   54.0964   28.7956 C   0  0  0  0  0  0
    4.1969   53.9590   29.9431 O   0  0  0  0  0  0
    1.5398   53.4111   28.3487 C   0  0  0  0  0  0
    1.2243   54.4214   29.2825 C   0  0  0  0  0  0
    0.3762   54.1481   30.3549 C   0  0  0  0  0  0
   -0.2129   52.8956   30.4759 C   0  0  0  0  0  0
    0.0097   51.9226   29.5149 C   0  0  0  0  0  0
    0.8832   52.1680   28.4615 C   0  0  0  0  0  0
    1.1044   50.8955   27.3122 Cl  0  0  0  0  0  0
    1.8245   56.0415   29.1279 Cl  0  0  0  0  0  0
    7.8077   55.2969   21.7057 O   0  0  0  0  0  0
    0.9386   51.0439   15.8487 H   0  0  0  0  0  0
    2.2609   52.2442   15.5797 H   0  0  0  0  0  0
    2.6439   50.4966   15.5602 H   0  0  0  0  0  0
    2.3042   49.1560   17.6742 H   0  0  0  0  0  0
    0.7568   49.9190   18.1048 H   0  0  0  0  0  0
    2.0418   49.1102   20.1605 H   0  0  0  0  0  0
    3.4152   50.1220   19.6647 H   0  0  0  0  0  0
    3.1822   52.5536   19.6958 H   0  0  0  0  0  0
    1.6319   53.2966   20.1734 H   0  0  0  0  0  0
    2.0508   53.3904   17.7218 H   0  0  0  0  0  0
    0.5747   52.4344   18.0720 H   0  0  0  0  0  0
    2.2725   50.1965   22.1592 H   0  0  0  0  0  0
    3.2185   51.6142   21.8244 H   0  0  0  0  0  0
    0.2437   51.9302   22.3211 H   0  0  0  0  0  0
    1.2421   51.5227   23.6896 H   0  0  0  0  0  0
    1.4722   54.0963   22.0010 H   0  0  0  0  0  0
    0.7394   53.9563   23.5350 H   0  0  0  0  0  0
    3.5051   54.3292   20.7903 H   0  0  0  0  0  0
    5.7827   54.9510   20.1529 H   0  0  0  0  0  0
    7.1014   54.8040   24.2047 H   0  0  0  0  0  0
    1.0604   53.3142   25.7206 H   0  0  0  0  0  0
    6.5845   54.6800   29.1258 H   0  0  0  0  0  0
    0.1560   54.9153   31.0825 H   0  0  0  0  0  0
   -0.8944   52.6836   31.2817 H   0  0  0  0  0  0
   -0.4941   50.9683   29.5946 H   0  0  0  0  0  0
    8.4757   55.2974   22.4065 H   0  0  0  0  0  0
    3.3156   51.3348   17.6017 H   0  0  0  0  0  0
  1  2  1  0  0  0
  1 38  1  0  0  0
  1 39  1  0  0  0
  1 40  1  0  0  0
  2  7  1  0  0  0
  2  3  1  0  0  0
  2 64  1  0  0  0
  3  4  1  0  0  0
  3 41  1  0  0  0
  3 42  1  0  0  0
  4  5  1  0  0  0
  4 43  1  0  0  0
  4 44  1  0  0  0
  5  6  1  0  0  0
  5  8  1  0  0  0
  6  7  1  0  0  0
  6 45  1  0  0  0
  6 46  1  0  0  0
  7 47  1  0  0  0
  7 48  1  0  0  0
  8  9  1  0  0  0
  8 49  1  0  0  0
  8 50  1  0  0  0
  9 10  1  0  0  0
  9 51  1  0  0  0
  9 52  1  0  0  0
 10 11  1  0  0  0
 10 53  1  0  0  0
 10 54  1  0  0  0
 11 19  1  0  0  0
 11 12  1  0  0  0
 12 17  2  0  0  0
 12 13  1  0  0  0
 13 14  2  0  0  0
 13 55  1  0  0  0
 14 15  1  0  0  0
 14 56  1  0  0  0
 15 16  2  0  0  0
 15 37  1  0  0  0
 16 17  1  0  0  0
 16 57  1  0  0  0
 17 18  1  0  0  0
 18 23  2  0  0  0
 18 19  1  0  0  0
 19 20  2  0  0  0
 20 21  1  0  0  0
 20 58  1  0  0  0
 21 22  2  0  0  0
 21 29  1  0  0  0
 22 27  1  0  0  0
 22 23  1  0  0  0
 23 24  1  0  0  0
 24 25  2  0  0  0
 24 26  1  0  0  0
 26 27  1  0  0  0
 26 59  1  0  0  0
 27 28  2  0  0  0
 29 34  2  0  0  0
 29 30  1  0  0  0
 30 31  2  0  0  0
 30 36  1  0  0  0
 31 32  1  0  0  0
 31 60  1  0  0  0
 32 33  2  0  0  0
 32 61  1  0  0  0
 33 34  1  0  0  0
 33 62  1  0  0  0
 34 35  1  0  0  0
 37 63  1  0  0  0
M  CHG  1   2   1
M  END
> <i_i_glide_confnum>
90

> <i_i_glide_lignum>
51

> <i_i_glide_posenum>
210

> <i_i_glide_rotatable_bonds>
6

> <i_m_Source_File_Index>
61

> <b_m_subgroup_collapsed>
0

> <r_i_docking_score>
-11.9149

> <r_i_glide_ecoul>
-16.6481

> <r_i_glide_eff_state_penalty>
0

> <r_i_glide_einternal>
3.36078

> <r_i_glide_emodel>
-124.336

> <r_i_glide_energy>
-68.2372

> <r_i_glide_erotb>
0.356346

> <r_i_glide_esite>
-0.0994387

> <r_i_glide_evdw>
-51.5891

> <r_i_glide_gscore>
-11.9149

> <r_i_glide_hbond>
-0.964867

> <r_i_glide_ligand_efficiency>
-0.322023

> <r_i_glide_ligand_efficiency_ln>
-2.58405

> <r_i_glide_ligand_efficiency_sa>
-1.07305

> <r_i_glide_lipo>
-3.99903

> <r_i_glide_metal>
0

> <r_i_glide_rewards>
-2.13119

> <s_i_glide_gridfile>
wee1_glide-grid

> <s_m_Source_File>
wee1_actives_glide_SP.sdf

> <s_m_Source_Path>
/Users/zhangxujun/Desktop

> <s_m_entry_id>
199

> <s_m_entry_name>
wee1_actives_glide_SP.61

> <s_m_subgroup_title>
wee1_actives_glide_SP

> <s_m_subgroupid>
wee1_actives_glide_SP


$$$$
