@<TRIPOS>MOLECULE
CHEMBL520182_134
35   38    1
SMALL
USER_CHARGES


@<TRIPOS>ATOM
      1 C1         -0.6171   51.7849   29.6125 C.ar      1 UNK         0.0000 
      2 C2         -0.6002   51.6973   28.2181 C.ar      1 UNK         0.0000 
      3 C3          0.4433   52.3462   27.5360 C.ar      1 UNK         0.0000 
      4 C4          1.4848   53.0104   28.2381 C.ar      1 UNK         0.0000 
      5 C5          1.4176   53.0846   29.6429 C.ar      1 UNK         0.0000 
      6 C6          0.3571   52.4840   30.3130 C.ar      1 UNK         0.0000 
      7 O7          0.3052   52.5608   31.6815 O.3       1 UNK         0.0000 
      8 C8          2.4346   53.4455   27.2857 C.ar      1 UNK         0.0000 
      9 C9          1.9036   53.1579   25.9917 C.ar      1 UNK         0.0000 
     10 N10         0.6914   52.4953   26.1747 N.pl3     1 UNK         0.0000 
     11 C11        -0.1675   51.9692   25.1020 C.3       1 UNK         0.0000 
     12 C12        -1.6398   52.4730   25.2117 C.3       1 UNK         0.0000 
     13 C13        -2.2819   52.8965   23.8815 C.2       1 UNK         0.0000 
     14 O14        -1.7871   52.4968   22.8052 O.co2     1 UNK         0.0000 
     15 O15        -3.2951   53.6240   23.9698 O.co2     1 UNK         0.0000 
     16 C16         2.5976   53.5115   24.8162 C.ar      1 UNK         0.0000 
     17 C17         3.8618   54.0966   24.9506 C.ar      1 UNK         0.0000 
     18 C18         4.4041   54.3291   26.2108 C.ar      1 UNK         0.0000 
     19 C19         3.7115   54.0441   27.3589 C.ar      1 UNK         0.0000 
     20 C20         4.5702   54.4537   28.4998 C.2       1 UNK         0.0000 
     21 O21         4.3213   54.4179   29.6988 O.2       1 UNK         0.0000 
     22 N22         5.7196   54.8910   27.9505 N.am      1 UNK         0.0000 
     23 C23         5.7360   54.8726   26.6041 C.2       1 UNK         0.0000 
     24 O24         6.6697   55.2418   25.8911 O.2       1 UNK         0.0000 
     25 H25        -1.4093   51.2888   30.1565 H         1 UNK         0.0000 
     26 H26        -1.3735   51.1448   27.7029 H         1 UNK         0.0000 
     27 H27         2.1672   53.5945   30.2180 H         1 UNK         0.0000 
     28 H28        -0.4406   52.1086   32.1264 H         1 UNK         0.0000 
     29 H29         0.2831   52.2129   24.1417 H         1 UNK         0.0000 
     30 H30        -0.1416   50.8817   25.1696 H         1 UNK         0.0000 
     31 H31        -2.2633   51.6769   25.6166 H         1 UNK         0.0000 
     32 H32        -1.7306   53.2961   25.9193 H         1 UNK         0.0000 
     33 H33         2.1989   53.3117   23.8324 H         1 UNK         0.0000 
     34 H34         4.4230   54.3434   24.0602 H         1 UNK         0.0000 
     35 H35         6.4911   55.2373   28.5072 H         1 UNK         0.0000 
@<TRIPOS>BOND
     1    1    6 ar   
     2    1    2 ar   
     3    1   25 1    
     4    2    3 ar   
     5    2   26 1    
     6    3   10 ar   
     7    3    4 ar   
     8    4    5 ar   
     9    4    8 ar   
    10    5    6 ar   
    11    5   27 1    
    12    6    7 1    
    13    7   28 1    
    14    8   19 ar   
    15    8    9 ar   
    16    9   10 ar   
    17    9   16 ar   
    18   10   11 1    
    19   11   12 1    
    20   11   29 1    
    21   11   30 1    
    22   12   13 1    
    23   12   31 1    
    24   12   32 1    
    25   13   14 2    
    26   13   15 1    
    27   16   17 ar   
    28   16   33 1    
    29   17   18 ar   
    30   17   34 1    
    31   18   23 1    
    32   18   19 ar   
    33   19   20 1    
    34   20   21 2    
    35   20   22 am   BACKBONE|DICT|INTERRES
    36   22   23 am   BACKBONE|DICT|INTERRES
    37   22   35 1    
    38   23   24 2    
@<TRIPOS>SUBSTRUCTURE
     1 UNK         1 GROUP             0       ****    0 ROOT    
