@<TRIPOS>MOLECULE
CHEMBL472687_119
58   63    1
SMALL
USER_CHARGES


@<TRIPOS>ATOM
      1 C1          1.5547   53.4126   22.7953 C.3       1 UNK         0.0000 
      2 N2          2.8074   53.7715   23.4461 N.pl3     1 UNK         0.0000 
      3 C3          2.9882   53.8103   24.8176 C.ar      1 UNK         0.0000 
      4 C4          2.0789   53.5659   25.8612 C.ar      1 UNK         0.0000 
      5 C5          2.5242   53.6962   27.1840 C.ar      1 UNK         0.0000 
      6 C6          3.8677   54.0131   27.4252 C.ar      1 UNK         0.0000 
      7 C7          4.7565   54.2502   26.4064 C.ar      1 UNK         0.0000 
      8 C8          4.3429   54.1652   25.0638 C.ar      1 UNK         0.0000 
      9 C9          4.9690   54.3561   23.8074 C.ar      1 UNK         0.0000 
     10 C10         3.9952   54.0966   22.8067 C.ar      1 UNK         0.0000 
     11 C11         4.2932   54.2046   21.4423 C.ar      1 UNK         0.0000 
     12 C12         5.5779   54.6349   21.0747 C.ar      1 UNK         0.0000 
     13 C13         6.5452   54.8966   22.0522 C.ar      1 UNK         0.0000 
     14 C14         6.2658   54.7351   23.4080 C.ar      1 UNK         0.0000 
     15 O15         7.8084   55.2974   21.6819 O.3       1 UNK         0.0000 
     16 O16         5.9522   54.8256   19.7569 O.3       1 UNK         0.0000 
     17 C17         5.1443   54.2991   18.7088 C.3       1 UNK         0.0000 
     18 C18         5.8919   54.4671   17.3755 C.3       1 UNK         0.0000 
     19 C19         6.1328   55.9343   16.9365 C.3       1 UNK         0.0000 
     20 N20         4.9054   56.7080   16.7404 N.pl3     1 UNK         0.0000 
     21 C21         4.7894   58.0733   16.8812 C.ar      1 UNK         0.0000 
     22 C22         3.5034   58.4632   16.5424 C.ar      1 UNK         0.0000 
     23 C23         2.8071   57.3136   16.1686 C.ar      1 UNK         0.0000 
     24 C24         3.6907   56.2520   16.2708 C.ar      1 UNK         0.0000 
     25 C25         6.0608   54.5824   27.0264 C.2       1 UNK         0.0000 
     26 O26         7.1043   54.8973   26.4770 O.2       1 UNK         0.0000 
     27 N27         5.8744   54.4892   28.3509 N.am      1 UNK         0.0000 
     28 C28         4.6264   54.1462   28.7055 C.2       1 UNK         0.0000 
     29 O29         4.2286   53.9981   29.8595 O.2       1 UNK         0.0000 
     30 C30         1.5683   53.4486   28.2994 C.ar      1 UNK         0.0000 
     31 C31         0.9748   52.1832   28.3978 C.ar      1 UNK         0.0000 
     32 C32         0.1263   51.8750   29.4564 C.ar      1 UNK         0.0000 
     33 C33        -0.1137   52.8173   30.4492 C.ar      1 UNK         0.0000 
     34 C34         0.4286   54.0938   30.3470 C.ar      1 UNK         0.0000 
     35 C35         1.2483   54.4238   29.2677 C.ar      1 UNK         0.0000 
     36 Cl36        1.8349   56.0518   29.1741 Cl        1 UNK         0.0000 
     37 H37         0.7274   53.9307   23.2830 H         1 UNK         0.0000 
     38 H38         1.5697   53.6962   21.7447 H         1 UNK         0.0000 
     39 H39         1.4045   52.3363   22.8729 H         1 UNK         0.0000 
     40 H40         1.0517   53.2970   25.6566 H         1 UNK         0.0000 
     41 H41         3.5360   54.0123   20.6984 H         1 UNK         0.0000 
     42 H42         7.0404   54.9366   24.1258 H         1 UNK         0.0000 
     43 H43         8.4415   55.2985   22.4124 H         1 UNK         0.0000 
     44 H44         4.1787   54.8052   18.6772 H         1 UNK         0.0000 
     45 H45         4.9554   53.2367   18.8795 H         1 UNK         0.0000 
     46 H46         5.3600   53.9269   16.5920 H         1 UNK         0.0000 
     47 H47         6.8561   53.9637   17.4562 H         1 UNK         0.0000 
     48 H48         6.6969   55.9681   16.0028 H         1 UNK         0.0000 
     49 H49         6.7274   56.4479   17.6943 H         1 UNK         0.0000 
     50 H50         5.6307   58.6678   17.2095 H         1 UNK         0.0000 
     51 H51         3.1141   59.4733   16.5657 H         1 UNK         0.0000 
     52 H52         1.7767   57.2669   15.8450 H         1 UNK         0.0000 
     53 H53         3.5496   55.2049   16.0499 H         1 UNK         0.0000 
     54 H54         6.6003   54.7075   29.0195 H         1 UNK         0.0000 
     55 H55         1.1840   51.4197   27.6610 H         1 UNK         0.0000 
     56 H56        -0.3295   50.8969   29.5191 H         1 UNK         0.0000 
     57 H57        -0.7549   52.5636   31.2815 H         1 UNK         0.0000 
     58 H58         0.2078   54.8316   31.1049 H         1 UNK         0.0000 
@<TRIPOS>BOND
     1    1    2 1    
     2    1   37 1    
     3    1   38 1    
     4    1   39 1    
     5    2   10 ar   
     6    2    3 ar   
     7    3    8 ar   
     8    3    4 ar   
     9    4    5 ar   
    10    4   40 1    
    11    5    6 ar   
    12    5   30 1    
    13    6   28 1    
    14    6    7 ar   
    15    7    8 ar   
    16    7   25 1    
    17    8    9 ar   
    18    9   14 ar   
    19    9   10 ar   
    20   10   11 ar   
    21   11   12 ar   
    22   11   41 1    
    23   12   13 ar   
    24   12   16 1    
    25   13   14 ar   
    26   13   15 1    
    27   14   42 1    
    28   15   43 1    
    29   16   17 1    
    30   17   18 1    
    31   17   44 1    
    32   17   45 1    
    33   18   19 1    
    34   18   46 1    
    35   18   47 1    
    36   19   20 1    
    37   19   48 1    
    38   19   49 1    
    39   20   24 ar   
    40   20   21 ar   
    41   21   22 ar   
    42   21   50 1    
    43   22   23 ar   
    44   22   51 1    
    45   23   24 ar   
    46   23   52 1    
    47   24   53 1    
    48   25   26 2    
    49   25   27 am   BACKBONE|DICT|INTERRES
    50   27   28 am   BACKBONE|DICT|INTERRES
    51   27   54 1    
    52   28   29 2    
    53   30   35 ar   
    54   30   31 ar   
    55   31   32 ar   
    56   31   55 1    
    57   32   33 ar   
    58   32   56 1    
    59   33   34 ar   
    60   33   57 1    
    61   34   35 ar   
    62   34   58 1    
    63   35   36 1    
@<TRIPOS>SUBSTRUCTURE
     1 UNK         1 GROUP             0       ****    0 ROOT    
