@<TRIPOS>MOLECULE
CHEMBL486517_46
51   56    1
SMALL
USER_CHARGES


@<TRIPOS>ATOM
      1 C1          0.1319   51.8768   29.4340 C.ar      1 UNK         0.0000 
      2 C2         -0.0957   52.8165   30.4334 C.ar      1 UNK         0.0000 
      3 C3          0.4381   54.0967   30.3202 C.ar      1 UNK         0.0000 
      4 C4          1.2431   54.4281   29.2297 C.ar      1 UNK         0.0000 
      5 C5          1.5555   53.4528   28.2576 C.ar      1 UNK         0.0000 
      6 C6          0.9638   52.1877   28.3627 C.ar      1 UNK         0.0000 
      7 C7          2.5176   53.6979   27.1469 C.ar      1 UNK         0.0000 
      8 C8          2.0851   53.5665   25.8186 C.ar      1 UNK         0.0000 
      9 C9          3.0057   53.8065   24.7819 C.ar      1 UNK         0.0000 
     10 C10         4.3528   54.1753   25.0442 C.ar      1 UNK         0.0000 
     11 C11         4.9961   54.3688   23.7982 C.ar      1 UNK         0.0000 
     12 C12         6.3002   54.7526   23.4185 C.ar      1 UNK         0.0000 
     13 C13         6.6007   54.8968   22.0667 C.ar      1 UNK         0.0000 
     14 C14         5.6462   54.6214   21.0924 C.ar      1 UNK         0.0000 
     15 C15         4.3607   54.1919   21.4189 C.ar      1 UNK         0.0000 
     16 C16         4.0396   54.0924   22.7807 C.ar      1 UNK         0.0000 
     17 N17         2.8518   53.7332   23.4047 N.pl3     1 UNK         0.0000 
     18 C18         1.6439   53.2717   22.7231 C.3       1 UNK         0.0000 
     19 C19         1.5595   51.7329   22.8046 C.3       1 UNK         0.0000 
     20 S20         0.1603   51.0833   21.7678 S.3       1 UNK         0.0000 
     21 O21        -0.9830   52.0967   21.8626 O.2       1 UNK         0.0000 
     22 N22         0.9742   51.2871   20.2157 N.pl3     1 UNK         0.0000 
     23 C23         2.1137   50.6579   19.7823 C.ar      1 UNK         0.0000 
     24 C24         2.3044   51.1559   18.5042 C.ar      1 UNK         0.0000 
     25 N25         1.3487   52.0132   18.1953 N.2       1 UNK         0.0000 
     26 N26         0.4861   52.0988   19.2742 N.2       1 UNK         0.0000 
     27 O27         7.8556   55.2968   21.6817 O.3       1 UNK         0.0000 
     28 C28         4.7542   54.2607   26.3904 C.ar      1 UNK         0.0000 
     29 C29         3.8583   54.0160   27.3999 C.ar      1 UNK         0.0000 
     30 C30         4.6082   54.1403   28.6871 C.2       1 UNK         0.0000 
     31 O31         4.2041   53.9767   29.8359 O.2       1 UNK         0.0000 
     32 N32         5.8577   54.4927   28.3438 N.am      1 UNK         0.0000 
     33 C33         6.0552   54.5861   27.0209 C.2       1 UNK         0.0000 
     34 O34         7.1044   54.8968   26.4812 O.2       1 UNK         0.0000 
     35 Cl35        1.8293   56.0564   29.1307 Cl        1 UNK         0.0000 
     36 H36        -0.3189   50.8967   29.5036 H         1 UNK         0.0000 
     37 H37        -0.7144   52.5568   31.2813 H         1 UNK         0.0000 
     38 H38         0.2261   54.8334   31.0812 H         1 UNK         0.0000 
     39 H39         1.1674   51.4267   27.6221 H         1 UNK         0.0000 
     40 H40         1.0613   53.2950   25.6051 H         1 UNK         0.0000 
     41 H41         7.0638   54.9646   24.1448 H         1 UNK         0.0000 
     42 H42         5.9115   54.7295   20.0505 H         1 UNK         0.0000 
     43 H43         3.6431   53.9795   20.6385 H         1 UNK         0.0000 
     44 H44         1.6652   53.6156   21.6880 H         1 UNK         0.0000 
     45 H45         0.7816   53.7419   23.1966 H         1 UNK         0.0000 
     46 H46         1.3921   51.4096   23.8316 H         1 UNK         0.0000 
     47 H47         2.4895   51.2707   22.4729 H         1 UNK         0.0000 
     48 H48         2.6557   49.9441   20.3845 H         1 UNK         0.0000 
     49 H49         3.1043   50.8975   17.8215 H         1 UNK         0.0000 
     50 H50         8.4960   55.3031   22.4080 H         1 UNK         0.0000 
     51 H51         6.5792   54.7091   29.0179 H         1 UNK         0.0000 
@<TRIPOS>BOND
     1    1    6 ar   
     2    1    2 ar   
     3    1   36 1    
     4    2    3 ar   
     5    2   37 1    
     6    3    4 ar   
     7    3   38 1    
     8    4    5 ar   
     9    4   35 1    
    10    5    6 ar   
    11    5    7 1    
    12    6   39 1    
    13    7   29 ar   
    14    7    8 ar   
    15    8    9 ar   
    16    8   40 1    
    17    9   17 ar   
    18    9   10 ar   
    19   10   11 ar   
    20   10   28 ar   
    21   11   16 ar   
    22   11   12 ar   
    23   12   13 ar   
    24   12   41 1    
    25   13   14 ar   
    26   13   27 1    
    27   14   15 ar   
    28   14   42 1    
    29   15   16 ar   
    30   15   43 1    
    31   16   17 ar   
    32   17   18 1    
    33   18   19 1    
    34   18   44 1    
    35   18   45 1    
    36   19   20 1    
    37   19   46 1    
    38   19   47 1    
    39   20   21 2    
    40   20   22 1    
    41   22   26 ar   
    42   22   23 ar   
    43   23   24 ar   
    44   23   48 1    
    45   24   25 ar   
    46   24   49 1    
    47   25   26 ar   
    48   27   50 1    
    49   28   33 1    
    50   28   29 ar   
    51   29   30 1    
    52   30   31 2    
    53   30   32 am   BACKBONE|DICT|INTERRES
    54   32   33 am   BACKBONE|DICT|INTERRES
    55   32   51 1    
    56   33   34 2    
@<TRIPOS>SUBSTRUCTURE
     1 UNK         1 GROUP             0       ****    0 ROOT    
