@<TRIPOS>MOLECULE
CHEMBL520071_12
56   61    1
SMALL
USER_CHARGES


@<TRIPOS>ATOM
      1 C1         -0.0950   53.0843   30.5610 C.ar      1 UNK         0.0000 
      2 C2          0.4741   54.3324   30.3360 C.ar      1 UNK         0.0000 
      3 C3          1.2559   54.5530   29.2027 C.ar      1 UNK         0.0000 
      4 C4          1.5386   53.4973   28.3085 C.ar      1 UNK         0.0000 
      5 C5          0.9010   52.2577   28.5222 C.ar      1 UNK         0.0000 
      6 C6          0.0803   52.0695   29.6310 C.ar      1 UNK         0.0000 
      7 Cl7         1.1043   50.9102   27.4560 Cl        1 UNK         0.0000 
      8 C8          2.5105   53.6852   27.1871 C.ar      1 UNK         0.0000 
      9 C9          2.0699   53.5616   25.8627 C.ar      1 UNK         0.0000 
     10 C10         2.9878   53.7865   24.8215 C.ar      1 UNK         0.0000 
     11 C11         4.3478   54.1240   25.0749 C.ar      1 UNK         0.0000 
     12 C12         4.9839   54.3212   23.8252 C.ar      1 UNK         0.0000 
     13 C13         6.2869   54.6995   23.4344 C.ar      1 UNK         0.0000 
     14 C14         6.5647   54.8965   22.0820 C.ar      1 UNK         0.0000 
     15 C15         5.5894   54.6656   21.1184 C.ar      1 UNK         0.0000 
     16 C16         4.3047   54.2443   21.4546 C.ar      1 UNK         0.0000 
     17 C17         4.0070   54.0961   22.8173 C.ar      1 UNK         0.0000 
     18 N18         2.8133   53.7678   23.4455 N.pl3     1 UNK         0.0000 
     19 C19         1.5514   53.5339   22.7465 C.3       1 UNK         0.0000 
     20 C20         1.5345   52.2263   21.9202 C.3       1 UNK         0.0000 
     21 N21         0.7499   51.1703   22.5659 N.3       1 UNK         0.0000 
     22 C22         0.2969   50.1664   21.5968 C.3       1 UNK         0.0000 
     23 C23        -0.5956   49.1038   22.2747 C.3       1 UNK         0.0000 
     24 O24         0.0800   48.4978   23.3735 O.3       1 UNK         0.0000 
     25 C25         0.5504   49.4342   24.3422 C.3       1 UNK         0.0000 
     26 C26         1.4383   50.5213   23.6892 C.3       1 UNK         0.0000 
     27 O27         7.8147   55.2983   21.6818 O.3       1 UNK         0.0000 
     28 C28         4.7570   54.2150   26.4186 C.ar      1 UNK         0.0000 
     29 C29         3.8577   53.9916   27.4317 C.ar      1 UNK         0.0000 
     30 C30         4.6039   54.1556   28.7158 C.2       1 UNK         0.0000 
     31 O31         4.1903   54.0377   29.8680 O.2       1 UNK         0.0000 
     32 N32         5.8569   54.4943   28.3667 N.am      1 UNK         0.0000 
     33 C33         6.0567   54.5680   27.0422 C.2       1 UNK         0.0000 
     34 O34         7.1044   54.8945   26.5000 O.2       1 UNK         0.0000 
     35 Cl35        1.8424   56.1637   28.9386 Cl        1 UNK         0.0000 
     36 H36        -0.7002   52.9001   31.4375 H         1 UNK         0.0000 
     37 H37         0.2975   55.1358   31.0365 H         1 UNK         0.0000 
     38 H38        -0.4116   51.1179   29.7834 H         1 UNK         0.0000 
     39 H39         1.0391   53.3120   25.6604 H         1 UNK         0.0000 
     40 H40         7.0666   54.8769   24.1546 H         1 UNK         0.0000 
     41 H41         5.8370   54.8111   20.0766 H         1 UNK         0.0000 
     42 H42         3.5619   54.0861   20.6862 H         1 UNK         0.0000 
     43 H43         1.4185   54.3836   22.0821 H         1 UNK         0.0000 
     44 H44         0.7149   53.5887   23.4433 H         1 UNK         0.0000 
     45 H45         2.5427   51.8745   21.6939 H         1 UNK         0.0000 
     46 H46         1.0780   52.4625   20.9569 H         1 UNK         0.0000 
     47 H47         1.1532   49.7016   21.1049 H         1 UNK         0.0000 
     48 H48        -0.2756   50.6569   20.8074 H         1 UNK         0.0000 
     49 H49        -1.5179   49.5730   22.6225 H         1 UNK         0.0000 
     50 H50        -0.8744   48.3308   21.5579 H         1 UNK         0.0000 
     51 H51        -0.3020   49.9101   24.8300 H         1 UNK         0.0000 
     52 H52         1.1045   48.8981   25.1138 H         1 UNK         0.0000 
     53 H53         1.6980   51.2700   24.4346 H         1 UNK         0.0000 
     54 H54         2.3833   50.0894   23.3530 H         1 UNK         0.0000 
     55 H55         8.4645   55.2987   22.3979 H         1 UNK         0.0000 
     56 H56         6.5750   54.7321   29.0380 H         1 UNK         0.0000 
@<TRIPOS>BOND
     1    1    6 ar   
     2    1    2 ar   
     3    1   36 1    
     4    2    3 ar   
     5    2   37 1    
     6    3    4 ar   
     7    3   35 1    
     8    4    5 ar   
     9    4    8 1    
    10    5    6 ar   
    11    5    7 1    
    12    6   38 1    
    13    8   29 ar   
    14    8    9 ar   
    15    9   10 ar   
    16    9   39 1    
    17   10   18 ar   
    18   10   11 ar   
    19   11   12 ar   
    20   11   28 ar   
    21   12   17 ar   
    22   12   13 ar   
    23   13   14 ar   
    24   13   40 1    
    25   14   15 ar   
    26   14   27 1    
    27   15   16 ar   
    28   15   41 1    
    29   16   17 ar   
    30   16   42 1    
    31   17   18 ar   
    32   18   19 1    
    33   19   20 1    
    34   19   43 1    
    35   19   44 1    
    36   20   21 1    
    37   20   45 1    
    38   20   46 1    
    39   21   26 1    
    40   21   22 1    
    41   22   23 1    
    42   22   47 1    
    43   22   48 1    
    44   23   24 1    
    45   23   49 1    
    46   23   50 1    
    47   24   25 1    
    48   25   26 1    
    49   25   51 1    
    50   25   52 1    
    51   26   53 1    
    52   26   54 1    
    53   27   55 1    
    54   28   33 1    
    55   28   29 ar   
    56   29   30 1    
    57   30   31 2    
    58   30   32 am   BACKBONE|DICT|INTERRES
    59   32   33 am   BACKBONE|DICT|INTERRES
    60   32   56 1    
    61   33   34 2    
@<TRIPOS>SUBSTRUCTURE
     1 UNK         1 GROUP             0       ****    0 ROOT    
