@<TRIPOS>MOLECULE
CHEMBL438566_19
66   71    1
SMALL
USER_CHARGES


@<TRIPOS>ATOM
      1 C1          1.5266   53.4605   22.8177 C.3       1 UNK         0.0000 
      2 N2          2.7959   53.7756   23.4605 N.pl3     1 UNK         0.0000 
      3 C3          3.9773   54.1165   22.8204 C.ar      1 UNK         0.0000 
      4 C4          4.2446   54.3054   21.4633 C.ar      1 UNK         0.0000 
      5 C5          5.5224   54.7222   21.0785 C.ar      1 UNK         0.0000 
      6 C6          6.5293   54.8963   22.0434 C.ar      1 UNK         0.0000 
      7 C7          6.2743   54.6678   23.3971 C.ar      1 UNK         0.0000 
      8 C8          4.9736   54.3149   23.8100 C.ar      1 UNK         0.0000 
      9 C9          4.3503   54.1270   25.0694 C.ar      1 UNK         0.0000 
     10 C10         2.9914   53.7857   24.8285 C.ar      1 UNK         0.0000 
     11 C11         2.0848   53.5397   25.8710 C.ar      1 UNK         0.0000 
     12 C12         2.5340   53.6710   27.1900 C.ar      1 UNK         0.0000 
     13 C13         3.8752   53.9928   27.4303 C.ar      1 UNK         0.0000 
     14 C14         4.7660   54.2196   26.4113 C.ar      1 UNK         0.0000 
     15 C15         6.0667   54.5703   27.0283 C.2       1 UNK         0.0000 
     16 O16         7.1044   54.8965   26.4758 O.2       1 UNK         0.0000 
     17 N17         5.8768   54.4943   28.3545 N.am      1 UNK         0.0000 
     18 C18         4.6262   54.1566   28.7107 C.2       1 UNK         0.0000 
     19 O19         4.2171   54.0385   29.8636 O.2       1 UNK         0.0000 
     20 C20         1.5739   53.4371   28.2994 C.ar      1 UNK         0.0000 
     21 C21         1.0083   52.1637   28.4366 C.ar      1 UNK         0.0000 
     22 C22         0.1528   51.8780   29.4945 C.ar      1 UNK         0.0000 
     23 C23        -0.1152   52.8486   30.4519 C.ar      1 UNK         0.0000 
     24 C24         0.4023   54.1326   30.3093 C.ar      1 UNK         0.0000 
     25 C25         1.2222   54.4415   29.2234 C.ar      1 UNK         0.0000 
     26 Cl26        1.7594   56.0805   29.0468 Cl        1 UNK         0.0000 
     27 O27         7.7935   55.2974   21.6817 O.3       1 UNK         0.0000 
     28 C28         5.7554   55.0665   19.5979 C.3       1 UNK         0.0000 
     29 C29         5.6189   53.9086   18.5746 C.3       1 UNK         0.0000 
     30 C30         4.2066   53.2947   18.4386 C.3       1 UNK         0.0000 
     31 C31         3.9078   52.6965   17.0517 C.3       1 UNK         0.0000 
     32 N32         2.7197   51.6972   17.0831 N.4       1 UNK         0.0000 
     33 C33         2.3618   51.2868   15.6386 C.3       1 UNK         0.0000 
     34 C34         1.2489   50.2246   15.6920 C.3       1 UNK         0.0000 
     35 O35         0.1173   50.7135   16.4115 O.3       1 UNK         0.0000 
     36 C36         0.3756   51.1069   17.7581 C.3       1 UNK         0.0000 
     37 C37         1.4660   52.1967   17.8384 C.3       1 UNK         0.0000 
     38 H38         1.3169   52.3975   22.9443 H         1 UNK         0.0000 
     39 H39         0.7313   54.0466   23.2814 H         1 UNK         0.0000 
     40 H40         1.5544   53.6948   21.7550 H         1 UNK         0.0000 
     41 H41         3.4567   54.2068   20.7401 H         1 UNK         0.0000 
     42 H42         7.0663   54.8167   24.1099 H         1 UNK         0.0000 
     43 H43         1.0550   53.2843   25.6692 H         1 UNK         0.0000 
     44 H44         6.5992   54.7334   29.0200 H         1 UNK         0.0000 
     45 H45         1.2404   51.3828   27.7256 H         1 UNK         0.0000 
     46 H46        -0.2909   50.8971   29.5846 H         1 UNK         0.0000 
     47 H47        -0.7636   52.6076   31.2816 H         1 UNK         0.0000 
     48 H48         0.1543   54.8931   31.0350 H         1 UNK         0.0000 
     49 H49         8.4243   55.2967   22.4155 H         1 UNK         0.0000 
     50 H50         6.7423   55.5113   19.4672 H         1 UNK         0.0000 
     51 H51         5.0629   55.8648   19.3261 H         1 UNK         0.0000 
     52 H52         6.3359   53.1190   18.8074 H         1 UNK         0.0000 
     53 H53         5.9262   54.3012   17.6036 H         1 UNK         0.0000 
     54 H54         3.4600   54.0724   18.6077 H         1 UNK         0.0000 
     55 H55         4.0748   52.5352   19.2120 H         1 UNK         0.0000 
     56 H56         4.7466   52.0969   16.6928 H         1 UNK         0.0000 
     57 H57         3.6748   53.4716   16.3187 H         1 UNK         0.0000 
     58 H58         3.2727   50.8792   15.1981 H         1 UNK         0.0000 
     59 H59         2.0569   52.1841   15.0958 H         1 UNK         0.0000 
     60 H60         0.9400   49.9461   14.6847 H         1 UNK         0.0000 
     61 H61         1.6324   49.3201   16.1701 H         1 UNK         0.0000 
     62 H62        -0.5521   51.4633   18.2075 H         1 UNK         0.0000 
     63 H63         0.6928   50.2335   18.3323 H         1 UNK         0.0000 
     64 H64         1.1579   53.1410   17.3862 H         1 UNK         0.0000 
     65 H65         1.7496   52.3565   18.8798 H         1 UNK         0.0000 
     66 H66         3.0653   50.8517   17.5330 H         1 UNK         0.0000 
@<TRIPOS>BOND
     1    1    2 1    
     2    1   38 1    
     3    1   39 1    
     4    1   40 1    
     5    2   10 ar   
     6    2    3 ar   
     7    3    8 ar   
     8    3    4 ar   
     9    4    5 ar   
    10    4   41 1    
    11    5    6 ar   
    12    5   28 1    
    13    6    7 ar   
    14    6   27 1    
    15    7    8 ar   
    16    7   42 1    
    17    8    9 ar   
    18    9   14 ar   
    19    9   10 ar   
    20   10   11 ar   
    21   11   12 ar   
    22   11   43 1    
    23   12   13 ar   
    24   12   20 1    
    25   13   18 1    
    26   13   14 ar   
    27   14   15 1    
    28   15   16 2    
    29   15   17 am   BACKBONE|DICT|INTERRES
    30   17   18 am   BACKBONE|DICT|INTERRES
    31   17   44 1    
    32   18   19 2    
    33   20   25 ar   
    34   20   21 ar   
    35   21   22 ar   
    36   21   45 1    
    37   22   23 ar   
    38   22   46 1    
    39   23   24 ar   
    40   23   47 1    
    41   24   25 ar   
    42   24   48 1    
    43   25   26 1    
    44   27   49 1    
    45   28   29 1    
    46   28   50 1    
    47   28   51 1    
    48   29   30 1    
    49   29   52 1    
    50   29   53 1    
    51   30   31 1    
    52   30   54 1    
    53   30   55 1    
    54   31   32 1    
    55   31   56 1    
    56   31   57 1    
    57   32   37 1    
    58   32   33 1    
    59   32   66 1    
    60   33   34 1    
    61   33   58 1    
    62   33   59 1    
    63   34   35 1    
    64   34   60 1    
    65   34   61 1    
    66   35   36 1    
    67   36   37 1    
    68   36   62 1    
    69   36   63 1    
    70   37   64 1    
    71   37   65 1    
@<TRIPOS>SUBSTRUCTURE
     1 UNK         1 GROUP             0       ****    0 ROOT    
