@<TRIPOS>MOLECULE
CHEMBL362862_124
72   76    1
SMALL
USER_CHARGES


@<TRIPOS>ATOM
      1 C1          2.4126   53.6615   24.3845 C.3       1 UNK         0.0000 
      2 N2          3.0838   53.8619   25.6863 N.pl3     1 UNK         0.0000 
      3 C3          4.4435   54.2859   25.6664 C.ar      1 UNK         0.0000 
      4 C4          5.1276   54.4504   26.8763 C.ar      1 UNK         0.0000 
      5 C5          4.3800   54.2509   28.1195 C.ar      1 UNK         0.0000 
      6 C6          3.0813   53.8714   28.0860 C.ar      1 UNK         0.0000 
      7 C7          2.3742   53.5799   26.8288 C.ar      1 UNK         0.0000 
      8 O8          1.2341   53.1100   26.8218 O.2       1 UNK         0.0000 
      9 C9          2.3148   53.7282   29.3464 C.ar      1 UNK         0.0000 
     10 C10         2.4080   52.5524   30.1089 C.ar      1 UNK         0.0000 
     11 C11         1.6136   52.3771   31.2412 C.ar      1 UNK         0.0000 
     12 C12         0.7020   53.3540   31.6106 C.ar      1 UNK         0.0000 
     13 C13         0.6174   54.5365   30.8796 C.ar      1 UNK         0.0000 
     14 C14         1.4402   54.7430   29.7717 C.ar      1 UNK         0.0000 
     15 Cl15        1.3702   56.2704   28.9594 Cl        1 UNK         0.0000 
     16 Cl16        3.5051   51.2967   29.6816 Cl        1 UNK         0.0000 
     17 C17         6.4768   54.7877   26.8092 C.ar      1 UNK         0.0000 
     18 N18         7.1043   54.9807   25.6208 N.ar      1 UNK         0.0000 
     19 C19         6.3682   54.8377   24.4914 C.ar      1 UNK         0.0000 
     20 N20         5.0557   54.4963   24.4686 N.ar      1 UNK         0.0000 
     21 N21         7.0550   55.0960   23.2980 N.pl3     1 UNK         0.0000 
     22 C22         6.6862   55.0811   21.9403 C.ar      1 UNK         0.0000 
     23 C23         7.5871   55.6436   21.0361 C.ar      1 UNK         0.0000 
     24 C24         7.3442   55.5801   19.6662 C.ar      1 UNK         0.0000 
     25 C25         6.1971   54.9508   19.1789 C.ar      1 UNK         0.0000 
     26 C26         5.2665   54.4285   20.0844 C.ar      1 UNK         0.0000 
     27 C27         5.5088   54.4930   21.4553 C.ar      1 UNK         0.0000 
     28 C28         6.0065   54.8441   17.6648 C.3       1 UNK         0.0000 
     29 C29         5.0433   53.7395   17.1607 C.3       1 UNK         0.0000 
     30 C30         4.9795   53.6020   15.6176 C.3       1 UNK         0.0000 
     31 C31         6.2015   52.8898   14.9972 C.2       1 UNK         0.0000 
     32 O32         7.3004   53.4393   15.0079 O.2       1 UNK         0.0000 
     33 O33         6.0232   51.6527   14.4610 O.3       1 UNK         0.0000 
     34 C34         4.7540   51.0461   14.2264 C.3       1 UNK         0.0000 
     35 C35         4.8836   49.5716   13.7798 C.3       1 UNK         0.0000 
     36 N36         5.3617   49.3479   12.4083 N.3       1 UNK         0.0000 
     37 C37         5.2640   47.9162   12.0894 C.3       1 UNK         0.0000 
     38 C38         5.7790   47.6020   10.6705 C.3       1 UNK         0.0000 
     39 O39         7.1029   48.0969   10.4819 O.3       1 UNK         0.0000 
     40 C40         7.2227   49.4934   10.7484 C.3       1 UNK         0.0000 
     41 C41         6.7261   49.8402   12.1676 C.3       1 UNK         0.0000 
     42 H42         1.3685   53.3584   24.4607 H         1 UNK         0.0000 
     43 H43         2.4357   54.5853   23.8061 H         1 UNK         0.0000 
     44 H44         2.9309   52.8967   23.8073 H         1 UNK         0.0000 
     45 H45         4.8601   54.4476   29.0705 H         1 UNK         0.0000 
     46 H46         1.6897   51.4817   31.8376 H         1 UNK         0.0000 
     47 H47         0.0683   53.2016   32.4747 H         1 UNK         0.0000 
     48 H48        -0.0804   55.2967   31.1900 H         1 UNK         0.0000 
     49 H49         7.0691   54.9115   27.7047 H         1 UNK         0.0000 
     50 H50         8.0526   55.2623   23.4404 H         1 UNK         0.0000 
     51 H51         8.5037   56.0961   21.3879 H         1 UNK         0.0000 
     52 H52         8.0680   55.9957   18.9814 H         1 UNK         0.0000 
     53 H53         4.3631   53.9472   19.7449 H         1 UNK         0.0000 
     54 H54         4.7837   54.0366   22.1080 H         1 UNK         0.0000 
     55 H55         6.9921   54.6689   17.2353 H         1 UNK         0.0000 
     56 H56         5.6778   55.8171   17.2980 H         1 UNK         0.0000 
     57 H57         4.0338   53.9489   17.5183 H         1 UNK         0.0000 
     58 H58         5.3154   52.7764   17.6028 H         1 UNK         0.0000 
     59 H59         4.9082   54.5942   15.1712 H         1 UNK         0.0000 
     60 H60         4.0495   53.1069   15.3486 H         1 UNK         0.0000 
     61 H61         4.1974   51.6159   13.4807 H         1 UNK         0.0000 
     62 H62         4.1729   51.0599   15.1493 H         1 UNK         0.0000 
     63 H63         3.8880   49.1338   13.8669 H         1 UNK         0.0000 
     64 H64         5.5042   49.0193   14.4807 H         1 UNK         0.0000 
     65 H65         4.2220   47.6031   12.1765 H         1 UNK         0.0000 
     66 H66         5.8201   47.3225   12.8192 H         1 UNK         0.0000 
     67 H67         5.7723   46.5251   10.4989 H         1 UNK         0.0000 
     68 H68         5.1084   48.0521    9.9356 H         1 UNK         0.0000 
     69 H69         8.2639   49.7946   10.6337 H         1 UNK         0.0000 
     70 H70         6.6396   50.0577   10.0179 H         1 UNK         0.0000 
     71 H71         7.4057   49.4213   12.9134 H         1 UNK         0.0000 
     72 H72         6.7654   50.9208   12.2929 H         1 UNK         0.0000 
@<TRIPOS>BOND
     1    1    2 1    
     2    1   42 1    
     3    1   43 1    
     4    1   44 1    
     5    2    7 ar   
     6    2    3 ar   
     7    3   20 ar   
     8    3    4 ar   
     9    4    5 ar   
    10    4   17 ar   
    11    5    6 ar   
    12    5   45 1    
    13    6    7 ar   
    14    6    9 1    
    15    7    8 2    
    16    9   14 ar   
    17    9   10 ar   
    18   10   11 ar   
    19   10   16 1    
    20   11   12 ar   
    21   11   46 1    
    22   12   13 ar   
    23   12   47 1    
    24   13   14 ar   
    25   13   48 1    
    26   14   15 1    
    27   17   18 ar   
    28   17   49 1    
    29   18   19 ar   
    30   19   20 ar   
    31   19   21 1    
    32   21   22 1    
    33   21   50 1    
    34   22   27 ar   
    35   22   23 ar   
    36   23   24 ar   
    37   23   51 1    
    38   24   25 ar   
    39   24   52 1    
    40   25   26 ar   
    41   25   28 1    
    42   26   27 ar   
    43   26   53 1    
    44   27   54 1    
    45   28   29 1    
    46   28   55 1    
    47   28   56 1    
    48   29   30 1    
    49   29   57 1    
    50   29   58 1    
    51   30   31 1    
    52   30   59 1    
    53   30   60 1    
    54   31   32 2    
    55   31   33 1    
    56   33   34 1    
    57   34   35 1    
    58   34   61 1    
    59   34   62 1    
    60   35   36 1    
    61   35   63 1    
    62   35   64 1    
    63   36   41 1    
    64   36   37 1    
    65   37   38 1    
    66   37   65 1    
    67   37   66 1    
    68   38   39 1    
    69   38   67 1    
    70   38   68 1    
    71   39   40 1    
    72   40   41 1    
    73   40   69 1    
    74   40   70 1    
    75   41   71 1    
    76   41   72 1    
@<TRIPOS>SUBSTRUCTURE
     1 UNK         1 GROUP             0       ****    0 ROOT    
