@<TRIPOS>MOLECULE
CHEMBL529669_11
56   61    1
SMALL
USER_CHARGES


@<TRIPOS>ATOM
      1 C1          0.0869   51.8665   29.5173 C.ar      1 UNK         0.0000 
      2 C2         -0.1852   52.8285   30.4810 C.ar      1 UNK         0.0000 
      3 C3          0.3825   54.0952   30.3892 C.ar      1 UNK         0.0000 
      4 C4          1.2494   54.3992   29.3382 C.ar      1 UNK         0.0000 
      5 C5          1.5886   53.4073   28.3927 C.ar      1 UNK         0.0000 
      6 C6          0.9819   52.1490   28.4923 C.ar      1 UNK         0.0000 
      7 C7          2.5532   53.6376   27.2850 C.ar      1 UNK         0.0000 
      8 C8          2.1012   53.4878   25.9684 C.ar      1 UNK         0.0000 
      9 C9          2.9969   53.7391   24.9189 C.ar      1 UNK         0.0000 
     10 C10         4.3530   54.0998   25.1500 C.ar      1 UNK         0.0000 
     11 C11         4.9630   54.3088   23.8871 C.ar      1 UNK         0.0000 
     12 C12         6.2524   54.7063   23.4698 C.ar      1 UNK         0.0000 
     13 C13         6.5025   54.8964   22.1105 C.ar      1 UNK         0.0000 
     14 C14         5.5161   54.6348   21.1658 C.ar      1 UNK         0.0000 
     15 C15         4.2432   54.1933   21.5287 C.ar      1 UNK         0.0000 
     16 C16         3.9711   54.0625   22.8968 C.ar      1 UNK         0.0000 
     17 N17         2.7943   53.7250   23.5508 N.pl3     1 UNK         0.0000 
     18 C18         1.5293   53.4113   22.9030 C.3       1 UNK         0.0000 
     19 C19         1.4878   51.9359   22.4439 C.3       1 UNK         0.0000 
     20 N20         0.3238   51.5906   21.6174 N.3       1 UNK         0.0000 
     21 C21         0.3471   52.2132   20.2852 C.3       1 UNK         0.0000 
     22 C22        -0.8970   51.8518   19.4428 C.3       1 UNK         0.0000 
     23 O23        -2.1003   52.0963   20.1705 O.3       1 UNK         0.0000 
     24 C24        -2.1541   51.3709   21.3977 C.3       1 UNK         0.0000 
     25 C25        -0.9649   51.7443   22.3062 C.3       1 UNK         0.0000 
     26 O26         7.7391   55.3143   21.6819 O.3       1 UNK         0.0000 
     27 C27         4.7738   54.1980   26.4887 C.ar      1 UNK         0.0000 
     28 C28         3.8930   53.9706   27.5156 C.ar      1 UNK         0.0000 
     29 C29         4.6512   54.1474   28.7897 C.2       1 UNK         0.0000 
     30 O30         4.2542   54.0275   29.9459 O.2       1 UNK         0.0000 
     31 N31         5.8958   54.4939   28.4204 N.am      1 UNK         0.0000 
     32 C32         6.0739   54.5646   27.0930 C.2       1 UNK         0.0000 
     33 O33         7.1043   54.8963   26.5276 O.2       1 UNK         0.0000 
     34 Cl34        1.8471   56.0233   29.2346 Cl        1 UNK         0.0000 
     35 H35        -0.3875   50.8969   29.5750 H         1 UNK         0.0000 
     36 H36        -0.8702   52.5924   31.2817 H         1 UNK         0.0000 
     37 H37         0.1364   54.8469   31.1264 H         1 UNK         0.0000 
     38 H38         1.2061   51.3773   27.7696 H         1 UNK         0.0000 
     39 H39         1.0722   53.2167   25.7798 H         1 UNK         0.0000 
     40 H40         7.0387   54.9018   24.1765 H         1 UNK         0.0000 
     41 H41         5.7430   54.7703   20.1176 H         1 UNK         0.0000 
     42 H42         3.4976   54.0052   20.7708 H         1 UNK         0.0000 
     43 H43         1.4180   54.1066   22.0815 H         1 UNK         0.0000 
     44 H44         0.7137   53.6419   23.5872 H         1 UNK         0.0000 
     45 H45         1.4913   51.2767   23.3133 H         1 UNK         0.0000 
     46 H46         2.3902   51.6909   21.8804 H         1 UNK         0.0000 
     47 H47         1.2549   51.9096   19.7627 H         1 UNK         0.0000 
     48 H48         0.4079   53.2961   20.3712 H         1 UNK         0.0000 
     49 H49        -0.9126   52.4356   18.5212 H         1 UNK         0.0000 
     50 H50        -0.8450   50.8008   19.1546 H         1 UNK         0.0000 
     51 H51        -3.0964   51.5816   21.9037 H         1 UNK         0.0000 
     52 H52        -2.1360   50.2981   21.1964 H         1 UNK         0.0000 
     53 H53        -1.0926   52.7697   22.6521 H         1 UNK         0.0000 
     54 H54        -0.9708   51.1235   23.2035 H         1 UNK         0.0000 
     55 H55         8.4065   55.3295   22.3831 H         1 UNK         0.0000 
     56 H56         6.6208   54.7422   29.0787 H         1 UNK         0.0000 
@<TRIPOS>BOND
     1    1    6 ar   
     2    1    2 ar   
     3    1   35 1    
     4    2    3 ar   
     5    2   36 1    
     6    3    4 ar   
     7    3   37 1    
     8    4    5 ar   
     9    4   34 1    
    10    5    6 ar   
    11    5    7 1    
    12    6   38 1    
    13    7   28 ar   
    14    7    8 ar   
    15    8    9 ar   
    16    8   39 1    
    17    9   17 ar   
    18    9   10 ar   
    19   10   11 ar   
    20   10   27 ar   
    21   11   16 ar   
    22   11   12 ar   
    23   12   13 ar   
    24   12   40 1    
    25   13   14 ar   
    26   13   26 1    
    27   14   15 ar   
    28   14   41 1    
    29   15   16 ar   
    30   15   42 1    
    31   16   17 ar   
    32   17   18 1    
    33   18   19 1    
    34   18   43 1    
    35   18   44 1    
    36   19   20 1    
    37   19   45 1    
    38   19   46 1    
    39   20   25 1    
    40   20   21 1    
    41   21   22 1    
    42   21   47 1    
    43   21   48 1    
    44   22   23 1    
    45   22   49 1    
    46   22   50 1    
    47   23   24 1    
    48   24   25 1    
    49   24   51 1    
    50   24   52 1    
    51   25   53 1    
    52   25   54 1    
    53   26   55 1    
    54   27   32 1    
    55   27   28 ar   
    56   28   29 1    
    57   29   30 2    
    58   29   31 am   BACKBONE|DICT|INTERRES
    59   31   32 am   BACKBONE|DICT|INTERRES
    60   31   56 1    
    61   32   33 2    
@<TRIPOS>SUBSTRUCTURE
     1 UNK         1 GROUP             0       ****    0 ROOT    
