@<TRIPOS>MOLECULE
CHEMBL453347_53
64   69    1
SMALL
USER_CHARGES


@<TRIPOS>ATOM
      1 C1          2.0982   51.3016   16.0380 C.3       1 UNK         0.0000 
      2 N2          2.3986   51.2968   17.5499 N.4       1 UNK         0.0000 
      3 C3          1.8747   50.0132   18.2306 C.3       1 UNK         0.0000 
      4 C4          2.3527   50.0275   19.7017 C.3       1 UNK         0.0000 
      5 N5          1.8288   51.2069   20.4100 N.3       1 UNK         0.0000 
      6 C6          2.2329   52.4524   19.7435 C.3       1 UNK         0.0000 
      7 C7          1.8151   52.5262   18.2640 C.3       1 UNK         0.0000 
      8 C8          2.2405   51.2005   21.8246 C.3       1 UNK         0.0000 
      9 C9          1.2770   51.9938   22.7482 C.3       1 UNK         0.0000 
     10 C10         1.5288   53.5117   22.9596 C.3       1 UNK         0.0000 
     11 N11         2.8134   53.7952   23.5938 N.pl3     1 UNK         0.0000 
     12 C12         3.9880   54.1940   22.9630 C.ar      1 UNK         0.0000 
     13 C13         4.2626   54.4925   21.6197 C.ar      1 UNK         0.0000 
     14 C14         5.5642   54.8505   21.2809 C.ar      1 UNK         0.0000 
     15 C15         6.5714   54.9251   22.2318 C.ar      1 UNK         0.0000 
     16 C16         6.3049   54.6566   23.5733 C.ar      1 UNK         0.0000 
     17 C17         4.9924   54.3162   23.9631 C.ar      1 UNK         0.0000 
     18 C18         4.3657   54.0971   25.2125 C.ar      1 UNK         0.0000 
     19 C19         3.0170   53.7386   24.9600 C.ar      1 UNK         0.0000 
     20 C20         2.1170   53.4374   25.9938 C.ar      1 UNK         0.0000 
     21 C21         2.5504   53.5659   27.3180 C.ar      1 UNK         0.0000 
     22 C22         3.8803   53.9333   27.5697 C.ar      1 UNK         0.0000 
     23 C23         4.7737   54.1786   26.5548 C.ar      1 UNK         0.0000 
     24 C24         6.0653   54.5555   27.1724 C.2       1 UNK         0.0000 
     25 O25         7.1044   54.8956   26.6257 O.2       1 UNK         0.0000 
     26 N26         5.8626   54.4967   28.4955 N.am      1 UNK         0.0000 
     27 C27         4.6139   54.1512   28.8520 C.2       1 UNK         0.0000 
     28 O28         4.1995   54.0707   30.0061 O.2       1 UNK         0.0000 
     29 C29         1.5710   53.3082   28.4062 C.ar      1 UNK         0.0000 
     30 C30         1.3212   54.2715   29.3923 C.ar      1 UNK         0.0000 
     31 C31         0.4474   53.9980   30.4391 C.ar      1 UNK         0.0000 
     32 C32        -0.2069   52.7715   30.4763 C.ar      1 UNK         0.0000 
     33 C33        -0.0230   51.8326   29.4685 C.ar      1 UNK         0.0000 
     34 C34         0.8763   52.0943   28.4429 C.ar      1 UNK         0.0000 
     35 O35         7.8281   55.3008   21.8322 O.3       1 UNK         0.0000 
     36 H36         1.0283   51.1437   15.8920 H         1 UNK         0.0000 
     37 H37         2.4232   52.2640   15.6402 H         1 UNK         0.0000 
     38 H38         2.6983   50.4975   15.6034 H         1 UNK         0.0000 
     39 H39         2.3042   49.1678   17.6918 H         1 UNK         0.0000 
     40 H40         0.7879   49.9903   18.1330 H         1 UNK         0.0000 
     41 H41         2.0286   49.1077   20.1909 H         1 UNK         0.0000 
     42 H42         3.4449   50.0676   19.7152 H         1 UNK         0.0000 
     43 H43         3.3230   52.5106   19.7876 H         1 UNK         0.0000 
     44 H44         1.7895   53.2966   20.2437 H         1 UNK         0.0000 
     45 H45         2.2654   53.4021   17.7938 H         1 UNK         0.0000 
     46 H46         0.7328   52.5282   18.1203 H         1 UNK         0.0000 
     47 H47         2.2907   50.1766   22.2016 H         1 UNK         0.0000 
     48 H48         3.2566   51.5904   21.9092 H         1 UNK         0.0000 
     49 H49         0.2688   51.9116   22.3393 H         1 UNK         0.0000 
     50 H50         1.2454   51.5042   23.7227 H         1 UNK         0.0000 
     51 H51         1.4719   54.0977   22.0569 H         1 UNK         0.0000 
     52 H52         0.7433   53.9282   23.5919 H         1 UNK         0.0000 
     53 H53         3.5042   54.4813   20.8583 H         1 UNK         0.0000 
     54 H54         5.7935   55.0862   20.2512 H         1 UNK         0.0000 
     55 H55         7.1043   54.7417   24.2872 H         1 UNK         0.0000 
     56 H56         1.0936   53.1640   25.7836 H         1 UNK         0.0000 
     57 H57         6.5761   54.7604   29.1620 H         1 UNK         0.0000 
     58 H58         1.8284   55.2252   29.3644 H         1 UNK         0.0000 
     59 H59         0.2802   54.7289   31.2169 H         1 UNK         0.0000 
     60 H60        -0.8900   52.5471   31.2816 H         1 UNK         0.0000 
     61 H61        -0.5622   50.8970   29.4970 H         1 UNK         0.0000 
     62 H62         1.0386   51.3437   27.6825 H         1 UNK         0.0000 
     63 H63         8.4780   55.2965   22.5541 H         1 UNK         0.0000 
     64 H64         3.4096   51.2769   17.6588 H         1 UNK         0.0000 
@<TRIPOS>BOND
     1    1    2 1    
     2    1   36 1    
     3    1   37 1    
     4    1   38 1    
     5    2    7 1    
     6    2    3 1    
     7    2   64 1    
     8    3    4 1    
     9    3   39 1    
    10    3   40 1    
    11    4    5 1    
    12    4   41 1    
    13    4   42 1    
    14    5    6 1    
    15    5    8 1    
    16    6    7 1    
    17    6   43 1    
    18    6   44 1    
    19    7   45 1    
    20    7   46 1    
    21    8    9 1    
    22    8   47 1    
    23    8   48 1    
    24    9   10 1    
    25    9   49 1    
    26    9   50 1    
    27   10   11 1    
    28   10   51 1    
    29   10   52 1    
    30   11   19 ar   
    31   11   12 ar   
    32   12   17 ar   
    33   12   13 ar   
    34   13   14 ar   
    35   13   53 1    
    36   14   15 ar   
    37   14   54 1    
    38   15   16 ar   
    39   15   35 1    
    40   16   17 ar   
    41   16   55 1    
    42   17   18 ar   
    43   18   23 ar   
    44   18   19 ar   
    45   19   20 ar   
    46   20   21 ar   
    47   20   56 1    
    48   21   22 ar   
    49   21   29 1    
    50   22   27 1    
    51   22   23 ar   
    52   23   24 1    
    53   24   25 2    
    54   24   26 am   BACKBONE|DICT|INTERRES
    55   26   27 am   BACKBONE|DICT|INTERRES
    56   26   57 1    
    57   27   28 2    
    58   29   34 ar   
    59   29   30 ar   
    60   30   31 ar   
    61   30   58 1    
    62   31   32 ar   
    63   31   59 1    
    64   32   33 ar   
    65   32   60 1    
    66   33   34 ar   
    67   33   61 1    
    68   34   62 1    
    69   35   63 1    
@<TRIPOS>SUBSTRUCTURE
     1 UNK         1 GROUP             0       ****    0 ROOT    
