CHEMBL472689_74
                    3D
 Schrodinger Suite 2024-2.
 58 63  0  0  1  0            999 V2000
    1.4202   53.3616   23.0250 C   0  0  0  0  0  0
    2.6972   53.6841   23.6426 N   0  0  0  0  0  0
    2.9034   53.7438   25.0121 C   0  0  0  0  0  0
    2.0109   53.5283   26.0755 C   0  0  0  0  0  0
    2.4785   53.7016   27.3850 C   0  0  0  0  0  0
    3.8327   54.0049   27.5954 C   0  0  0  0  0  0
    4.7139   54.1961   26.5588 C   0  0  0  0  0  0
    4.2637   54.0968   25.2276 C   0  0  0  0  0  0
    4.8553   54.2861   23.9578 C   0  0  0  0  0  0
    3.8664   54.0208   22.9752 C   0  0  0  0  0  0
    4.1395   54.1291   21.6038 C   0  0  0  0  0  0
    5.4083   54.5844   21.2132 C   0  0  0  0  0  0
    6.3868   54.8659   22.1819 C   0  0  0  0  0  0
    6.1349   54.6811   23.5382 C   0  0  0  0  0  0
    7.6422   55.3004   21.8389 O   0  0  0  0  0  0
    5.6980   54.7874   19.7433 C   0  0  0  0  0  0
    6.2821   55.7962   19.3462 O   0  0  0  0  0  0
    5.3083   53.7902   18.9292 N   0  0  0  0  0  0
    5.5759   53.7421   17.4926 C   0  0  0  0  0  0
    4.4719   54.3283   16.5866 C   0  0  0  0  0  0
    4.3665   55.7816   16.6501 N   0  0  0  0  0  0
    5.3755   56.6943   16.4383 C   0  0  0  0  0  0
    4.8657   57.9781   16.5680 C   0  0  0  0  0  0
    3.5040   57.8507   16.8415 C   0  0  0  0  0  0
    3.2146   56.4953   16.8819 C   0  0  0  0  0  0
    6.0442   54.5075   27.1503 C   0  0  0  0  0  0
    7.1044   54.7624   26.5892 O   0  0  0  0  0  0
    5.8586   54.4823   28.4797 N   0  0  0  0  0  0
    4.6052   54.1822   28.8609 C   0  0  0  0  0  0
    4.2113   54.0967   30.0230 O   0  0  0  0  0  0
    1.5289   53.5458   28.5224 C   0  0  0  0  0  0
    0.9107   52.3058   28.7375 C   0  0  0  0  0  0
    0.0874   52.1002   29.8441 C   0  0  0  0  0  0
   -0.0952   53.1209   30.7724 C   0  0  0  0  0  0
    0.4628   54.3755   30.5424 C   0  0  0  0  0  0
    1.2452   54.6032   29.4106 C   0  0  0  0  0  0
    1.8340   56.2120   29.1452 Cl  0  0  0  0  0  0
    0.7025   54.1413   23.2819 H   0  0  0  0  0  0
    1.5092   53.2995   21.9407 H   0  0  0  0  0  0
    1.0649   52.4034   23.4061 H   0  0  0  0  0  0
    0.9771   53.2726   25.8948 H   0  0  0  0  0  0
    3.3741   53.9352   20.8650 H   0  0  0  0  0  0
    6.9151   54.8968   24.2472 H   0  0  0  0  0  0
    8.2604   55.3064   22.5808 H   0  0  0  0  0  0
    4.8833   52.9706   19.3351 H   0  0  0  0  0  0
    5.5781   52.6707   17.2807 H   0  0  0  0  0  0
    6.5863   54.0114   17.1769 H   0  0  0  0  0  0
    3.5109   53.8377   16.7484 H   0  0  0  0  0  0
    4.7091   54.0819   15.5516 H   0  0  0  0  0  0
    6.3784   56.3551   16.2314 H   0  0  0  0  0  0
    5.4088   58.9098   16.4776 H   0  0  0  0  0  0
    2.8094   58.6658   16.9944 H   0  0  0  0  0  0
    2.2848   55.9781   17.0668 H   0  0  0  0  0  0
    6.5942   54.7160   29.1331 H   0  0  0  0  0  0
    1.0820   51.4859   28.0533 H   0  0  0  0  0  0
   -0.3999   51.1479   29.9935 H   0  0  0  0  0  0
   -0.6803   52.9459   31.6647 H   0  0  0  0  0  0
    0.2873   55.1760   31.2463 H   0  0  0  0  0  0
  1  2  1  0  0  0
  1 38  1  0  0  0
  1 39  1  0  0  0
  1 40  1  0  0  0
  2 10  1  0  0  0
  2  3  1  0  0  0
  3  8  2  0  0  0
  3  4  1  0  0  0
  4  5  2  0  0  0
  4 41  1  0  0  0
  5  6  1  0  0  0
  5 31  1  0  0  0
  6 29  1  0  0  0
  6  7  2  0  0  0
  7  8  1  0  0  0
  7 26  1  0  0  0
  8  9  1  0  0  0
  9 14  2  0  0  0
  9 10  1  0  0  0
 10 11  2  0  0  0
 11 12  1  0  0  0
 11 42  1  0  0  0
 12 13  2  0  0  0
 12 16  1  0  0  0
 13 14  1  0  0  0
 13 15  1  0  0  0
 14 43  1  0  0  0
 15 44  1  0  0  0
 16 17  2  0  0  0
 16 18  1  0  0  0
 18 19  1  0  0  0
 18 45  1  0  0  0
 19 20  1  0  0  0
 19 46  1  0  0  0
 19 47  1  0  0  0
 20 21  1  0  0  0
 20 48  1  0  0  0
 20 49  1  0  0  0
 21 25  1  0  0  0
 21 22  1  0  0  0
 22 23  2  0  0  0
 22 50  1  0  0  0
 23 24  1  0  0  0
 23 51  1  0  0  0
 24 25  2  0  0  0
 24 52  1  0  0  0
 25 53  1  0  0  0
 26 27  2  0  0  0
 26 28  1  0  0  0
 28 29  1  0  0  0
 28 54  1  0  0  0
 29 30  2  0  0  0
 31 36  2  0  0  0
 31 32  1  0  0  0
 32 33  2  0  0  0
 32 55  1  0  0  0
 33 34  1  0  0  0
 33 56  1  0  0  0
 34 35  2  0  0  0
 34 57  1  0  0  0
 35 36  1  0  0  0
 35 58  1  0  0  0
 36 37  1  0  0  0
M  END
> <i_i_glide_confnum>
33

> <i_i_glide_lignum>
75

> <i_i_glide_posenum>
304

> <i_i_glide_rotatable_bonds>
7

> <i_m_Source_File_Index>
120

> <b_m_subgroup_collapsed>
0

> <r_i_docking_score>
-11.6216

> <r_i_glide_ecoul>
-15.0298

> <r_i_glide_eff_state_penalty>
0

> <r_i_glide_einternal>
2.37378

> <r_i_glide_emodel>
-119.111

> <r_i_glide_energy>
-70.7346

> <r_i_glide_erotb>
0.389624

> <r_i_glide_esite>
-0.0327119

> <r_i_glide_evdw>
-55.7048

> <r_i_glide_gscore>
-11.6216

> <r_i_glide_hbond>
-0.67957

> <r_i_glide_ligand_efficiency>
-0.314097

> <r_i_glide_ligand_efficiency_ln>
-2.52045

> <r_i_glide_ligand_efficiency_sa>
-1.04664

> <r_i_glide_lipo>
-3.951

> <r_i_glide_metal>
0

> <r_i_glide_rewards>
-2.30821

> <s_i_glide_gridfile>
wee1_glide-grid

> <s_m_Source_File>
wee1_actives_glide_SP.sdf

> <s_m_Source_Path>
/Users/zhangxujun/Desktop

> <s_m_entry_id>
258

> <s_m_entry_name>
wee1_actives_glide_SP.120

> <s_m_subgroup_title>
wee1_actives_glide_SP

> <s_m_subgroupid>
wee1_actives_glide_SP


$$$$
