@<TRIPOS>MOLECULE
CHEMBL518903_93
57   62    1
SMALL
USER_CHARGES


@<TRIPOS>ATOM
      1 C1          0.0650   51.8716   29.4268 C.ar      1 UNK         0.0000 
      2 C2         -0.2079   52.8147   30.4112 C.ar      1 UNK         0.0000 
      3 C3          0.3529   54.0856   30.3305 C.ar      1 UNK         0.0000 
      4 C4          1.2101   54.4142   29.2782 C.ar      1 UNK         0.0000 
      5 C5          1.5457   53.4434   28.3095 C.ar      1 UNK         0.0000 
      6 C6          0.9464   52.1788   28.3939 C.ar      1 UNK         0.0000 
      7 C7          2.5131   53.6967   27.2020 C.ar      1 UNK         0.0000 
      8 C8          2.0700   53.5681   25.8769 C.ar      1 UNK         0.0000 
      9 C9          2.9835   53.8087   24.8411 C.ar      1 UNK         0.0000 
     10 C10         4.3372   54.1692   25.0850 C.ar      1 UNK         0.0000 
     11 C11         4.9610   54.3629   23.8252 C.ar      1 UNK         0.0000 
     12 C12         6.2499   54.7547   23.4126 C.ar      1 UNK         0.0000 
     13 C13         6.5218   54.8970   22.0506 C.ar      1 UNK         0.0000 
     14 C14         5.5434   54.5997   21.0861 C.ar      1 UNK         0.0000 
     15 C15         4.2699   54.1658   21.4678 C.ar      1 UNK         0.0000 
     16 C16         3.9878   54.0855   22.8316 C.ar      1 UNK         0.0000 
     17 N17         2.8147   53.7553   23.4744 N.pl3     1 UNK         0.0000 
     18 H18         1.9533   53.5184   23.0044 H         1 UNK         0.0000 
     19 C19         5.8406   54.6957   19.5861 C.3       1 UNK         0.0000 
     20 C20         4.9534   55.7221   18.8452 C.3       1 UNK         0.0000 
     21 C21         5.1529   55.7517   17.3102 C.3       1 UNK         0.0000 
     22 C22         6.1787   56.7776   16.7769 C.3       1 UNK         0.0000 
     23 N23         7.5124   56.5788   17.3293 N.pl3     1 UNK         0.0000 
     24 C24         8.3282   55.4865   17.1244 C.ar      1 UNK         0.0000 
     25 C25         9.5030   55.6613   17.8396 C.ar      1 UNK         0.0000 
     26 C26         9.4155   56.8992   18.4820 C.ar      1 UNK         0.0000 
     27 C27         8.1860   57.4500   18.1546 C.ar      1 UNK         0.0000 
     28 O28         7.7839   55.2995   21.6816 O.3       1 UNK         0.0000 
     29 C29         4.7499   54.2553   26.4262 C.ar      1 UNK         0.0000 
     30 C30         3.8584   54.0169   27.4435 C.ar      1 UNK         0.0000 
     31 C31         4.6163   54.1537   28.7225 C.2       1 UNK         0.0000 
     32 O32         4.2145   54.0101   29.8753 O.2       1 UNK         0.0000 
     33 N33         5.8666   54.4967   28.3683 N.am      1 UNK         0.0000 
     34 C34         6.0578   54.5849   27.0420 C.2       1 UNK         0.0000 
     35 O35         7.1044   54.8965   26.4894 O.2       1 UNK         0.0000 
     36 Cl36        1.8109   56.0382   29.2101 Cl        1 UNK         0.0000 
     37 H37        -0.3988   50.8965   29.4737 H         1 UNK         0.0000 
     38 H38        -0.8847   52.5648   31.2201 H         1 UNK         0.0000 
     39 H39         0.1126   54.8242   31.0817 H         1 UNK         0.0000 
     40 H40         1.1705   51.4178   27.6598 H         1 UNK         0.0000 
     41 H41         1.0460   53.2961   25.6632 H         1 UNK         0.0000 
     42 H42         7.0242   54.9770   24.1261 H         1 UNK         0.0000 
     43 H43         3.5186   53.9305   20.7268 H         1 UNK         0.0000 
     44 H44         5.6899   53.7053   19.1530 H         1 UNK         0.0000 
     45 H45         6.8901   54.9229   19.4190 H         1 UNK         0.0000 
     46 H46         5.1048   56.7197   19.2605 H         1 UNK         0.0000 
     47 H47         3.9065   55.4779   19.0293 H         1 UNK         0.0000 
     48 H48         4.1945   55.9924   16.8482 H         1 UNK         0.0000 
     49 H49         5.3948   54.7523   16.9422 H         1 UNK         0.0000 
     50 H50         5.8575   57.7938   17.0179 H         1 UNK         0.0000 
     51 H51         6.2556   56.7210   15.6899 H         1 UNK         0.0000 
     52 H52         7.9922   54.6706   16.5013 H         1 UNK         0.0000 
     53 H53        10.3335   54.9704   17.8975 H         1 UNK         0.0000 
     54 H54        10.1659   57.3358   19.1269 H         1 UNK         0.0000 
     55 H55         7.7297   58.3879   18.4385 H         1 UNK         0.0000 
     56 H56         8.4205   55.3024   22.4087 H         1 UNK         0.0000 
     57 H57         6.5919   54.7153   29.0388 H         1 UNK         0.0000 
@<TRIPOS>BOND
     1    1    6 ar   
     2    1    2 ar   
     3    1   37 1    
     4    2    3 ar   
     5    2   38 1    
     6    3    4 ar   
     7    3   39 1    
     8    4    5 ar   
     9    4   36 1    
    10    5    6 ar   
    11    5    7 1    
    12    6   40 1    
    13    7   30 ar   
    14    7    8 ar   
    15    8    9 ar   
    16    8   41 1    
    17    9   17 ar   
    18    9   10 ar   
    19   10   11 ar   
    20   10   29 ar   
    21   11   16 ar   
    22   11   12 ar   
    23   12   13 ar   
    24   12   42 1    
    25   13   14 ar   
    26   13   28 1    
    27   14   15 ar   
    28   14   19 1    
    29   15   16 ar   
    30   15   43 1    
    31   16   17 ar   
    32   17   18 1    
    33   19   20 1    
    34   19   44 1    
    35   19   45 1    
    36   20   21 1    
    37   20   46 1    
    38   20   47 1    
    39   21   22 1    
    40   21   48 1    
    41   21   49 1    
    42   22   23 1    
    43   22   50 1    
    44   22   51 1    
    45   23   27 ar   
    46   23   24 ar   
    47   24   25 ar   
    48   24   52 1    
    49   25   26 ar   
    50   25   53 1    
    51   26   27 ar   
    52   26   54 1    
    53   27   55 1    
    54   28   56 1    
    55   29   34 1    
    56   29   30 ar   
    57   30   31 1    
    58   31   32 2    
    59   31   33 am   BACKBONE|DICT|INTERRES
    60   33   34 am   BACKBONE|DICT|INTERRES
    61   33   57 1    
    62   34   35 2    
@<TRIPOS>SUBSTRUCTURE
     1 UNK         1 GROUP             0       ****    0 ROOT    
