CHEMBL378347_7
                    3D
 Schrodinger Suite 2024-2.
 36 40  0  0  1  0            999 V2000
   -0.4919   52.0065   30.0556 C   0  0  0  0  0  0
   -0.5643   51.9584   28.6636 C   0  0  0  0  0  0
    0.5373   52.4426   27.9493 C   0  0  0  0  0  0
    1.6847   52.9717   28.5954 C   0  0  0  0  0  0
    1.7220   52.9738   30.0010 C   0  0  0  0  0  0
    0.6346   52.4883   30.7157 C   0  0  0  0  0  0
    0.7043   52.4027   32.0815 O   0  0  0  0  0  0
    2.5919   53.3785   27.5859 C   0  0  0  0  0  0
    2.0106   53.0597   26.3380 C   0  0  0  0  0  0
    0.7753   52.4964   26.5917 N   0  0  0  0  0  0
    0.1372   52.1610   25.8846 H   0  0  0  0  0  0
    2.6693   53.2969   25.1257 C   0  0  0  0  0  0
    3.9530   53.8830   25.1378 C   0  0  0  0  0  0
    4.5251   54.2222   26.3911 C   0  0  0  0  0  0
    3.8627   53.9743   27.5771 C   0  0  0  0  0  0
    4.7054   54.4601   28.6937 C   0  0  0  0  0  0
    4.4459   54.4966   29.8887 O   0  0  0  0  0  0
    5.8353   54.8960   28.1255 N   0  0  0  0  0  0
    5.8152   54.8964   26.7859 C   0  0  0  0  0  0
    6.7036   55.4065   26.1061 O   0  0  0  0  0  0
    4.6370   54.0969   23.8108 C   0  0  0  0  0  0
    6.0340   54.0974   23.6754 C   0  0  0  0  0  0
    6.6193   54.4953   22.4783 C   0  0  0  0  0  0
    5.9038   54.6765   21.3434 N   0  0  0  0  0  0
    4.5620   54.5000   21.4196 C   0  0  0  0  0  0
    3.8976   54.2775   22.6251 C   0  0  0  0  0  0
   -1.2994   51.5909   30.6398 H   0  0  0  0  0  0
   -1.4270   51.5304   28.1719 H   0  0  0  0  0  0
    2.5851   53.2989   30.5462 H   0  0  0  0  0  0
   -0.1457   52.1026   32.4739 H   0  0  0  0  0  0
    2.2002   52.9956   24.2024 H   0  0  0  0  0  0
    6.5924   55.3024   28.6633 H   0  0  0  0  0  0
    6.6863   53.8046   24.4789 H   0  0  0  0  0  0
    7.6936   54.5626   22.3901 H   0  0  0  0  0  0
    4.0069   54.6309   20.5013 H   0  0  0  0  0  0
    2.8185   54.2671   22.6142 H   0  0  0  0  0  0
  1  6  2  0  0  0
  1  2  1  0  0  0
  1 27  1  0  0  0
  2  3  2  0  0  0
  2 28  1  0  0  0
  3 10  1  0  0  0
  3  4  1  0  0  0
  4  5  2  0  0  0
  4  8  1  0  0  0
  5  6  1  0  0  0
  5 29  1  0  0  0
  6  7  1  0  0  0
  7 30  1  0  0  0
  8 15  2  0  0  0
  8  9  1  0  0  0
  9 10  1  0  0  0
  9 12  2  0  0  0
 10 11  1  0  0  0
 12 13  1  0  0  0
 12 31  1  0  0  0
 13 14  2  0  0  0
 13 21  1  0  0  0
 14 19  1  0  0  0
 14 15  1  0  0  0
 15 16  1  0  0  0
 16 17  2  0  0  0
 16 18  1  0  0  0
 18 19  1  0  0  0
 18 32  1  0  0  0
 19 20  2  0  0  0
 21 26  2  0  0  0
 21 22  1  0  0  0
 22 23  2  0  0  0
 22 33  1  0  0  0
 23 24  1  0  0  0
 23 34  1  0  0  0
 24 25  2  0  0  0
 25 26  1  0  0  0
 25 35  1  0  0  0
 26 36  1  0  0  0
M  END
> <i_i_glide_confnum>
1

> <i_i_glide_lignum>
8

> <i_i_glide_posenum>
311

> <i_i_glide_rotatable_bonds>
2

> <i_m_Source_File_Index>
50

> <b_m_subgroup_collapsed>
0

> <r_i_docking_score>
-9.9713

> <r_i_glide_ecoul>
-13.9032

> <r_i_glide_eff_state_penalty>
0

> <r_i_glide_einternal>
6.42521

> <r_i_glide_emodel>
-81.6457

> <r_i_glide_energy>
-51.287

> <r_i_glide_erotb>
0.121308

> <r_i_glide_esite>
0

> <r_i_glide_evdw>
-37.3838

> <r_i_glide_gscore>
-9.9713

> <r_i_glide_hbond>
-0.757148

> <r_i_glide_ligand_efficiency>
-0.398852

> <r_i_glide_ligand_efficiency_ln>
-2.3635

> <r_i_glide_ligand_efficiency_sa>
-1.16625

> <r_i_glide_lipo>
-2.57046

> <r_i_glide_metal>
0

> <r_i_glide_rewards>
-2.81034

> <s_i_glide_gridfile>
wee1_glide-grid

> <s_m_Source_File>
wee1_actives_glide_SP.sdf

> <s_m_Source_Path>
/Users/zhangxujun/Desktop

> <s_m_entry_id>
188

> <s_m_entry_name>
wee1_actives_glide_SP.50

> <s_m_subgroup_title>
wee1_actives_glide_SP

> <s_m_subgroupid>
wee1_actives_glide_SP


$$$$
