CHEMBL510668_116
                    3D
 Schrodinger Suite 2024-2.
 60 65  0  0  1  0            999 V2000
   -0.1112   52.7889   30.4394 C   0  0  0  0  0  0
    0.5148   54.0280   30.3584 C   0  0  0  0  0  0
    1.3471   54.3014   29.2775 C   0  0  0  0  0  0
    1.5872   53.3280   28.2993 C   0  0  0  0  0  0
    0.9098   52.1063   28.3714 C   0  0  0  0  0  0
    0.0506   51.8422   29.4326 C   0  0  0  0  0  0
    2.5549   53.5797   27.1978 C   0  0  0  0  0  0
    2.1190   53.4456   25.8734 C   0  0  0  0  0  0
    3.0208   53.7315   24.8337 C   0  0  0  0  0  0
    4.3695   54.0970   25.0848 C   0  0  0  0  0  0
    4.9991   54.3066   23.8314 C   0  0  0  0  0  0
    6.3046   54.6765   23.4371 C   0  0  0  0  0  0
    6.5739   54.8964   22.0866 C   0  0  0  0  0  0
    5.5856   54.7098   21.1279 C   0  0  0  0  0  0
    4.2975   54.3024   21.4672 C   0  0  0  0  0  0
    4.0106   54.1101   22.8264 C   0  0  0  0  0  0
    2.8279   53.7535   23.4625 N   0  0  0  0  0  0
    1.5558   53.4484   22.8120 C   0  0  0  0  0  0
    1.4104   51.9429   22.4849 C   0  0  0  0  0  0
    2.3155   51.3997   21.3555 C   0  0  0  0  0  0
    2.0410   52.0966   19.9976 N   0  3  0  0  0  0
    0.6147   51.8355   19.4602 C   0  0  0  0  0  0
    0.4599   52.5250   18.0900 C   0  0  0  0  0  0
    1.4707   52.0997   17.1817 O   0  0  0  0  0  0
    2.8128   52.3322   17.6040 C   0  0  0  0  0  0
    3.1042   51.6603   18.9587 C   0  0  0  0  0  0
    7.8236   55.2968   21.6825 O   0  0  0  0  0  0
    4.7762   54.1869   26.4282 C   0  0  0  0  0  0
    3.8869   53.9420   27.4455 C   0  0  0  0  0  0
    4.6295   54.1416   28.7273 C   0  0  0  0  0  0
    4.2251   54.0375   29.8826 O   0  0  0  0  0  0
    5.8770   54.4909   28.3723 N   0  0  0  0  0  0
    6.0687   54.5602   27.0470 C   0  0  0  0  0  0
    7.1043   54.8974   26.4951 O   0  0  0  0  0  0
   -0.7517   52.5637   31.2805 H   0  0  0  0  0  0
    0.3599   54.7667   31.1312 H   0  0  0  0  0  0
    1.8409   55.2601   29.2220 H   0  0  0  0  0  0
    1.0629   51.3482   27.6166 H   0  0  0  0  0  0
   -0.4705   50.8970   29.4907 H   0  0  0  0  0  0
    1.0961   53.1679   25.6695 H   0  0  0  0  0  0
    7.0919   54.8263   24.1541 H   0  0  0  0  0  0
    5.8235   54.8910   20.0892 H   0  0  0  0  0  0
    3.5470   54.1942   20.7013 H   0  0  0  0  0  0
    1.4670   54.0842   21.9375 H   0  0  0  0  0  0
    0.7465   53.7732   23.4682 H   0  0  0  0  0  0
    0.3664   51.7208   22.2663 H   0  0  0  0  0  0
    1.6160   51.3684   23.3897 H   0  0  0  0  0  0
    2.1671   50.3307   21.1856 H   0  0  0  0  0  0
    3.3703   51.5703   21.5804 H   0  0  0  0  0  0
   -0.0897   52.2724   20.1686 H   0  0  0  0  0  0
    0.4710   50.7543   19.4022 H   0  0  0  0  0  0
   -0.5152   52.3016   17.6561 H   0  0  0  0  0  0
    0.5121   53.6089   18.2140 H   0  0  0  0  0  0
    3.4969   51.9437   16.8470 H   0  0  0  0  0  0
    2.9918   53.4066   17.6826 H   0  0  0  0  0  0
    3.0970   50.5704   18.8817 H   0  0  0  0  0  0
    4.0764   51.9878   19.3306 H   0  0  0  0  0  0
    8.4788   55.2975   22.3948 H   0  0  0  0  0  0
    6.5954   54.7402   29.0392 H   0  0  0  0  0  0
    2.1317   53.0999   20.1105 H   0  0  0  0  0  0
  1  6  2  0  0  0
  1  2  1  0  0  0
  1 35  1  0  0  0
  2  3  2  0  0  0
  2 36  1  0  0  0
  3  4  1  0  0  0
  3 37  1  0  0  0
  4  5  2  0  0  0
  4  7  1  0  0  0
  5  6  1  0  0  0
  5 38  1  0  0  0
  6 39  1  0  0  0
  7 29  2  0  0  0
  7  8  1  0  0  0
  8  9  2  0  0  0
  8 40  1  0  0  0
  9 17  1  0  0  0
  9 10  1  0  0  0
 10 11  1  0  0  0
 10 28  2  0  0  0
 11 16  2  0  0  0
 11 12  1  0  0  0
 12 13  2  0  0  0
 12 41  1  0  0  0
 13 14  1  0  0  0
 13 27  1  0  0  0
 14 15  2  0  0  0
 14 42  1  0  0  0
 15 16  1  0  0  0
 15 43  1  0  0  0
 16 17  1  0  0  0
 17 18  1  0  0  0
 18 19  1  0  0  0
 18 44  1  0  0  0
 18 45  1  0  0  0
 19 20  1  0  0  0
 19 46  1  0  0  0
 19 47  1  0  0  0
 20 21  1  0  0  0
 20 48  1  0  0  0
 20 49  1  0  0  0
 21 26  1  0  0  0
 21 22  1  0  0  0
 21 60  1  0  0  0
 22 23  1  0  0  0
 22 50  1  0  0  0
 22 51  1  0  0  0
 23 24  1  0  0  0
 23 52  1  0  0  0
 23 53  1  0  0  0
 24 25  1  0  0  0
 25 26  1  0  0  0
 25 54  1  0  0  0
 25 55  1  0  0  0
 26 56  1  0  0  0
 26 57  1  0  0  0
 27 58  1  0  0  0
 28 33  1  0  0  0
 28 29  1  0  0  0
 29 30  1  0  0  0
 30 31  2  0  0  0
 30 32  1  0  0  0
 32 33  1  0  0  0
 32 59  1  0  0  0
 33 34  2  0  0  0
M  CHG  1  21   1
M  END
> <i_i_glide_confnum>
42

> <i_i_glide_lignum>
117

> <i_i_glide_posenum>
397

> <i_i_glide_rotatable_bonds>
6

> <i_m_Source_File_Index>
6

> <b_m_subgroup_collapsed>
0

> <r_i_docking_score>
-11.3164

> <r_i_glide_ecoul>
-15.4407

> <r_i_glide_eff_state_penalty>
0

> <r_i_glide_einternal>
2.26136

> <r_i_glide_emodel>
-112.867

> <r_i_glide_energy>
-64.3651

> <r_i_glide_erotb>
0.27002

> <r_i_glide_esite>
-0.0225168

> <r_i_glide_evdw>
-48.9244

> <r_i_glide_gscore>
-11.3164

> <r_i_glide_hbond>
-0.90796

> <r_i_glide_ligand_efficiency>
-0.332836

> <r_i_glide_ligand_efficiency_ln>
-2.50011

> <r_i_glide_ligand_efficiency_sa>
-1.07826

> <r_i_glide_lipo>
-3.60402

> <r_i_glide_metal>
0

> <r_i_glide_rewards>
-2.28961

> <s_i_glide_gridfile>
wee1_glide-grid

> <s_m_Source_File>
wee1_actives_glide_SP.sdf

> <s_m_Source_Path>
/Users/zhangxujun/Desktop

> <s_m_entry_id>
144

> <s_m_entry_name>
wee1_actives_glide_SP.6

> <s_m_subgroup_title>
wee1_actives_glide_SP

> <s_m_subgroupid>
wee1_actives_glide_SP


$$$$
