@<TRIPOS>MOLECULE
CHEMBL486828_86
59   64    1
SMALL
USER_CHARGES


@<TRIPOS>ATOM
      1 C1         -0.1928   53.0675   30.4794 C.ar      1 UNK         0.0000 
      2 C2          0.3788   54.3206   30.2881 C.ar      1 UNK         0.0000 
      3 C3          1.2147   54.5514   29.1946 C.ar      1 UNK         0.0000 
      4 C4          1.5390   53.5000   28.3102 C.ar      1 UNK         0.0000 
      5 C5          0.9239   52.2474   28.5097 C.ar      1 UNK         0.0000 
      6 C6          0.0501   52.0478   29.5716 C.ar      1 UNK         0.0000 
      7 Cl7         1.2093   50.8969   27.4749 Cl        1 UNK         0.0000 
      8 C8          2.5130   53.7050   27.1985 C.ar      1 UNK         0.0000 
      9 C9          2.0705   53.5967   25.8744 C.ar      1 UNK         0.0000 
     10 C10         2.9892   53.8111   24.8348 C.ar      1 UNK         0.0000 
     11 C11         4.3454   54.1482   25.0842 C.ar      1 UNK         0.0000 
     12 C12         4.9728   54.3423   23.8301 C.ar      1 UNK         0.0000 
     13 C13         6.2752   54.7211   23.4359 C.ar      1 UNK         0.0000 
     14 C14         6.5522   54.8970   22.0814 C.ar      1 UNK         0.0000 
     15 C15         5.5801   54.6439   21.1199 C.ar      1 UNK         0.0000 
     16 C16         4.2977   54.2152   21.4593 C.ar      1 UNK         0.0000 
     17 C17         3.9942   54.0946   22.8240 C.ar      1 UNK         0.0000 
     18 N18         2.8070   53.7611   23.4620 N.pl3     1 UNK         0.0000 
     19 C19         1.5353   53.4318   22.8180 C.3       1 UNK         0.0000 
     20 C20         1.1769   51.9355   22.9768 C.3       1 UNK         0.0000 
     21 C21        -0.3047   51.6273   22.6675 C.3       1 UNK         0.0000 
     22 N22        -1.2250   52.2704   23.6150 N.3       1 UNK         0.0000 
     23 C23        -1.2415   51.6019   24.9239 C.3       1 UNK         0.0000 
     24 C24        -2.2073   52.2961   25.9087 C.3       1 UNK         0.0000 
     25 O25        -3.5167   52.3861   25.3555 O.3       1 UNK         0.0000 
     26 C26        -3.5546   53.0243   24.0811 C.3       1 UNK         0.0000 
     27 C27        -2.5907   52.3413   23.0820 C.3       1 UNK         0.0000 
     28 O28         7.8039   55.2969   21.6816 O.3       1 UNK         0.0000 
     29 C29         4.7556   54.2356   26.4278 C.ar      1 UNK         0.0000 
     30 C30         3.8594   54.0089   27.4432 C.ar      1 UNK         0.0000 
     31 C31         4.6036   54.1725   28.7267 C.2       1 UNK         0.0000 
     32 O32         4.1871   54.0656   29.8781 O.2       1 UNK         0.0000 
     33 N33         5.8600   54.4963   28.3754 N.am      1 UNK         0.0000 
     34 C34         6.0573   54.5746   27.0501 C.2       1 UNK         0.0000 
     35 O35         7.1044   54.8957   26.5061 O.2       1 UNK         0.0000 
     36 Cl36        1.8012   56.1665   28.9598 Cl        1 UNK         0.0000 
     37 H37        -0.8885   52.8955   31.2863 H         1 UNK         0.0000 
     38 H38         0.1479   55.1244   30.9713 H         1 UNK         0.0000 
     39 H39        -0.4367   51.0900   29.6923 H         1 UNK         0.0000 
     40 H40         1.0382   53.3632   25.6648 H         1 UNK         0.0000 
     41 H41         7.0525   54.9103   24.1553 H         1 UNK         0.0000 
     42 H42         5.8278   54.7749   20.0771 H         1 UNK         0.0000 
     43 H43         3.5629   54.0293   20.6881 H         1 UNK         0.0000 
     44 H44         1.5632   53.6970   21.7628 H         1 UNK         0.0000 
     45 H45         0.7763   54.0662   23.2797 H         1 UNK         0.0000 
     46 H46         1.4352   51.5590   23.9666 H         1 UNK         0.0000 
     47 H47         1.8006   51.3567   22.2951 H         1 UNK         0.0000 
     48 H48        -0.4770   50.5493   22.6252 H         1 UNK         0.0000 
     49 H49        -0.5147   52.0120   21.6671 H         1 UNK         0.0000 
     50 H50        -0.2430   51.5952   25.3464 H         1 UNK         0.0000 
     51 H51        -1.5150   50.5519   24.8078 H         1 UNK         0.0000 
     52 H52        -2.2490   51.7436   26.8481 H         1 UNK         0.0000 
     53 H53        -1.8360   53.2966   26.1381 H         1 UNK         0.0000 
     54 H54        -4.5743   52.9793   23.7022 H         1 UNK         0.0000 
     55 H55        -3.2946   54.0794   24.1821 H         1 UNK         0.0000 
     56 H56        -2.9503   51.3416   22.8310 H         1 UNK         0.0000 
     57 H57        -2.5731   52.8966   22.1445 H         1 UNK         0.0000 
     58 H58         8.4538   55.3025   22.3984 H         1 UNK         0.0000 
     59 H59         6.5817   54.7276   29.0439 H         1 UNK         0.0000 
@<TRIPOS>BOND
     1    1    6 ar   
     2    1    2 ar   
     3    1   37 1    
     4    2    3 ar   
     5    2   38 1    
     6    3    4 ar   
     7    3   36 1    
     8    4    5 ar   
     9    4    8 1    
    10    5    6 ar   
    11    5    7 1    
    12    6   39 1    
    13    8   30 ar   
    14    8    9 ar   
    15    9   10 ar   
    16    9   40 1    
    17   10   18 ar   
    18   10   11 ar   
    19   11   12 ar   
    20   11   29 ar   
    21   12   17 ar   
    22   12   13 ar   
    23   13   14 ar   
    24   13   41 1    
    25   14   15 ar   
    26   14   28 1    
    27   15   16 ar   
    28   15   42 1    
    29   16   17 ar   
    30   16   43 1    
    31   17   18 ar   
    32   18   19 1    
    33   19   20 1    
    34   19   44 1    
    35   19   45 1    
    36   20   21 1    
    37   20   46 1    
    38   20   47 1    
    39   21   22 1    
    40   21   48 1    
    41   21   49 1    
    42   22   27 1    
    43   22   23 1    
    44   23   24 1    
    45   23   50 1    
    46   23   51 1    
    47   24   25 1    
    48   24   52 1    
    49   24   53 1    
    50   25   26 1    
    51   26   27 1    
    52   26   54 1    
    53   26   55 1    
    54   27   56 1    
    55   27   57 1    
    56   28   58 1    
    57   29   34 1    
    58   29   30 ar   
    59   30   31 1    
    60   31   32 2    
    61   31   33 am   BACKBONE|DICT|INTERRES
    62   33   34 am   BACKBONE|DICT|INTERRES
    63   33   59 1    
    64   34   35 2    
@<TRIPOS>SUBSTRUCTURE
     1 UNK         1 GROUP             0       ****    0 ROOT    
