@<TRIPOS>MOLECULE
CHEMBL485638_100
55   60    1
SMALL
USER_CHARGES


@<TRIPOS>ATOM
      1 C1          0.0972   51.8781   29.5178 C.ar      1 UNK         0.0000 
      2 C2         -0.2030   52.8263   30.4838 C.ar      1 UNK         0.0000 
      3 C3          0.3511   54.1047   30.4032 C.ar      1 UNK         0.0000 
      4 C4          1.2197   54.4230   29.3611 C.ar      1 UNK         0.0000 
      5 C5          1.5720   53.4462   28.4115 C.ar      1 UNK         0.0000 
      6 C6          0.9901   52.1745   28.4995 C.ar      1 UNK         0.0000 
      7 C7          2.5249   53.7037   27.3033 C.ar      1 UNK         0.0000 
      8 C8          2.0544   53.6093   25.9885 C.ar      1 UNK         0.0000 
      9 C9          2.9541   53.8620   24.9493 C.ar      1 UNK         0.0000 
     10 C10         4.3200   54.1917   25.1805 C.ar      1 UNK         0.0000 
     11 C11         4.9264   54.3808   23.9084 C.ar      1 UNK         0.0000 
     12 C12         6.2118   54.7424   23.4621 C.ar      1 UNK         0.0000 
     13 C13         6.4419   54.8953   22.0943 C.ar      1 UNK         0.0000 
     14 C14         5.4445   54.6281   21.1420 C.ar      1 UNK         0.0000 
     15 C15         4.1664   54.2543   21.5726 C.ar      1 UNK         0.0000 
     16 C16         3.9217   54.1465   22.9356 C.ar      1 UNK         0.0000 
     17 N17         2.7532   53.8363   23.5921 N.pl3     1 UNK         0.0000 
     18 H18         1.8741   53.6371   23.1405 H         1 UNK         0.0000 
     19 O19         5.7493   54.7601   19.7930 O.3       1 UNK         0.0000 
     20 C20         4.7707   54.4276   18.7945 C.3       1 UNK         0.0000 
     21 C21         4.5253   52.9008   18.6854 C.3       1 UNK         0.0000 
     22 C22         3.1417   52.4989   18.0988 C.3       1 UNK         0.0000 
     23 N23         2.3884   51.6261   19.0019 N.pl3     1 UNK         0.0000 
     24 C24         2.2528   50.2623   18.8995 C.ar      1 UNK         0.0000 
     25 C25         1.4840   49.7875   19.9488 C.ar      1 UNK         0.0000 
     26 C26         1.1306   50.8905   20.7274 C.ar      1 UNK         0.0000 
     27 C27         1.6799   52.0076   20.1198 C.ar      1 UNK         0.0000 
     28 O28         7.6921   55.2954   21.6857 O.3       1 UNK         0.0000 
     29 C29         4.7502   54.2611   26.5187 C.ar      1 UNK         0.0000 
     30 C30         3.8687   54.0157   27.5379 C.ar      1 UNK         0.0000 
     31 C31         4.6347   54.1331   28.8146 C.2       1 UNK         0.0000 
     32 O32         4.2354   53.9636   29.9645 O.2       1 UNK         0.0000 
     33 N33         5.8823   54.4761   28.4568 N.am      1 UNK         0.0000 
     34 C34         6.0656   54.5737   27.1269 C.2       1 UNK         0.0000 
     35 O35         7.1044   54.8790   26.5628 O.2       1 UNK         0.0000 
     36 Cl36        1.8208   56.0471   29.2804 Cl        1 UNK         0.0000 
     37 H37        -0.3570   50.8973   29.5753 H         1 UNK         0.0000 
     38 H38        -0.8916   52.5750   31.2798 H         1 UNK         0.0000 
     39 H39         0.0965   54.8457   31.1457 H         1 UNK         0.0000 
     40 H40         1.2354   51.4105   27.7754 H         1 UNK         0.0000 
     41 H41         1.0284   53.3471   25.7804 H         1 UNK         0.0000 
     42 H42         7.0175   54.9313   24.1554 H         1 UNK         0.0000 
     43 H43         3.3680   54.0570   20.8800 H         1 UNK         0.0000 
     44 H44         5.1458   54.7987   17.8420 H         1 UNK         0.0000 
     45 H45         3.8532   54.9917   18.9755 H         1 UNK         0.0000 
     46 H46         4.6888   52.4091   19.6481 H         1 UNK         0.0000 
     47 H47         5.3130   52.4965   18.0444 H         1 UNK         0.0000 
     48 H48         3.2851   51.9472   17.1633 H         1 UNK         0.0000 
     49 H49         2.5115   53.3615   17.8656 H         1 UNK         0.0000 
     50 H50         2.7049   49.7323   18.0771 H         1 UNK         0.0000 
     51 H51         1.2028   48.7588   20.1233 H         1 UNK         0.0000 
     52 H52         0.5290   50.8797   21.6239 H         1 UNK         0.0000 
     53 H53         1.6109   53.0477   20.3778 H         1 UNK         0.0000 
     54 H54         8.3640   55.2926   22.3799 H         1 UNK         0.0000 
     55 H55         6.6133   54.6913   29.1230 H         1 UNK         0.0000 
@<TRIPOS>BOND
     1    1    6 ar   
     2    1    2 ar   
     3    1   37 1    
     4    2    3 ar   
     5    2   38 1    
     6    3    4 ar   
     7    3   39 1    
     8    4    5 ar   
     9    4   36 1    
    10    5    6 ar   
    11    5    7 1    
    12    6   40 1    
    13    7   30 ar   
    14    7    8 ar   
    15    8    9 ar   
    16    8   41 1    
    17    9   17 ar   
    18    9   10 ar   
    19   10   11 ar   
    20   10   29 ar   
    21   11   16 ar   
    22   11   12 ar   
    23   12   13 ar   
    24   12   42 1    
    25   13   14 ar   
    26   13   28 1    
    27   14   15 ar   
    28   14   19 1    
    29   15   16 ar   
    30   15   43 1    
    31   16   17 ar   
    32   17   18 1    
    33   19   20 1    
    34   20   21 1    
    35   20   44 1    
    36   20   45 1    
    37   21   22 1    
    38   21   46 1    
    39   21   47 1    
    40   22   23 1    
    41   22   48 1    
    42   22   49 1    
    43   23   27 ar   
    44   23   24 ar   
    45   24   25 ar   
    46   24   50 1    
    47   25   26 ar   
    48   25   51 1    
    49   26   27 ar   
    50   26   52 1    
    51   27   53 1    
    52   28   54 1    
    53   29   34 1    
    54   29   30 ar   
    55   30   31 1    
    56   31   32 2    
    57   31   33 am   BACKBONE|DICT|INTERRES
    58   33   34 am   BACKBONE|DICT|INTERRES
    59   33   55 1    
    60   34   35 2    
@<TRIPOS>SUBSTRUCTURE
     1 UNK         1 GROUP             0       ****    0 ROOT    
