CHEMBL472208_4
                    3D
 Schrodinger Suite 2024-2.
 50 55  0  0  1  0            999 V2000
    0.0956   51.8719   29.4597 C   0  0  0  0  0  0
   -0.1491   52.8045   30.4623 C   0  0  0  0  0  0
    0.4081   54.0784   30.3808 C   0  0  0  0  0  0
    1.2455   54.4119   29.3159 C   0  0  0  0  0  0
    1.5651   53.4457   28.3376 C   0  0  0  0  0  0
    0.9584   52.1861   28.4162 C   0  0  0  0  0  0
    2.5226   53.7008   27.2257 C   0  0  0  0  0  0
    2.0693   53.5816   25.9054 C   0  0  0  0  0  0
    2.9754   53.8172   24.8559 C   0  0  0  0  0  0
    4.3310   54.1632   25.0960 C   0  0  0  0  0  0
    4.9505   54.3512   23.8371 C   0  0  0  0  0  0
    6.2508   54.7286   23.4380 C   0  0  0  0  0  0
    6.5248   54.8965   22.0819 C   0  0  0  0  0  0
    5.5519   54.6340   21.1235 C   0  0  0  0  0  0
    4.2692   54.2099   21.4700 C   0  0  0  0  0  0
    3.9689   54.0971   22.8365 C   0  0  0  0  0  0
    2.7812   53.7795   23.4830 N   0  0  0  0  0  0
    1.4987   53.4833   22.8465 C   0  0  0  0  0  0
    1.0743   52.0167   23.0590 C   0  0  0  0  0  0
   -0.7769   51.9136   23.1271 S   0  0  1  0  0  0
   -1.2935   52.0963   21.6966 O   0  0  0  0  0  0
   -0.8543   50.1120   23.4957 C   0  0  0  0  0  0
   -0.4560   49.6191   24.6438 N   0  0  0  0  0  0
   -0.6930   48.3451   24.4833 C   0  0  0  0  0  0
   -1.1968   48.0135   23.3271 N   0  5  0  0  0  0
   -1.3048   49.2108   22.6586 N   0  0  0  0  0  0
    7.7747   55.2978   21.6817 O   0  0  0  0  0  0
    4.7518   54.2510   26.4370 C   0  0  0  0  0  0
    3.8671   54.0183   27.4605 C   0  0  0  0  0  0
    4.6312   54.1545   28.7372 C   0  0  0  0  0  0
    4.2396   54.0118   29.8932 O   0  0  0  0  0  0
    5.8785   54.4966   28.3747 N   0  0  0  0  0  0
    6.0622   54.5830   27.0485 C   0  0  0  0  0  0
    7.1044   54.8969   26.4939 O   0  0  0  0  0  0
    1.8392   56.0393   29.2446 Cl  0  0  0  0  0  0
   -0.3693   50.8967   29.5038 H   0  0  0  0  0  0
   -0.8039   52.5449   31.2814 H   0  0  0  0  0  0
    0.1834   54.8109   31.1415 H   0  0  0  0  0  0
    1.1615   51.4328   27.6662 H   0  0  0  0  0  0
    1.0401   53.3182   25.7074 H   0  0  0  0  0  0
    7.0289   54.9276   24.1529 H   0  0  0  0  0  0
    5.7992   54.7560   20.0794 H   0  0  0  0  0  0
    3.5338   54.0212   20.7005 H   0  0  0  0  0  0
    1.5541   53.6968   21.7795 H   0  0  0  0  0  0
    0.7743   54.1746   23.2815 H   0  0  0  0  0  0
    1.4534   51.6032   23.9933 H   0  0  0  0  0  0
    1.4396   51.3827   22.2508 H   0  0  0  0  0  0
   -0.4925   47.6214   25.2608 H   0  0  0  0  0  0
    8.4248   55.2968   22.3984 H   0  0  0  0  0  0
    6.6062   54.7216   29.0387 H   0  0  0  0  0  0
  1  6  2  0  0  0
  1  2  1  0  0  0
  1 36  1  0  0  0
  2  3  2  0  0  0
  2 37  1  0  0  0
  3  4  1  0  0  0
  3 38  1  0  0  0
  4  5  2  0  0  0
  4 35  1  0  0  0
  5  6  1  0  0  0
  5  7  1  0  0  0
  6 39  1  0  0  0
  7 29  2  0  0  0
  7  8  1  0  0  0
  8  9  2  0  0  0
  8 40  1  0  0  0
  9 17  1  0  0  0
  9 10  1  0  0  0
 10 11  1  0  0  0
 10 28  2  0  0  0
 11 16  2  0  0  0
 11 12  1  0  0  0
 12 13  2  0  0  0
 12 41  1  0  0  0
 13 14  1  0  0  0
 13 27  1  0  0  0
 14 15  2  0  0  0
 14 42  1  0  0  0
 15 16  1  0  0  0
 15 43  1  0  0  0
 16 17  1  0  0  0
 17 18  1  0  0  0
 18 19  1  0  0  0
 18 44  1  0  0  0
 18 45  1  0  0  0
 19 20  1  0  0  0
 19 46  1  0  0  0
 19 47  1  0  0  0
 20 21  2  0  0  0
 20 22  1  0  0  0
 22 23  1  0  0  0
 22 26  2  0  0  0
 23 24  2  0  0  0
 24 48  1  0  0  0
 24 25  1  0  0  0
 25 26  1  0  0  0
 27 49  1  0  0  0
 28 33  1  0  0  0
 28 29  1  0  0  0
 29 30  1  0  0  0
 30 31  2  0  0  0
 30 32  1  0  0  0
 32 33  1  0  0  0
 32 50  1  0  0  0
 33 34  2  0  0  0
M  CHG  1  25  -1
M  END
> <i_i_glide_confnum>
25

> <i_i_glide_lignum>
5

> <i_i_glide_posenum>
82

> <i_i_glide_rotatable_bonds>
6

> <i_m_Source_File_Index>
97

> <b_m_subgroup_collapsed>
0

> <r_i_docking_score>
-11.9123

> <r_i_glide_ecoul>
-15.8933

> <r_i_glide_eff_state_penalty>
0

> <r_i_glide_einternal>
3.47573

> <r_i_glide_emodel>
-125.537

> <r_i_glide_energy>
-72.9142

> <r_i_glide_erotb>
0.224592

> <r_i_glide_esite>
-0.0589345

> <r_i_glide_evdw>
-57.0209

> <r_i_glide_gscore>
-11.9123

> <r_i_glide_hbond>
-0.898443

> <r_i_glide_ligand_efficiency>
-0.340351

> <r_i_glide_ligand_efficiency_ln>
-2.61501

> <r_i_glide_ligand_efficiency_sa>
-1.11331

> <r_i_glide_lipo>
-3.90749

> <r_i_glide_metal>
0

> <r_i_glide_rewards>
-2.03698

> <s_i_glide_gridfile>
wee1_glide-grid

> <s_m_Source_File>
wee1_actives_glide_SP.sdf

> <s_m_Source_Path>
/Users/zhangxujun/Desktop

> <s_m_entry_id>
235

> <s_m_entry_name>
wee1_actives_glide_SP.97

> <s_m_subgroup_title>
wee1_actives_glide_SP

> <s_m_subgroupid>
wee1_actives_glide_SP


$$$$
