@<TRIPOS>MOLECULE
ZINC18222551_2433
35   37    1
SMALL
USER_CHARGES


@<TRIPOS>ATOM
      1 C1          2.6985   50.5395   21.2824 C.ar      1 UNK         0.0000 
      2 C2          1.9819   49.3694   21.0521 C.ar      1 UNK         0.0000 
      3 C3          1.0220   49.3309   20.0431 C.ar      1 UNK         0.0000 
      4 C4          0.7652   50.4625   19.2695 C.ar      1 UNK         0.0000 
      5 C5          1.4778   51.6378   19.5007 C.ar      1 UNK         0.0000 
      6 C6          2.4588   51.6769   20.4955 C.ar      1 UNK         0.0000 
      7 N7          3.1367   52.8967   20.6623 N.am      1 UNK         0.0000 
      8 C8          4.3628   53.1013   21.1865 C.2       1 UNK         0.0000 
      9 O9          5.1039   52.2103   21.6032 O.2       1 UNK         0.0000 
     10 C10         4.8080   54.5681   21.2476 C.3       1 UNK         0.0000 
     11 S11         6.3757   54.8968   22.1363 S.3       1 UNK         0.0000 
     12 C12         5.8816   54.6471   23.8106 C.ar      1 UNK         0.0000 
     13 N13         4.5918   54.3821   24.2096 N.pl3     1 UNK         0.0000 
     14 H14         3.8233   54.2720   23.5662 H         1 UNK         0.0000 
     15 C15         4.5800   54.3116   25.5786 C.ar      1 UNK         0.0000 
     16 C16         3.5747   54.0947   26.5196 C.ar      1 UNK         0.0000 
     17 C17         3.9483   54.1070   27.8748 C.ar      1 UNK         0.0000 
     18 C18         5.2927   54.3043   28.2358 C.ar      1 UNK         0.0000 
     19 C19         6.2944   54.5099   27.2868 C.ar      1 UNK         0.0000 
     20 C20         5.9307   54.5265   25.9358 C.ar      1 UNK         0.0000 
     21 N21         6.7054   54.7391   24.8269 N.2       1 UNK         0.0000 
     22 N22         2.9153   53.9181   28.9212 N.pl3     1 UNK         0.0000 
     23 O23         1.7310   53.9327   28.5931 O.co2     1 UNK         0.0000 
     24 O24         3.2856   53.7669   30.0828 O.co2     1 UNK         0.0000 
     25 I25        -0.0343   47.5622   19.6843 I         1 UNK         0.0000 
     26 H26         3.4266   50.5416   22.0777 H         1 UNK         0.0000 
     27 H27         2.1805   48.4968   21.6569 H         1 UNK         0.0000 
     28 H28         0.0193   50.4271   18.4888 H         1 UNK         0.0000 
     29 H29         1.2798   52.5065   18.8905 H         1 UNK         0.0000 
     30 H30         2.6571   53.7042   20.2838 H         1 UNK         0.0000 
     31 H31         4.9368   54.9164   20.2225 H         1 UNK         0.0000 
     32 H32         4.0159   55.1754   21.6828 H         1 UNK         0.0000 
     33 H33         2.5508   53.9318   26.2144 H         1 UNK         0.0000 
     34 H34         5.5743   54.3179   29.2793 H         1 UNK         0.0000 
     35 H35         7.3161   54.6749   27.5957 H         1 UNK         0.0000 
@<TRIPOS>BOND
     1    1    6 ar   
     2    1    2 ar   
     3    1   26 1    
     4    2    3 ar   
     5    2   27 1    
     6    3    4 ar   
     7    3   25 1    
     8    4    5 ar   
     9    4   28 1    
    10    5    6 ar   
    11    5   29 1    
    12    6    7 1    
    13    7    8 am   BACKBONE|DICT|INTERRES
    14    7   30 1    
    15    8    9 2    
    16    8   10 1    
    17   10   11 1    
    18   10   31 1    
    19   10   32 1    
    20   11   12 1    
    21   12   21 ar   
    22   12   13 ar   
    23   13   14 1    
    24   13   15 ar   
    25   15   20 ar   
    26   15   16 ar   
    27   16   17 ar   
    28   16   33 1    
    29   17   18 ar   
    30   17   22 1    
    31   18   19 ar   
    32   18   34 1    
    33   19   20 ar   
    34   19   35 1    
    35   20   21 ar   
    36   22   23 2    
    37   22   24 1    
@<TRIPOS>SUBSTRUCTURE
     1 UNK         1 GROUP             0       ****    0 ROOT    
