@<TRIPOS>MOLECULE
ZINC08711966_3547
55   58    1
SMALL
USER_CHARGES


@<TRIPOS>ATOM
      1 C1          2.3634   53.7751   30.2032 C.3       1 UNK         0.0000 
      2 C2          2.2450   53.6241   28.7079 C.ar      1 UNK         0.0000 
      3 C3          1.2026   52.8807   28.1609 C.ar      1 UNK         0.0000 
      4 C4          1.1042   52.7490   26.7816 C.ar      1 UNK         0.0000 
      5 C5          2.0519   53.3445   25.9363 C.ar      1 UNK         0.0000 
      6 C6          3.0937   54.0957   26.5053 C.ar      1 UNK         0.0000 
      7 C7          3.1900   54.2305   27.8843 C.ar      1 UNK         0.0000 
      8 C8          1.9075   53.1806   24.4146 C.3       1 UNK         0.0000 
      9 H9          1.0717   53.8391   24.1684 H         1 UNK         0.0000 
     10 C10         3.1358   53.6771   23.6006 C.3       1 UNK         0.0000 
     11 C11         3.0686   53.4167   22.0813 C.3       1 UNK         0.0000 
     12 H12         2.3092   54.0890   21.6823 H         1 UNK         0.0000 
     13 N13         2.5705   52.0494   21.8979 N.pl3     1 UNK         0.0000 
     14 C14         1.7621   51.3477   22.7624 C.ar      1 UNK         0.0000 
     15 C15         1.4038   50.1812   22.1057 C.ar      1 UNK         0.0000 
     16 C16         2.0046   50.2760   20.8331 C.ar      1 UNK         0.0000 
     17 N17         2.6931   51.3967   20.7388 N.2       1 UNK         0.0000 
     18 C18         1.9030   49.3056   19.7537 C.2       1 UNK         0.0000 
     19 O19         1.9047   48.0980   19.9905 O.2       1 UNK         0.0000 
     20 N20         1.9026   49.7723   18.4808 N.am      1 UNK         0.0000 
     21 C21         1.4812   51.0429   18.0539 C.ar      1 UNK         0.0000 
     22 C22         0.2702   51.5961   18.4872 C.ar      1 UNK         0.0000 
     23 C23        -0.0929   52.8758   18.0766 C.ar      1 UNK         0.0000 
     24 C24         0.7450   53.6152   17.2322 C.ar      1 UNK         0.0000 
     25 C25         1.9462   53.0423   16.7932 C.ar      1 UNK         0.0000 
     26 C26         2.3051   51.7556   17.1865 C.ar      1 UNK         0.0000 
     27 C27         0.3940   55.0487   16.8037 C.3       1 UNK         0.0000 
     28 H28         1.1573   55.6978   17.2390 H         1 UNK         0.0000 
     29 C29         0.3802   55.2411   15.2749 C.3       1 UNK         0.0000 
     30 O30        -0.8542   55.5211   17.2817 O.3       1 UNK         0.0000 
     31 Cl31        0.4101   48.9226   22.7395 Cl        1 UNK         0.0000 
     32 N32         1.5039   51.8205   24.0291 N.pl3     1 UNK         0.0000 
     33 C33         4.4065   53.7060   21.3501 C.3       1 UNK         0.0000 
     34 F34         4.2788   53.6941   20.0232 F         1 UNK         0.0000 
     35 F35         4.8993   54.8966   21.6796 F         1 UNK         0.0000 
     36 F36         5.3288   52.8038   21.6874 F         1 UNK         0.0000 
     37 H37         1.7673   53.0361   30.7426 H         1 UNK         0.0000 
     38 H38         3.4065   53.6365   30.4891 H         1 UNK         0.0000 
     39 H39         2.0463   54.7801   30.4828 H         1 UNK         0.0000 
     40 H40         0.4686   52.4062   28.7977 H         1 UNK         0.0000 
     41 H41         0.2828   52.1751   26.3769 H         1 UNK         0.0000 
     42 H42         3.8434   54.5849   25.9029 H         1 UNK         0.0000 
     43 H43         3.9958   54.8113   28.3091 H         1 UNK         0.0000 
     44 H44         4.0514   53.2378   23.9961 H         1 UNK         0.0000 
     45 H45         3.2685   54.7497   23.7522 H         1 UNK         0.0000 
     46 H46         2.2722   49.1637   17.7625 H         1 UNK         0.0000 
     47 H47        -0.3812   51.0418   19.1473 H         1 UNK         0.0000 
     48 H48        -1.0228   53.2924   18.4314 H         1 UNK         0.0000 
     49 H49         2.6192   53.5961   16.1554 H         1 UNK         0.0000 
     50 H50         3.2443   51.3291   16.8572 H         1 UNK         0.0000 
     51 H51         1.3443   54.9963   14.8292 H         1 UNK         0.0000 
     52 H52         0.1602   56.2737   15.0028 H         1 UNK         0.0000 
     53 H53        -0.3716   54.6064   14.8012 H         1 UNK         0.0000 
     54 H54        -1.0252   56.3708   16.8656 H         1 UNK         0.0000 
     55 H55         0.6958   51.4798   24.5285 H         1 UNK         0.0000 
@<TRIPOS>BOND
     1    1    2 1    
     2    1   37 1    
     3    1   38 1    
     4    1   39 1    
     5    2    7 ar   
     6    2    3 ar   
     7    3    4 ar   
     8    3   40 1    
     9    4    5 ar   
    10    4   41 1    
    11    5    6 ar   
    12    5    8 1    
    13    6    7 ar   
    14    6   42 1    
    15    7   43 1    
    16    8    9 1    
    17    8   32 1    
    18    8   10 1    
    19   10   11 1    
    20   10   44 1    
    21   10   45 1    
    22   11   12 1    
    23   11   13 1    
    24   11   33 1    
    25   13   17 ar   
    26   13   14 ar   
    27   14   15 ar   
    28   14   32 1    
    29   15   16 ar   
    30   15   31 1    
    31   16   17 ar   
    32   16   18 1    
    33   18   19 2    
    34   18   20 am   BACKBONE|DICT|INTERRES
    35   20   21 1    
    36   20   46 1    
    37   21   26 ar   
    38   21   22 ar   
    39   22   23 ar   
    40   22   47 1    
    41   23   24 ar   
    42   23   48 1    
    43   24   25 ar   
    44   24   27 1    
    45   25   26 ar   
    46   25   49 1    
    47   26   50 1    
    48   27   28 1    
    49   27   29 1    
    50   27   30 1    
    51   29   51 1    
    52   29   52 1    
    53   29   53 1    
    54   30   54 1    
    55   32   55 1    
    56   33   34 1    
    57   33   35 1    
    58   33   36 1    
@<TRIPOS>SUBSTRUCTURE
     1 UNK         1 GROUP             0       ****    0 ROOT    
