@<TRIPOS>MOLECULE
ZINC12501461_3511
41   42    1
SMALL
USER_CHARGES


@<TRIPOS>ATOM
      1 C1         -0.7906   49.3973   24.4912 C.3       1 UNK         0.0000 
      2 C2         -0.4819   50.8513   24.9192 C.3       1 UNK         0.0000 
      3 H3          0.3380   51.1903   24.2843 H         1 UNK         0.0000 
      4 C4          0.0618   51.0095   26.3603 C.2       1 UNK         0.0000 
      5 O5          0.7044   50.0968   26.8736 O.2       1 UNK         0.0000 
      6 N6         -0.1897   52.1763   26.9852 N.am      1 UNK         0.0000 
      7 N7          0.0369   52.2612   28.3585 N.pl3     1 UNK         0.0000 
      8 C8          1.1480   52.8231   28.9119 C.2       1 UNK         0.0000 
      9 S9          1.1303   52.8967   30.5762 S.2       1 UNK         0.0000 
     10 N10         2.1394   53.2356   28.0493 N.am      1 UNK         0.0000 
     11 C11         3.2785   53.9526   28.2341 C.2       1 UNK         0.0000 
     12 O12         3.6128   54.4985   29.2890 O.2       1 UNK         0.0000 
     13 C13         4.1339   54.1075   26.9923 C.ar      1 UNK         0.0000 
     14 C14         3.5198   54.3217   25.7446 C.ar      1 UNK         0.0000 
     15 C15         4.2785   54.4966   24.5886 C.ar      1 UNK         0.0000 
     16 C16         5.6680   54.4683   24.6558 C.ar      1 UNK         0.0000 
     17 C17         6.2945   54.2387   25.8762 C.ar      1 UNK         0.0000 
     18 C18         5.5454   54.0464   27.0381 C.ar      1 UNK         0.0000 
     19 Cl19        6.4341   53.6977   28.4816 Cl        1 UNK         0.0000 
     20 Cl20        6.6133   54.6963   23.2301 Cl        1 UNK         0.0000 
     21 O21        -1.5681   51.7522   24.6248 O.3       1 UNK         0.0000 
     22 C22        -2.7764   51.7760   25.3111 C.ar      1 UNK         0.0000 
     23 C23        -3.1305   50.8979   26.3521 C.ar      1 UNK         0.0000 
     24 C24        -4.3475   51.0374   27.0181 C.ar      1 UNK         0.0000 
     25 C25        -5.2329   52.0492   26.6519 C.ar      1 UNK         0.0000 
     26 C26        -4.9030   52.9164   25.6128 C.ar      1 UNK         0.0000 
     27 C27        -3.6833   52.7821   24.9486 C.ar      1 UNK         0.0000 
     28 Cl28       -3.2962   53.8923   23.6818 Cl        1 UNK         0.0000 
     29 Cl29       -6.7282   52.2383   27.4917 Cl        1 UNK         0.0000 
     30 H30         0.0789   48.7513   24.6257 H         1 UNK         0.0000 
     31 H31        -1.6084   48.9511   25.0544 H         1 UNK         0.0000 
     32 H32        -1.0619   49.3577   23.4365 H         1 UNK         0.0000 
     33 H33        -0.8110   52.8868   26.6264 H         1 UNK         0.0000 
     34 H34        -0.8237   52.2137   28.8863 H         1 UNK         0.0000 
     35 H35         2.0381   52.8821   27.1108 H         1 UNK         0.0000 
     36 H36         2.4443   54.3718   25.6523 H         1 UNK         0.0000 
     37 H37         3.7872   54.6670   23.6411 H         1 UNK         0.0000 
     38 H38         7.3710   54.1895   25.9194 H         1 UNK         0.0000 
     39 H39        -2.4735   50.1080   26.6847 H         1 UNK         0.0000 
     40 H40        -4.5954   50.3607   27.8239 H         1 UNK         0.0000 
     41 H41        -5.5916   53.6977   25.3257 H         1 UNK         0.0000 
@<TRIPOS>BOND
     1    1    2 1    
     2    1   30 1    
     3    1   31 1    
     4    1   32 1    
     5    2    3 1    
     6    2    4 1    
     7    2   21 1    
     8    4    5 2    
     9    4    6 am   BACKBONE|DICT|INTERRES
    10    6    7 1    
    11    6   33 1    
    12    7    8 1    
    13    7   34 1    
    14    8    9 2    
    15    8   10 am   BACKBONE|DICT|INTERRES
    16   10   11 am   BACKBONE|DICT|INTERRES
    17   10   35 1    
    18   11   12 2    
    19   11   13 1    
    20   13   18 ar   
    21   13   14 ar   
    22   14   15 ar   
    23   14   36 1    
    24   15   16 ar   
    25   15   37 1    
    26   16   17 ar   
    27   16   20 1    
    28   17   18 ar   
    29   17   38 1    
    30   18   19 1    
    31   21   22 1    
    32   22   27 ar   
    33   22   23 ar   
    34   23   24 ar   
    35   23   39 1    
    36   24   25 ar   
    37   24   40 1    
    38   25   26 ar   
    39   25   29 1    
    40   26   27 ar   
    41   26   41 1    
    42   27   28 1    
@<TRIPOS>SUBSTRUCTURE
     1 UNK         1 GROUP             0       ****    0 ROOT    
