@<TRIPOS>MOLECULE
ZINC36093611_773
55   60    1
SMALL
USER_CHARGES


@<TRIPOS>ATOM
      1 C1         13.3297   50.4409   15.3105 C.3       1 UNK         0.0000 
      2 N2         12.2789   51.5208   15.6541 N.4       1 UNK         0.0000 
      3 C3         12.8037   52.4498   16.7745 C.3       1 UNK         0.0000 
      4 C4         11.8560   53.6707   16.9031 C.3       1 UNK         0.0000 
      5 C5         10.3887   53.2375   16.8770 C.2       1 UNK         0.0000 
      6 C6         10.0165   51.9427   16.4777 C.2       1 UNK         0.0000 
      7 S7          8.3050   51.6971   16.5319 S.3       1 UNK         0.0000 
      8 C8          8.0757   53.2894   17.1442 C.2       1 UNK         0.0000 
      9 C9          9.2684   54.0100   17.2559 C.2       1 UNK         0.0000 
     10 C10         9.1279   55.3936   17.6963 C.2       1 UNK         0.0000 
     11 N11         8.0569   55.9270   18.1219 N.2       1 UNK         0.0000 
     12 C12         6.8467   55.0817   18.2082 C.3       1 UNK         0.0000 
     13 H13         6.0429   55.6625   17.7509 H         1 UNK         0.0000 
     14 N14         6.8321   53.7932   17.4715 N.pl3     1 UNK         0.0000 
     15 C15         6.3854   54.9178   19.6736 C.ar      1 UNK         0.0000 
     16 C16         7.1041   55.4691   20.7459 C.ar      1 UNK         0.0000 
     17 C17         6.6887   55.2668   22.0534 C.ar      1 UNK         0.0000 
     18 C18         5.5462   54.4967   22.3280 C.ar      1 UNK         0.0000 
     19 C19         4.8055   53.9810   21.2655 C.ar      1 UNK         0.0000 
     20 C20         5.2182   54.1908   19.9514 C.ar      1 UNK         0.0000 
     21 O21         5.0622   54.3065   23.6117 O.3       1 UNK         0.0000 
     22 C22         5.8974   54.1028   24.6777 C.2       1 UNK         0.0000 
     23 O23         7.1044   53.8757   24.5746 O.2       1 UNK         0.0000 
     24 C24         5.2212   54.2350   26.0037 C.ar      1 UNK         0.0000 
     25 C25         6.0265   54.2944   27.1612 C.ar      1 UNK         0.0000 
     26 C26         5.4628   54.4293   28.4314 C.ar      1 UNK         0.0000 
     27 C27         4.0787   54.4923   28.5238 C.ar      1 UNK         0.0000 
     28 C28         3.2852   54.4291   27.4142 C.ar      1 UNK         0.0000 
     29 C29         3.8176   54.2962   26.1346 C.ar      1 UNK         0.0000 
     30 O30         1.9816   54.4930   27.7926 O.3       1 UNK         0.0000 
     31 C31         2.0000   54.8289   29.1547 C.3       1 UNK         0.0000 
     32 O32         3.2991   54.5955   29.6330 O.3       1 UNK         0.0000 
     33 O33        10.1869   56.2595   17.6818 O.3       1 UNK         0.0000 
     34 C34        10.9760   50.8255   16.1093 C.3       1 UNK         0.0000 
     35 H35        13.5306   49.8504   16.2064 H         1 UNK         0.0000 
     36 H36        12.9187   49.8206   14.5102 H         1 UNK         0.0000 
     37 H37        14.2284   50.9538   14.9641 H         1 UNK         0.0000 
     38 H38        12.8521   51.8500   17.6870 H         1 UNK         0.0000 
     39 H39        13.8086   52.7729   16.4951 H         1 UNK         0.0000 
     40 H40        12.0282   54.3552   16.0713 H         1 UNK         0.0000 
     41 H41        12.0983   54.2196   17.8129 H         1 UNK         0.0000 
     42 H42         6.1017   53.1690   17.7869 H         1 UNK         0.0000 
     43 H43         8.0039   56.0449   20.5876 H         1 UNK         0.0000 
     44 H44         7.2676   55.7084   22.8521 H         1 UNK         0.0000 
     45 H45         3.9026   53.4195   21.4578 H         1 UNK         0.0000 
     46 H46         4.6247   53.7750   19.1499 H         1 UNK         0.0000 
     47 H47         7.1043   54.2427   27.0900 H         1 UNK         0.0000 
     48 H48         6.1114   54.4932   29.2860 H         1 UNK         0.0000 
     49 H49         3.1644   54.2407   25.2756 H         1 UNK         0.0000 
     50 H50         1.7599   55.8887   29.2668 H         1 UNK         0.0000 
     51 H51         1.2700   54.2330   29.7043 H         1 UNK         0.0000 
     52 H52        10.9664   55.8188   18.0225 H         1 UNK         0.0000 
     53 H53        11.2022   50.1784   16.9600 H         1 UNK         0.0000 
     54 H54        10.6352   50.2249   15.2630 H         1 UNK         0.0000 
     55 H55        12.1114   52.0649   14.8171 H         1 UNK         0.0000 
@<TRIPOS>BOND
     1    1    2 1    
     2    1   35 1    
     3    1   36 1    
     4    1   37 1    
     5    2   34 1    
     6    2    3 1    
     7    2   55 1    
     8    3    4 1    
     9    3   38 1    
    10    3   39 1    
    11    4    5 1    
    12    4   40 1    
    13    4   41 1    
    14    5    9 1    
    15    5    6 2    
    16    6    7 1    
    17    6   34 1    
    18    7    8 1    
    19    8   14 1    
    20    8    9 2    
    21    9   10 1    
    22   10   11 2    
    23   10   33 1    
    24   11   12 1    
    25   12   13 1    
    26   12   14 1    
    27   12   15 1    
    28   14   42 1    
    29   15   20 ar   
    30   15   16 ar   
    31   16   17 ar   
    32   16   43 1    
    33   17   18 ar   
    34   17   44 1    
    35   18   19 ar   
    36   18   21 1    
    37   19   20 ar   
    38   19   45 1    
    39   20   46 1    
    40   21   22 1    
    41   22   23 2    
    42   22   24 1    
    43   24   29 ar   
    44   24   25 ar   
    45   25   26 ar   
    46   25   47 1    
    47   26   27 ar   
    48   26   48 1    
    49   27   32 1    
    50   27   28 ar   
    51   28   29 ar   
    52   28   30 1    
    53   29   49 1    
    54   30   31 1    
    55   31   32 1    
    56   31   50 1    
    57   31   51 1    
    58   33   52 1    
    59   34   53 1    
    60   34   54 1    
@<TRIPOS>SUBSTRUCTURE
     1 UNK         1 GROUP             0       ****    0 ROOT    
