ZINC66859927_4714
                    3D
 Schrodinger Suite 2024-2.
 40 43  0  0  1  0            999 V2000
    1.0482   49.5050   22.4702 C   0  0  0  0  0  0
    0.3328   50.3492   23.3073 C   0  0  0  0  0  0
    0.7980   51.6382   23.5458 C   0  0  0  0  0  0
    1.9887   52.1176   22.9728 C   0  0  0  0  0  0
    2.6899   51.2616   22.0816 C   0  0  0  0  0  0
    2.2116   49.9638   21.8613 C   0  0  0  0  0  0
    3.9321   51.7302   21.3233 C   0  0  0  0  0  0
    4.6281   52.9251   21.9908 C   0  0  0  0  0  0
    3.5967   54.0068   22.3351 C   0  0  0  0  0  0
    2.5209   53.5252   23.3436 C   0  0  2  0  0  0
    3.0751   53.5906   24.8059 C   0  0  0  0  0  0
    2.1149   53.3000   25.8777 N   0  0  0  0  0  0
    2.4488   53.4235   27.2365 C   0  0  0  0  0  0
    1.5519   52.9451   28.2129 C   0  0  0  0  0  0
    0.2739   52.2862   28.2472 C   0  0  0  0  0  0
   -0.0416   52.0972   29.5811 C   0  0  0  0  0  0
    0.9675   52.6032   30.3679 N   0  0  0  0  0  0
    0.9411   52.5679   31.3772 H   0  0  0  0  0  0
    1.9610   53.1239   29.5650 C   0  0  0  0  0  0
    3.1034   53.6935   29.9677 N   0  0  0  0  0  0
    3.8813   54.1104   28.9329 C   0  0  0  0  0  0
    3.6216   54.0117   27.6041 N   0  0  0  0  0  0
    1.5005   54.4965   23.2812 O   0  0  0  0  0  0
    0.6956   48.5002   22.2855 H   0  0  0  0  0  0
   -0.5766   50.0046   23.7777 H   0  0  0  0  0  0
    0.2241   52.2757   24.2016 H   0  0  0  0  0  0
    2.7432   49.3034   21.1911 H   0  0  0  0  0  0
    4.6380   50.9078   21.1932 H   0  0  0  0  0  0
    3.6212   52.0187   20.3177 H   0  0  0  0  0  0
    5.1732   52.6148   22.8811 H   0  0  0  0  0  0
    5.3793   53.3326   21.3128 H   0  0  0  0  0  0
    4.1025   54.8967   22.7102 H   0  0  0  0  0  0
    3.1160   54.3147   21.4030 H   0  0  0  0  0  0
    3.9052   52.8973   24.9190 H   0  0  0  0  0  0
    3.5083   54.5742   24.9960 H   0  0  0  0  0  0
    1.3469   52.6878   25.6518 H   0  0  0  0  0  0
   -0.3403   51.9741   27.4139 H   0  0  0  0  0  0
   -0.9011   51.6275   30.0447 H   0  0  0  0  0  0
    4.8195   54.5778   29.1982 H   0  0  0  0  0  0
    1.2802   54.6168   22.3525 H   0  0  0  0  0  0
  1  6  2  0  0  0
  1  2  1  0  0  0
  1 24  1  0  0  0
  2  3  2  0  0  0
  2 25  1  0  0  0
  3  4  1  0  0  0
  3 26  1  0  0  0
  4 10  1  0  0  0
  4  5  2  0  0  0
  5  6  1  0  0  0
  5  7  1  0  0  0
  6 27  1  0  0  0
  7  8  1  0  0  0
  7 28  1  0  0  0
  7 29  1  0  0  0
  8  9  1  0  0  0
  8 30  1  0  0  0
  8 31  1  0  0  0
  9 10  1  0  0  0
  9 32  1  0  0  0
  9 33  1  0  0  0
 10 11  1  0  0  0
 10 23  1  0  0  0
 11 12  1  0  0  0
 11 34  1  0  0  0
 11 35  1  0  0  0
 12 13  1  0  0  0
 12 36  1  0  0  0
 13 22  2  0  0  0
 13 14  1  0  0  0
 14 19  2  0  0  0
 14 15  1  0  0  0
 15 16  2  0  0  0
 15 37  1  0  0  0
 16 17  1  0  0  0
 16 38  1  0  0  0
 17 18  1  0  0  0
 17 19  1  0  0  0
 19 20  1  0  0  0
 20 21  2  0  0  0
 21 22  1  0  0  0
 21 39  1  0  0  0
 23 40  1  0  0  0
M  END
> <i_i_glide_confnum>
29

> <i_i_glide_lignum>
4715

> <i_i_glide_posenum>
147

> <i_i_glide_rotatable_bonds>
4

> <i_m_Source_File_Index>
1897

> <b_m_subgroup_collapsed>
0

> <r_i_docking_score>
-5.70243

> <r_i_glide_ecoul>
-4.19024

> <r_i_glide_eff_state_penalty>
0

> <r_i_glide_einternal>
2.79133

> <r_i_glide_emodel>
-45.9958

> <r_i_glide_energy>
-35.5778

> <r_i_glide_erotb>
0.633197

> <r_i_glide_esite>
-0.0046466

> <r_i_glide_evdw>
-31.3876

> <r_i_glide_gscore>
-5.70243

> <r_i_glide_hbond>
-0.435795

> <r_i_glide_ligand_efficiency>
-0.259201

> <r_i_glide_ligand_efficiency_ln>
-1.39388

> <r_i_glide_ligand_efficiency_sa>
-0.726292

> <r_i_glide_lipo>
-1.77029

> <r_i_glide_metal>
0

> <r_i_glide_rewards>
-1.92697

> <s_i_glide_gridfile>
wee1_glide-grid

> <s_m_Source_File>
wee1_decoys_glide_SP.sdf

> <s_m_Source_Path>
/Users/zhangxujun/Desktop

> <s_m_entry_id>
2172

> <s_m_entry_name>
wee1_decoys_glide_SP.1897

> <s_m_subgroup_title>
wee1_decoys_glide_SP

> <s_m_subgroupid>
wee1_decoys_glide_SP


$$$$
