ZINC36252660_6144
                    3D
 Schrodinger Suite 2024-2.
 29 31  0  0  1  0            999 V2000
    2.2070   53.2733   25.5475 C   0  0  0  0  0  0
    3.5223   53.7900   24.9640 C   0  0  0  0  0  0
    3.7157   53.8959   23.5762 C   0  0  0  0  0  0
    4.9611   54.2413   23.0603 C   0  0  0  0  0  0
    6.0346   54.5430   23.8961 C   0  0  0  0  0  0
    5.8377   54.4945   25.2816 C   0  0  0  0  0  0
    4.5779   54.1174   25.8059 N   0  0  0  0  0  0
    4.7788   54.1539   27.1886 C   0  0  0  0  0  0
    6.0241   54.4972   27.4574 N   0  0  0  0  0  0
    6.7042   54.7444   26.2850 N   0  0  0  0  0  0
    3.8015   53.8513   28.2735 C   0  0  0  0  0  0
    2.5746   54.5147   28.3770 C   0  0  0  0  0  0
    1.6631   54.1693   29.3746 C   0  0  0  0  0  0
    1.9903   53.1848   30.3053 C   0  0  0  0  0  0
    3.2458   52.5762   30.2581 C   0  0  0  0  0  0
    4.1410   52.8988   29.2398 C   0  0  0  0  0  0
    3.6081   51.6972   31.2150 F   0  0  0  0  0  0
    1.1097   52.8597   31.2779 F   0  0  0  0  0  0
    2.6772   53.6615   22.6725 N   0  0  0  0  0  0
    1.6370   52.6918   24.8235 H   0  0  0  0  0  0
    2.3821   52.5977   26.3845 H   0  0  0  0  0  0
    1.5724   54.0962   25.8728 H   0  0  0  0  0  0
    5.1051   54.2961   21.9901 H   0  0  0  0  0  0
    6.9958   54.8185   23.4864 H   0  0  0  0  0  0
    2.3204   55.2964   27.6818 H   0  0  0  0  0  0
    0.7071   54.6643   29.4336 H   0  0  0  0  0  0
    5.1028   52.4114   29.2008 H   0  0  0  0  0  0
    1.7529   53.4780   23.0318 H   0  0  0  0  0  0
    2.8077   53.8613   21.6895 H   0  0  0  0  0  0
  1  2  1  0  0  0
  1 20  1  0  0  0
  1 21  1  0  0  0
  1 22  1  0  0  0
  2  7  1  0  0  0
  2  3  2  0  0  0
  3  4  1  0  0  0
  3 19  1  0  0  0
  4  5  2  0  0  0
  4 23  1  0  0  0
  5  6  1  0  0  0
  5 24  1  0  0  0
  6 10  2  0  0  0
  6  7  1  0  0  0
  7  8  1  0  0  0
  8  9  2  0  0  0
  8 11  1  0  0  0
  9 10  1  0  0  0
 11 16  2  0  0  0
 11 12  1  0  0  0
 12 13  2  0  0  0
 12 25  1  0  0  0
 13 14  1  0  0  0
 13 26  1  0  0  0
 14 15  2  0  0  0
 14 18  1  0  0  0
 15 16  1  0  0  0
 15 17  1  0  0  0
 16 27  1  0  0  0
 19 28  1  0  0  0
 19 29  1  0  0  0
M  END
> <i_i_glide_confnum>
1

> <i_i_glide_lignum>
6145

> <i_i_glide_posenum>
110

> <i_i_glide_rotatable_bonds>
1

> <i_m_Source_File_Index>
2348

> <b_m_subgroup_collapsed>
0

> <r_i_docking_score>
-7.33219

> <r_i_glide_ecoul>
-3.0559

> <r_i_glide_eff_state_penalty>
0

> <r_i_glide_einternal>
0.261275

> <r_i_glide_emodel>
-53.5958

> <r_i_glide_energy>
-37.6778

> <r_i_glide_erotb>
0.261333

> <r_i_glide_esite>
-0.0700959

> <r_i_glide_evdw>
-34.6219

> <r_i_glide_gscore>
-7.33219

> <r_i_glide_hbond>
0

> <r_i_glide_ligand_efficiency>
-0.385904

> <r_i_glide_ligand_efficiency_ln>
-1.85887

> <r_i_glide_ligand_efficiency_sa>
-1.02975

> <r_i_glide_lipo>
-2.2685

> <r_i_glide_metal>
0

> <r_i_glide_rewards>
-3.06545

> <s_i_glide_gridfile>
wee1_glide-grid

> <s_m_Source_File>
wee1_decoys_glide_SP.sdf

> <s_m_Source_Path>
/Users/zhangxujun/Desktop

> <s_m_entry_id>
2623

> <s_m_entry_name>
wee1_decoys_glide_SP.2348

> <s_m_subgroup_title>
wee1_decoys_glide_SP

> <s_m_subgroupid>
wee1_decoys_glide_SP


$$$$
