@<TRIPOS>MOLECULE
ZINC13206060_520
55   58    1
SMALL
USER_CHARGES


@<TRIPOS>ATOM
      1 C1          2.8605   57.0848   15.3362 C.3       1 UNK         0.0000 
      2 C2          3.7270   56.6845   16.5157 C.ar      1 UNK         0.0000 
      3 C3          4.7116   57.5577   16.9787 C.ar      1 UNK         0.0000 
      4 C4          5.4879   57.2037   18.0785 C.ar      1 UNK         0.0000 
      5 C5          5.2679   55.9899   18.7431 C.ar      1 UNK         0.0000 
      6 C6          4.3042   55.1050   18.2480 C.ar      1 UNK         0.0000 
      7 C7          3.5291   55.4551   17.1457 C.ar      1 UNK         0.0000 
      8 C8          6.0868   55.6568   19.9540 C.ar      1 UNK         0.0000 
      9 N9          7.3347   56.0436   20.0809 N.2       1 UNK         0.0000 
     10 N10         7.8121   55.5469   21.2815 N.2       1 UNK         0.0000 
     11 C11         6.8314   54.8970   21.8536 C.ar      1 UNK         0.0000 
     12 N12         5.6834   54.9585   21.0863 N.pl3     1 UNK         0.0000 
     13 C13         4.3425   54.4856   21.4683 C.3       1 UNK         0.0000 
     14 C14         4.1786   52.9623   21.5227 C.2       1 UNK         0.0000 
     15 O15         3.1063   52.5539   22.0179 O.co2     1 UNK         0.0000 
     16 S16         7.0283   53.9772   23.3421 S.3       1 UNK         0.0000 
     17 C17         6.5671   55.2952   24.4671 C.3       1 UNK         0.0000 
     18 C18         6.2373   54.7740   25.8518 C.2       1 UNK         0.0000 
     19 O19         7.1040   54.7419   26.7242 O.2       1 UNK         0.0000 
     20 N20         4.9482   54.4221   25.9947 N.am      1 UNK         0.0000 
     21 C21         4.2712   53.9633   27.1190 C.ar      1 UNK         0.0000 
     22 C22         4.8899   53.3671   28.2260 C.ar      1 UNK         0.0000 
     23 C23         4.1119   52.8966   29.2804 C.ar      1 UNK         0.0000 
     24 C24         2.7205   53.0633   29.2473 C.ar      1 UNK         0.0000 
     25 C25         2.1096   53.6499   28.1433 C.ar      1 UNK         0.0000 
     26 C26         2.8820   54.0775   27.0704 C.ar      1 UNK         0.0000 
     27 C27         0.6170   53.5934   28.2745 C.3       1 UNK         0.0000 
     28 C28         0.4179   53.1389   29.7098 C.3       1 UNK         0.0000 
     29 N29         1.7299   52.6469   30.1483 N.am      1 UNK         0.0000 
     30 C30         1.9194   52.0967   31.3687 C.2       1 UNK         0.0000 
     31 O31         3.0180   51.7141   31.7761 O.2       1 UNK         0.0000 
     32 C32         0.7056   51.8811   32.2629 C.3       1 UNK         0.0000 
     33 H33         3.3738   56.8818   14.3953 H         1 UNK         0.0000 
     34 H34         1.9055   56.5575   15.3449 H         1 UNK         0.0000 
     35 H35         2.6299   58.1504   15.3782 H         1 UNK         0.0000 
     36 H36         4.8688   58.5147   16.4980 H         1 UNK         0.0000 
     37 H37         6.2384   57.8952   18.4327 H         1 UNK         0.0000 
     38 H38         4.1478   54.1409   18.7107 H         1 UNK         0.0000 
     39 H39         2.7777   54.7676   16.7857 H         1 UNK         0.0000 
     40 H40         4.1210   54.8900   22.4542 H         1 UNK         0.0000 
     41 H41         3.5986   54.8956   20.7914 H         1 UNK         0.0000 
     42 H42         5.6486   55.7001   24.0706 H         1 UNK         0.0000 
     43 H43         7.3272   56.0776   24.4929 H         1 UNK         0.0000 
     44 H44         4.3647   54.5368   25.1805 H         1 UNK         0.0000 
     45 H45         5.9598   53.2276   28.2665 H         1 UNK         0.0000 
     46 H46         4.6157   52.4138   30.1022 H         1 UNK         0.0000 
     47 H47         2.4008   54.4868   26.1945 H         1 UNK         0.0000 
     48 H48         0.2107   52.8407   27.5974 H         1 UNK         0.0000 
     49 H49         0.0942   54.5285   28.0819 H         1 UNK         0.0000 
     50 H50        -0.4331   52.4710   29.8500 H         1 UNK         0.0000 
     51 H51         0.2223   54.0257   30.3159 H         1 UNK         0.0000 
     52 H52         0.3059   52.8365   32.6017 H         1 UNK         0.0000 
     53 H53         0.9662   51.2967   33.1427 H         1 UNK         0.0000 
     54 H54        -0.0736   51.3366   31.7172 H         1 UNK         0.0000 
     55 O55         5.1035   52.2302   21.1115 O.co2     1 UNK         0.0000 
@<TRIPOS>BOND
     1    1    2 1    
     2    1   33 1    
     3    1   34 1    
     4    1   35 1    
     5    2    7 ar   
     6    2    3 ar   
     7    3    4 ar   
     8    3   36 1    
     9    4    5 ar   
    10    4   37 1    
    11    5    6 ar   
    12    5    8 1    
    13    6    7 ar   
    14    6   38 1    
    15    7   39 1    
    16    8   12 ar   
    17    8    9 ar   
    18    9   10 ar   
    19   10   11 ar   
    20   11   12 ar   
    21   11   16 1    
    22   12   13 1    
    23   13   14 1    
    24   13   40 1    
    25   13   41 1    
    26   14   15 2    
    27   14   55 1    
    28   16   17 1    
    29   17   18 1    
    30   17   42 1    
    31   17   43 1    
    32   18   19 2    
    33   18   20 am   BACKBONE|DICT|INTERRES
    34   20   21 1    
    35   20   44 1    
    36   21   26 ar   
    37   21   22 ar   
    38   22   23 ar   
    39   22   45 1    
    40   23   24 ar   
    41   23   46 1    
    42   24   29 1    
    43   24   25 ar   
    44   25   26 ar   
    45   25   27 1    
    46   26   47 1    
    47   27   28 1    
    48   27   48 1    
    49   27   49 1    
    50   28   29 1    
    51   28   50 1    
    52   28   51 1    
    53   29   30 am   BACKBONE|DICT|INTERRES
    54   30   31 2    
    55   30   32 1    
    56   32   52 1    
    57   32   53 1    
    58   32   54 1    
@<TRIPOS>SUBSTRUCTURE
     1 UNK         1 GROUP             0       ****    0 ROOT    
