ZINC01933535_2589
                    3D
 Schrodinger Suite 2024-2.
 49 52  0  0  1  0            999 V2000
    6.4018   55.2324   19.7694 C   0  0  0  0  0  0
    5.2801   54.5125   20.1703 C   0  0  0  0  0  0
    5.0627   54.2628   21.5218 C   0  0  0  0  0  0
    5.9737   54.7251   22.4908 C   0  0  0  0  0  0
    7.1034   55.4389   22.0615 C   0  0  0  0  0  0
    7.3158   55.6961   20.7095 C   0  0  0  0  0  0
    5.7608   54.4863   23.9730 C   0  0  0  0  0  0
    6.7047   54.6059   24.7555 O   0  0  0  0  0  0
    4.4915   54.1698   24.3282 N   0  0  0  0  0  0
    3.9729   53.8817   25.5977 C   0  0  0  0  0  0
    2.6992   53.3226   25.8930 C   0  0  0  0  0  0
    2.4638   53.2796   27.3004 C   0  0  0  0  0  0
    3.5938   53.6500   28.0433 C   0  0  0  0  0  0
    4.8905   54.1893   27.0499 S   0  0  0  0  0  0
    3.7045   53.6261   29.5548 C   0  0  0  0  0  0
    2.6443   52.6570   30.1078 C   0  0  0  0  0  0
    1.2552   52.9828   29.5389 C   0  0  0  0  0  0
    1.1816   52.8007   28.0047 C   0  0  0  0  0  0
    1.6999   52.8993   24.9090 C   0  0  0  0  0  0
    0.5036   52.8959   25.1878 O   0  0  0  0  0  0
    2.2010   52.4999   23.7190 N   0  0  0  0  0  0
    1.5366   52.0886   22.5467 C   0  0  0  0  0  0
    2.3522   51.7116   21.4777 C   0  0  0  0  0  0
    1.7896   51.3476   20.2544 C   0  0  0  0  0  0
    0.4031   51.3531   20.0917 C   0  0  0  0  0  0
   -0.4370   51.6956   21.1603 C   0  0  0  0  0  0
    0.1411   52.0569   22.3837 C   0  0  0  0  0  0
   -1.9236   51.6945   21.0046 C   0  0  0  0  0  0
   -2.6074   51.3606   21.9968 O   0  0  0  0  0  0
    6.5663   55.4283   18.7207 H   0  0  0  0  0  0
    4.5745   54.1526   19.4344 H   0  0  0  0  0  0
    4.1754   53.7135   21.7862 H   0  0  0  0  0  0
    7.8261   55.8146   22.7719 H   0  0  0  0  0  0
    8.1914   56.2445   20.3904 H   0  0  0  0  0  0
    3.8321   54.1171   23.5681 H   0  0  0  0  0  0
    4.7037   53.3152   29.8651 H   0  0  0  0  0  0
    3.5494   54.6292   29.9546 H   0  0  0  0  0  0
    2.9121   51.6326   29.8454 H   0  0  0  0  0  0
    2.6233   52.6972   31.1973 H   0  0  0  0  0  0
    0.4978   52.3589   30.0185 H   0  0  0  0  0  0
    0.9962   54.0126   29.7946 H   0  0  0  0  0  0
    0.3065   53.3444   27.6464 H   0  0  0  0  0  0
    1.0003   51.7506   27.7703 H   0  0  0  0  0  0
    3.2066   52.4644   23.6633 H   0  0  0  0  0  0
    3.4281   51.6997   21.5833 H   0  0  0  0  0  0
    2.4310   51.0701   19.4286 H   0  0  0  0  0  0
   -0.0157   51.0839   19.1344 H   0  0  0  0  0  0
   -0.5227   52.3328   23.1897 H   0  0  0  0  0  0
   -2.4004   52.0957   19.9178 O   0  5  0  0  0  0
  1  6  2  0  0  0
  1  2  1  0  0  0
  1 30  1  0  0  0
  2  3  2  0  0  0
  2 31  1  0  0  0
  3  4  1  0  0  0
  3 32  1  0  0  0
  4  5  2  0  0  0
  4  7  1  0  0  0
  5  6  1  0  0  0
  5 33  1  0  0  0
  6 34  1  0  0  0
  7  8  2  0  0  0
  7  9  1  0  0  0
  9 10  1  0  0  0
  9 35  1  0  0  0
 10 14  1  0  0  0
 10 11  2  0  0  0
 11 12  1  0  0  0
 11 19  1  0  0  0
 12 18  1  0  0  0
 12 13  2  0  0  0
 13 14  1  0  0  0
 13 15  1  0  0  0
 15 16  1  0  0  0
 15 36  1  0  0  0
 15 37  1  0  0  0
 16 17  1  0  0  0
 16 38  1  0  0  0
 16 39  1  0  0  0
 17 18  1  0  0  0
 17 40  1  0  0  0
 17 41  1  0  0  0
 18 42  1  0  0  0
 18 43  1  0  0  0
 19 20  2  0  0  0
 19 21  1  0  0  0
 21 22  1  0  0  0
 21 44  1  0  0  0
 22 27  2  0  0  0
 22 23  1  0  0  0
 23 24  2  0  0  0
 23 45  1  0  0  0
 24 25  1  0  0  0
 24 46  1  0  0  0
 25 26  2  0  0  0
 25 47  1  0  0  0
 26 27  1  0  0  0
 26 28  1  0  0  0
 27 48  1  0  0  0
 28 29  2  0  0  0
 28 49  1  0  0  0
M  CHG  1  49  -1
M  END
> <i_i_glide_confnum>
62

> <i_i_glide_lignum>
2590

> <i_i_glide_posenum>
135

> <i_i_glide_rotatable_bonds>
7

> <i_m_Source_File_Index>
2134

> <b_m_subgroup_collapsed>
0

> <r_i_docking_score>
-6.05733

> <r_i_glide_ecoul>
-4.00538

> <r_i_glide_eff_state_penalty>
0

> <r_i_glide_einternal>
2.98647

> <r_i_glide_emodel>
-65.6187

> <r_i_glide_energy>
-47.2551

> <r_i_glide_erotb>
0.674603

> <r_i_glide_esite>
-0.0269728

> <r_i_glide_evdw>
-43.2497

> <r_i_glide_gscore>
-6.05733

> <r_i_glide_hbond>
-0.16

> <r_i_glide_ligand_efficiency>
-0.201911

> <r_i_glide_ligand_efficiency_ln>
-1.37629

> <r_i_glide_ligand_efficiency_sa>
-0.627385

> <r_i_glide_lipo>
-2.48543

> <r_i_glide_metal>
0

> <r_i_glide_rewards>
-1.29624

> <s_i_glide_gridfile>
wee1_glide-grid

> <s_m_Source_File>
wee1_decoys_glide_SP.sdf

> <s_m_Source_Path>
/Users/zhangxujun/Desktop

> <s_m_entry_id>
2409

> <s_m_entry_name>
wee1_decoys_glide_SP.2134

> <s_m_subgroup_title>
wee1_decoys_glide_SP

> <s_m_subgroupid>
wee1_decoys_glide_SP


$$$$
