ZINC08951253_5225
                    3D
 Schrodinger Suite 2024-2.
 45 47  0  0  1  0            999 V2000
    5.1497   54.5128   28.6215 C   0  0  0  0  0  0
    5.8110   54.6673   27.2491 C   0  0  0  0  0  0
    4.8689   54.3046   26.2525 O   0  0  0  0  0  0
    5.1211   54.4968   24.9380 C   0  0  0  0  0  0
    6.1522   55.0211   24.5075 O   0  0  0  0  0  0
    4.0260   53.9892   24.0749 C   0  0  0  0  0  0
    4.1513   53.7979   22.6630 C   0  0  0  0  0  0
    3.0153   53.2296   22.0736 C   0  0  0  0  0  0
    1.7243   53.0571   23.1826 S   0  0  0  0  0  0
    2.7246   53.6114   24.5064 C   0  0  0  0  0  0
    2.1897   53.6968   25.7618 N   0  0  0  0  0  0
    1.5036   52.7282   26.2391 C   0  0  0  0  0  0
    0.8981   52.7346   27.5807 C   0  0  0  0  0  0
    1.0883   53.8351   28.4359 C   0  0  0  0  0  0
    0.5192   53.8647   29.7059 C   0  0  0  0  0  0
   -0.2186   52.7810   30.1627 C   0  0  0  0  0  0
   -0.4446   51.6968   29.3229 C   0  0  0  0  0  0
    0.1113   51.6558   28.0429 C   0  0  0  0  0  0
   -0.1439   50.5498   27.2611 O   0  0  0  0  0  0
    0.7134   55.5734   30.8817 I   0  0  0  0  0  0
    2.9095   52.7449   20.6378 C   0  0  0  0  0  0
    5.3232   53.4195   20.4082 C   0  0  0  0  0  0
    5.3966   54.0818   21.8092 C   0  0  0  0  0  0
    3.8642   53.1629   18.3542 C   0  0  0  0  0  0
    5.8178   54.8606   29.4110 H   0  0  0  0  0  0
    4.2322   55.0994   28.6845 H   0  0  0  0  0  0
    4.8978   53.4730   28.8238 H   0  0  0  0  0  0
    6.6936   54.0267   27.1805 H   0  0  0  0  0  0
    6.1422   55.6961   27.1078 H   0  0  0  0  0  0
    1.3321   51.8169   25.6693 H   0  0  0  0  0  0
    1.6620   54.6919   28.1110 H   0  0  0  0  0  0
   -0.6575   52.7914   31.1515 H   0  0  0  0  0  0
   -1.0671   50.8958   29.6857 H   0  0  0  0  0  0
   -0.6763   49.8544   27.6838 H   0  0  0  0  0  0
    1.9235   52.8993   20.1940 H   0  0  0  0  0  0
    3.1810   51.6925   20.5265 H   0  0  0  0  0  0
    6.0241   53.8977   19.7180 H   0  0  0  0  0  0
    5.5046   52.3423   20.4257 H   0  0  0  0  0  0
    6.3035   53.7517   22.3138 H   0  0  0  0  0  0
    5.4952   55.1634   21.6919 H   0  0  0  0  0  0
    4.1014   52.0985   18.3018 H   0  0  0  0  0  0
    2.8579   53.3595   17.9825 H   0  0  0  0  0  0
    4.5971   53.7570   17.8058 H   0  0  0  0  0  0
    3.9040   53.6074   19.8333 N   0  3  1  0  0  0
    3.6308   54.5815   19.8778 H   0  0  0  0  0  0
  1  2  1  0  0  0
  1 25  1  0  0  0
  1 26  1  0  0  0
  1 27  1  0  0  0
  2  3  1  0  0  0
  2 28  1  0  0  0
  2 29  1  0  0  0
  3  4  1  0  0  0
  4  5  2  0  0  0
  4  6  1  0  0  0
  6 10  2  0  0  0
  6  7  1  0  0  0
  7 23  1  0  0  0
  7  8  2  0  0  0
  8  9  1  0  0  0
  8 21  1  0  0  0
  9 10  1  0  0  0
 10 11  1  0  0  0
 11 12  2  0  0  0
 12 13  1  0  0  0
 12 30  1  0  0  0
 13 18  2  0  0  0
 13 14  1  0  0  0
 14 15  2  0  0  0
 14 31  1  0  0  0
 15 16  1  0  0  0
 15 20  1  0  0  0
 16 17  2  0  0  0
 16 32  1  0  0  0
 17 18  1  0  0  0
 17 33  1  0  0  0
 18 19  1  0  0  0
 19 34  1  0  0  0
 21 35  1  0  0  0
 21 36  1  0  0  0
 21 44  1  0  0  0
 22 23  1  0  0  0
 22 37  1  0  0  0
 22 38  1  0  0  0
 22 44  1  0  0  0
 23 39  1  0  0  0
 23 40  1  0  0  0
 24 41  1  0  0  0
 24 42  1  0  0  0
 24 43  1  0  0  0
 24 44  1  0  0  0
 44 45  1  0  0  0
M  CHG  1  44   1
M  END
> <i_i_glide_confnum>
7

> <i_i_glide_lignum>
5226

> <i_i_glide_posenum>
15

> <i_i_glide_rotatable_bonds>
6

> <i_m_Source_File_Index>
2359

> <b_m_subgroup_collapsed>
0

> <r_i_docking_score>
-5.6341

> <r_i_glide_ecoul>
-5.08707

> <r_i_glide_eff_state_penalty>
0

> <r_i_glide_einternal>
7.23915

> <r_i_glide_emodel>
-60.2414

> <r_i_glide_energy>
-44.5082

> <r_i_glide_erotb>
0.363922

> <r_i_glide_esite>
-0.0172309

> <r_i_glide_evdw>
-39.4212

> <r_i_glide_gscore>
-5.6341

> <r_i_glide_hbond>
-0.16

> <r_i_glide_ligand_efficiency>
-0.225364

> <r_i_glide_ligand_efficiency_ln>
-1.33545

> <r_i_glide_ligand_efficiency_sa>
-0.658969

> <r_i_glide_lipo>
-2.30622

> <r_i_glide_metal>
0

> <r_i_glide_rewards>
-0.780455

> <s_i_glide_gridfile>
wee1_glide-grid

> <s_m_Source_File>
wee1_decoys_glide_SP.sdf

> <s_m_Source_Path>
/Users/zhangxujun/Desktop

> <s_m_entry_id>
2634

> <s_m_entry_name>
wee1_decoys_glide_SP.2359

> <s_m_subgroup_title>
wee1_decoys_glide_SP

> <s_m_subgroupid>
wee1_decoys_glide_SP


$$$$
