@<TRIPOS>MOLECULE
ZINC22938251_6059
61   65    1
SMALL
USER_CHARGES


@<TRIPOS>ATOM
      1 C1          2.2422   52.1332   16.9840 C.3       1 UNK         0.0000 
      2 N2          2.1771   51.6803   18.4565 N.4       1 UNK         0.0000 
      3 C3          3.3024   52.3362   19.2736 C.3       1 UNK         0.0000 
      4 C4          3.2152   51.7481   20.6909 C.3       1 UNK         0.0000 
      5 N5          1.9733   52.2128   21.3551 N.3       1 UNK         0.0000 
      6 C6          0.8291   51.6344   20.6127 C.3       1 UNK         0.0000 
      7 C7          0.8231   52.0438   19.1121 C.3       1 UNK         0.0000 
      8 C8          2.0184   51.9505   22.8242 C.3       1 UNK         0.0000 
      9 H9          2.5637   51.0122   22.9454 H         1 UNK         0.0000 
     10 C10         0.6475   51.6909   23.4664 C.ar      1 UNK         0.0000 
     11 C11        -0.2491   52.7404   23.6814 C.ar      1 UNK         0.0000 
     12 C12        -1.4993   52.4909   24.2392 C.ar      1 UNK         0.0000 
     13 C13        -1.8519   51.1914   24.5980 C.ar      1 UNK         0.0000 
     14 C14        -0.9606   50.1367   24.3870 C.ar      1 UNK         0.0000 
     15 C15         0.2857   50.3870   23.8203 C.ar      1 UNK         0.0000 
     16 S16        -3.4300   50.9294   25.3562 S.3       1 UNK         0.0000 
     17 C17        -3.5353   49.1975   25.8916 C.3       1 UNK         0.0000 
     18 C18         2.8420   53.0180   23.5861 C.2       1 UNK         0.0000 
     19 C19         2.9039   53.4778   24.9227 C.2       1 UNK         0.0000 
     20 C20         4.1622   54.2002   25.0355 C.ar      1 UNK         0.0000 
     21 C21         4.8949   54.8961   26.0182 C.ar      1 UNK         0.0000 
     22 C22         6.1549   55.4106   25.7027 C.ar      1 UNK         0.0000 
     23 C23         6.6973   55.2858   24.4281 C.ar      1 UNK         0.0000 
     24 C24         6.0072   54.6139   23.4233 C.ar      1 UNK         0.0000 
     25 C25         4.7493   54.0989   23.7574 C.ar      1 UNK         0.0000 
     26 O26         3.9434   53.4399   22.9001 O.3       1 UNK         0.0000 
     27 N27         1.9774   53.1891   25.9304 N.am      1 UNK         0.0000 
     28 C28         2.2133   53.0897   27.2625 C.2       1 UNK         0.0000 
     29 O29         3.2978   53.2655   27.8143 O.2       1 UNK         0.0000 
     30 C30         1.0653   52.7199   28.0496 C.2       1 UNK         0.0000 
     31 C31        -0.0529   51.9782   27.6685 C.2       1 UNK         0.0000 
     32 C32        -0.9137   51.6940   28.7311 C.2       1 UNK         0.0000 
     33 C33        -0.4465   52.1727   29.9440 C.2       1 UNK         0.0000 
     34 S34         1.0616   53.0052   29.7734 S.3       1 UNK         0.0000 
     35 H35         2.1435   53.2197   16.9483 H         1 UNK         0.0000 
     36 H36         3.2082   51.8025   16.5936 H         1 UNK         0.0000 
     37 H37         1.4288   51.6361   16.4538 H         1 UNK         0.0000 
     38 H38         4.2551   52.0966   18.8008 H         1 UNK         0.0000 
     39 H39         3.1697   53.4210   19.2572 H         1 UNK         0.0000 
     40 H40         4.1225   52.0423   21.2089 H         1 UNK         0.0000 
     41 H41         3.2450   50.6565   20.6645 H         1 UNK         0.0000 
     42 H42         0.9109   50.5477   20.6832 H         1 UNK         0.0000 
     43 H43        -0.1226   51.9417   21.0456 H         1 UNK         0.0000 
     44 H44         0.0635   51.4841   18.5636 H         1 UNK         0.0000 
     45 H45         0.6734   53.1178   18.9784 H         1 UNK         0.0000 
     46 H46         0.0361   53.7451   23.4148 H         1 UNK         0.0000 
     47 H47        -2.1895   53.3034   24.4088 H         1 UNK         0.0000 
     48 H48        -1.2124   49.1246   24.6631 H         1 UNK         0.0000 
     49 H49         0.9698   49.5642   23.6649 H         1 UNK         0.0000 
     50 H50        -4.4214   49.0486   26.5082 H         1 UNK         0.0000 
     51 H51        -3.6024   48.5341   25.0301 H         1 UNK         0.0000 
     52 H52        -2.6624   48.9200   26.4818 H         1 UNK         0.0000 
     53 H53         4.5070   55.0577   27.0098 H         1 UNK         0.0000 
     54 H54         6.7046   55.9408   26.4655 H         1 UNK         0.0000 
     55 H55         7.6494   55.7415   24.2133 H         1 UNK         0.0000 
     56 H56         6.4122   54.5131   22.4274 H         1 UNK         0.0000 
     57 H57         1.0644   52.8969   25.6156 H         1 UNK         0.0000 
     58 H58        -0.2308   51.6259   26.6664 H         1 UNK         0.0000 
     59 H59        -1.8203   51.1130   28.6255 H         1 UNK         0.0000 
     60 H60        -0.8956   52.0485   30.9205 H         1 UNK         0.0000 
     61 H61         2.3285   50.6785   18.4839 H         1 UNK         0.0000 
@<TRIPOS>BOND
     1    1    2 1    
     2    1   35 1    
     3    1   36 1    
     4    1   37 1    
     5    2    7 1    
     6    2    3 1    
     7    2   61 1    
     8    3    4 1    
     9    3   38 1    
    10    3   39 1    
    11    4    5 1    
    12    4   40 1    
    13    4   41 1    
    14    5    6 1    
    15    5    8 1    
    16    6    7 1    
    17    6   42 1    
    18    6   43 1    
    19    7   44 1    
    20    7   45 1    
    21    8    9 1    
    22    8   10 1    
    23    8   18 1    
    24   10   15 ar   
    25   10   11 ar   
    26   11   12 ar   
    27   11   46 1    
    28   12   13 ar   
    29   12   47 1    
    30   13   14 ar   
    31   13   16 1    
    32   14   15 ar   
    33   14   48 1    
    34   15   49 1    
    35   16   17 1    
    36   17   50 1    
    37   17   51 1    
    38   17   52 1    
    39   18   26 1    
    40   18   19 2    
    41   19   20 1    
    42   19   27 1    
    43   20   25 ar   
    44   20   21 ar   
    45   21   22 ar   
    46   21   53 1    
    47   22   23 ar   
    48   22   54 1    
    49   23   24 ar   
    50   23   55 1    
    51   24   25 ar   
    52   24   56 1    
    53   25   26 1    
    54   27   28 am   BACKBONE|DICT|INTERRES
    55   27   57 1    
    56   28   29 2    
    57   28   30 1    
    58   30   34 1    
    59   30   31 2    
    60   31   32 1    
    61   31   58 1    
    62   32   33 2    
    63   32   59 1    
    64   33   34 1    
    65   33   60 1    
@<TRIPOS>SUBSTRUCTURE
     1 UNK         1 GROUP             0       ****    0 ROOT    
