ZINC33018421_4543
                    3D
 Schrodinger Suite 2024-2.
 54 57  0  0  1  0            999 V2000
    6.6572   59.2093   15.4939 C   0  0  0  0  0  0
    7.3322   58.1604   16.3590 C   0  0  0  0  0  0
    8.7187   58.0173   16.3435 C   0  0  0  0  0  0
    9.3371   57.0514   17.1380 C   0  0  0  0  0  0
    8.5767   56.2198   17.9674 C   0  0  0  0  0  0
    7.1750   56.3733   17.9923 C   0  0  0  0  0  0
    6.5617   57.3271   17.1749 C   0  0  0  0  0  0
    6.3390   55.6001   18.8067 N   0  0  0  0  0  0
    6.3522   55.6401   20.1486 C   0  0  0  0  0  0
    7.0436   56.4217   20.8090 O   0  0  0  0  0  0
    5.5054   54.7262   20.6629 N   0  0  0  0  0  0
    5.2436   54.4967   22.0231 C   0  0  0  0  0  0
    3.9464   54.0896   22.3543 C   0  0  0  0  0  0
    3.5501   53.9234   23.6834 C   0  0  0  0  0  0
    4.4869   54.1827   24.6914 C   0  0  0  0  0  0
    5.8062   54.5734   24.3524 C   0  0  0  0  0  0
    6.2101   54.6968   23.0197 C   0  0  0  0  0  0
    6.7026   54.8860   25.8197 S   0  0  0  0  0  0
    5.2818   54.4485   26.7271 C   0  0  0  0  0  0
    4.2374   54.1047   26.0225 N   0  0  0  0  0  0
    5.3380   54.4965   28.4819 S   0  0  0  0  0  0
    4.6399   52.8571   28.8152 C   0  0  0  0  0  0
    3.1446   52.8804   29.0967 C   0  0  0  0  0  0
    2.7426   53.2175   30.2126 O   0  0  0  0  0  0
    2.3735   52.4957   28.0617 N   0  0  0  0  0  0
    1.0008   52.2326   28.0282 C   0  0  0  0  0  0
    0.4254   52.1130   26.7607 C   0  0  0  0  0  0
   -0.9253   51.8054   26.6354 C   0  0  0  0  0  0
   -1.6927   51.5941   27.7764 C   0  0  0  0  0  0
   -1.1186   51.6963   29.0420 C   0  0  0  0  0  0
    0.2231   52.0257   29.1754 C   0  0  0  0  0  0
   -3.0073   51.2964   27.6561 F   0  0  0  0  0  0
    9.2907   55.1448   18.7781 C   0  0  0  0  0  0
    7.2873   59.5004   14.6519 H   0  0  0  0  0  0
    5.7304   58.8186   15.0773 H   0  0  0  0  0  0
    6.4158   60.0961   16.0813 H   0  0  0  0  0  0
    9.3252   58.6556   15.7170 H   0  0  0  0  0  0
   10.4110   56.9442   17.1020 H   0  0  0  0  0  0
    5.4862   57.4475   17.1902 H   0  0  0  0  0  0
    5.5928   55.1026   18.3457 H   0  0  0  0  0  0
    4.9049   54.2440   20.0127 H   0  0  0  0  0  0
    3.2143   53.9322   21.5720 H   0  0  0  0  0  0
    2.5396   53.6302   23.9275 H   0  0  0  0  0  0
    7.2215   54.9937   22.7856 H   0  0  0  0  0  0
    5.1057   52.4533   29.7046 H   0  0  0  0  0  0
    4.9019   52.1636   28.0185 H   0  0  0  0  0  0
    2.8476   52.4027   27.1742 H   0  0  0  0  0  0
    1.0180   52.2533   25.8673 H   0  0  0  0  0  0
   -1.3752   51.7146   25.6599 H   0  0  0  0  0  0
   -1.6962   51.4857   29.9264 H   0  0  0  0  0  0
    0.6356   52.0693   30.1714 H   0  0  0  0  0  0
   10.2762   54.9171   18.3694 H   0  0  0  0  0  0
    9.4066   55.4615   19.8152 H   0  0  0  0  0  0
    8.7305   54.2086   18.7645 H   0  0  0  0  0  0
  1  2  1  0  0  0
  1 34  1  0  0  0
  1 35  1  0  0  0
  1 36  1  0  0  0
  2  7  2  0  0  0
  2  3  1  0  0  0
  3  4  2  0  0  0
  3 37  1  0  0  0
  4  5  1  0  0  0
  4 38  1  0  0  0
  5  6  2  0  0  0
  5 33  1  0  0  0
  6  7  1  0  0  0
  6  8  1  0  0  0
  7 39  1  0  0  0
  8  9  1  0  0  0
  8 40  1  0  0  0
  9 10  2  0  0  0
  9 11  1  0  0  0
 11 12  1  0  0  0
 11 41  1  0  0  0
 12 17  2  0  0  0
 12 13  1  0  0  0
 13 14  2  0  0  0
 13 42  1  0  0  0
 14 15  1  0  0  0
 14 43  1  0  0  0
 15 20  1  0  0  0
 15 16  2  0  0  0
 16 17  1  0  0  0
 16 18  1  0  0  0
 17 44  1  0  0  0
 18 19  1  0  0  0
 19 20  2  0  0  0
 19 21  1  0  0  0
 21 22  1  0  0  0
 22 23  1  0  0  0
 22 45  1  0  0  0
 22 46  1  0  0  0
 23 24  2  0  0  0
 23 25  1  0  0  0
 25 26  1  0  0  0
 25 47  1  0  0  0
 26 31  2  0  0  0
 26 27  1  0  0  0
 27 28  2  0  0  0
 27 48  1  0  0  0
 28 29  1  0  0  0
 28 49  1  0  0  0
 29 30  2  0  0  0
 29 32  1  0  0  0
 30 31  1  0  0  0
 30 50  1  0  0  0
 31 51  1  0  0  0
 33 52  1  0  0  0
 33 53  1  0  0  0
 33 54  1  0  0  0
M  END
> <i_i_glide_confnum>
230

> <i_i_glide_lignum>
4544

> <i_i_glide_posenum>
206

> <i_i_glide_rotatable_bonds>
9

> <i_m_Source_File_Index>
656

> <b_m_subgroup_collapsed>
0

> <r_i_docking_score>
-6.9377

> <r_i_glide_ecoul>
-8.37838

> <r_i_glide_eff_state_penalty>
0

> <r_i_glide_einternal>
9.1287

> <r_i_glide_emodel>
-76.913

> <r_i_glide_energy>
-58.279

> <r_i_glide_erotb>
0.702472

> <r_i_glide_esite>
-0.0675099

> <r_i_glide_evdw>
-49.9006

> <r_i_glide_gscore>
-6.9377

> <r_i_glide_hbond>
-0.550544

> <r_i_glide_ligand_efficiency>
-0.210233

> <r_i_glide_ligand_efficiency_ln>
-1.54291

> <r_i_glide_ligand_efficiency_sa>
-0.674331

> <r_i_glide_lipo>
-2.62927

> <r_i_glide_metal>
0

> <r_i_glide_rewards>
-0.641063

> <s_i_glide_gridfile>
wee1_glide-grid

> <s_m_Source_File>
wee1_decoys_glide_SP.sdf

> <s_m_Source_Path>
/Users/zhangxujun/Desktop

> <s_m_entry_id>
931

> <s_m_entry_name>
wee1_decoys_glide_SP.656

> <s_m_subgroup_title>
wee1_decoys_glide_SP

> <s_m_subgroupid>
wee1_decoys_glide_SP


$$$$
