ZINC38905309_5454
                    3D
 Schrodinger Suite 2024-2.
 56 59  0  0  1  0            999 V2000
    0.5613   49.1886   26.2075 C   0  0  0  0  0  0
    0.2625   49.9478   25.0410 O   0  0  0  0  0  0
   -0.8444   50.7795   25.0349 C   0  0  0  0  0  0
   -1.8041   50.8007   26.0617 C   0  0  0  0  0  0
   -2.8590   51.7143   26.0376 C   0  0  0  0  0  0
   -2.9859   52.6359   24.9909 C   0  0  0  0  0  0
   -2.0481   52.5942   23.9490 C   0  0  0  0  0  0
   -0.9992   51.6722   23.9564 C   0  0  0  0  0  0
   -0.0616   51.7385   22.9123 N   0  0  0  0  0  0
    0.3159   50.7102   22.1177 C   0  0  0  0  0  0
   -0.2503   49.6155   22.1211 O   0  0  0  0  0  0
    1.5345   50.9101   21.1792 C   0  0  1  0  0  0
    2.2157   50.1354   21.5403 H   0  0  0  0  0  0
    1.1404   50.6430   19.7085 C   0  0  0  0  0  0
    2.4030   50.7526   18.8326 C   0  0  0  0  0  0
    3.1070   52.1195   18.9789 C   0  0  0  0  0  0
    3.4775   52.3779   20.4648 N   0  3  2  0  0  0
    2.2154   52.2949   21.3630 C   0  0  0  0  0  0
    4.2177   53.7469   20.5760 C   0  0  0  0  0  0
    4.7536   54.0421   21.9747 C   0  0  0  0  0  0
    4.1156   54.0684   23.1115 N   0  0  0  0  0  0
    5.0786   54.2781   23.9909 C   0  0  0  0  0  0
    6.2856   54.4551   23.4824 N   0  0  0  0  0  0
    6.0775   54.3111   22.1103 O   0  0  0  0  0  0
    4.8097   54.2783   25.4726 C   0  0  0  0  0  0
    5.8502   54.4192   26.4049 C   0  0  0  0  0  0
    5.5840   54.3735   27.7725 C   0  0  0  0  0  0
    4.2757   54.1851   28.2170 C   0  0  0  0  0  0
    3.2337   54.0548   27.3053 C   0  0  0  0  0  0
    3.5002   54.1007   25.9405 C   0  0  0  0  0  0
    3.9049   54.0968   30.0816 Br  0  0  0  0  0  0
   -4.0692   53.6507   24.9967 N   0  3  0  0  0  0
   -4.8677   53.6532   25.9312 O   0  0  0  0  0  0
   -4.0980   54.4761   24.0875 O   0  5  0  0  0  0
    1.4629   48.6002   26.0374 H   0  0  0  0  0  0
    0.7520   49.8588   27.0477 H   0  0  0  0  0  0
   -0.2374   48.4949   26.4701 H   0  0  0  0  0  0
   -1.7444   50.1170   26.8971 H   0  0  0  0  0  0
   -3.5640   51.7075   26.8579 H   0  0  0  0  0  0
   -2.1306   53.2952   23.1300 H   0  0  0  0  0  0
    0.3183   52.6500   22.7172 H   0  0  0  0  0  0
    0.7495   49.6326   19.5689 H   0  0  0  0  0  0
    0.4419   51.3945   19.3362 H   0  0  0  0  0  0
    3.1010   49.9518   19.0830 H   0  0  0  0  0  0
    2.1475   50.5890   17.7830 H   0  0  0  0  0  0
    4.0391   52.0975   18.4123 H   0  0  0  0  0  0
    2.4819   52.9489   18.6362 H   0  0  0  0  0  0
    1.5810   53.1403   21.0774 H   0  0  0  0  0  0
    2.5523   52.3689   22.3957 H   0  0  0  0  0  0
    5.0290   53.6886   19.8509 H   0  0  0  0  0  0
    3.5054   54.4994   20.2352 H   0  0  0  0  0  0
    6.8711   54.5457   26.0744 H   0  0  0  0  0  0
    6.3865   54.4778   28.4886 H   0  0  0  0  0  0
    2.2214   53.9138   27.6557 H   0  0  0  0  0  0
    2.6733   53.9868   25.2535 H   0  0  0  0  0  0
    4.1152   51.6419   20.7355 H   0  0  0  0  0  0
  1  2  1  0  0  0
  1 35  1  0  0  0
  1 36  1  0  0  0
  1 37  1  0  0  0
  2  3  1  0  0  0
  3  8  2  0  0  0
  3  4  1  0  0  0
  4  5  2  0  0  0
  4 38  1  0  0  0
  5  6  1  0  0  0
  5 39  1  0  0  0
  6  7  2  0  0  0
  6 32  1  0  0  0
  7  8  1  0  0  0
  7 40  1  0  0  0
  8  9  1  0  0  0
  9 10  1  0  0  0
  9 41  1  0  0  0
 10 11  2  0  0  0
 10 12  1  0  0  0
 12 13  1  0  0  0
 12 18  1  0  0  0
 12 14  1  0  0  0
 14 15  1  0  0  0
 14 42  1  0  0  0
 14 43  1  0  0  0
 15 16  1  0  0  0
 15 44  1  0  0  0
 15 45  1  0  0  0
 16 17  1  0  0  0
 16 46  1  0  0  0
 16 47  1  0  0  0
 17 18  1  0  0  0
 17 19  1  0  0  0
 17 56  1  0  0  0
 18 48  1  0  0  0
 18 49  1  0  0  0
 19 20  1  0  0  0
 19 50  1  0  0  0
 19 51  1  0  0  0
 20 24  1  0  0  0
 20 21  2  0  0  0
 21 22  1  0  0  0
 22 23  2  0  0  0
 22 25  1  0  0  0
 23 24  1  0  0  0
 25 30  2  0  0  0
 25 26  1  0  0  0
 26 27  2  0  0  0
 26 52  1  0  0  0
 27 28  1  0  0  0
 27 53  1  0  0  0
 28 29  2  0  0  0
 28 31  1  0  0  0
 29 30  1  0  0  0
 29 54  1  0  0  0
 30 55  1  0  0  0
 32 33  2  0  0  0
 32 34  1  0  0  0
M  CHG  3  17   1  32   1  34  -1
M  END
> <i_i_glide_confnum>
45

> <i_i_glide_lignum>
5455

> <i_i_glide_posenum>
336

> <i_i_glide_rotatable_bonds>
8

> <i_m_Source_File_Index>
5003

> <b_m_subgroup_collapsed>
0

> <r_i_docking_score>
-5.23002

> <r_i_glide_ecoul>
-5.71365

> <r_i_glide_eff_state_penalty>
0

> <r_i_glide_einternal>
7.79775

> <r_i_glide_emodel>
-64.9903

> <r_i_glide_energy>
-50.3867

> <r_i_glide_erotb>
0.460254

> <r_i_glide_esite>
-0.0111548

> <r_i_glide_evdw>
-44.673

> <r_i_glide_gscore>
-5.23002

> <r_i_glide_hbond>
0

> <r_i_glide_ligand_efficiency>
-0.158486

> <r_i_glide_ligand_efficiency_ln>
-1.16313

> <r_i_glide_ligand_efficiency_sa>
-0.508348

> <r_i_glide_lipo>
-1.97027

> <r_i_glide_metal>
0

> <r_i_glide_rewards>
-0.618154

> <s_i_glide_gridfile>
wee1_glide-grid

> <s_m_Source_File>
wee1_decoys_glide_SP.sdf

> <s_m_Source_Path>
/Users/zhangxujun/Desktop

> <s_m_entry_id>
5278

> <s_m_entry_name>
wee1_decoys_glide_SP.5003

> <s_m_subgroup_title>
wee1_decoys_glide_SP

> <s_m_subgroupid>
wee1_decoys_glide_SP


$$$$
