@<TRIPOS>MOLECULE
ZINC35024507_4443
64   67    1
SMALL
USER_CHARGES


@<TRIPOS>ATOM
      1 C1          0.7045   50.3296   26.9989 C.3       1 UNK         0.0000 
      2 C2          0.2347   51.6635   26.3476 C.3       1 UNK         0.0000 
      3 H3          1.0970   52.3210   26.2955 H         1 UNK         0.0000 
      4 C4         -0.8484   52.3169   27.2529 C.3       1 UNK         0.0000 
      5 H5         -1.1379   53.2964   26.8815 H         1 UNK         0.0000 
      6 C6         -2.1069   51.4019   27.3620 C.3       1 UNK         0.0000 
      7 H7         -2.1487   50.8464   28.3033 H         1 UNK         0.0000 
      8 C8         -2.4689   50.5439   26.1163 C.3       1 UNK         0.0000 
      9 H9         -2.7827   49.5168   26.3190 H         1 UNK         0.0000 
     10 C10        -3.4020   51.6306   26.6144 C.3       1 UNK         0.0000 
     11 C11        -4.6832   51.1555   27.3251 C.3       1 UNK         0.0000 
     12 C12        -3.6598   52.9209   25.8177 C.3       1 UNK         0.0000 
     13 C13        -1.5355   50.5845   24.8498 C.3       1 UNK         0.0000 
     14 H14        -1.0991   49.5843   24.8575 H         1 UNK         0.0000 
     15 C15        -0.2897   51.5408   24.8733 C.3       1 UNK         0.0000 
     16 C16         0.9014   51.0933   23.9381 C.3       1 UNK         0.0000 
     17 H17         1.4935   50.3654   24.4829 H         1 UNK         0.0000 
     18 C18         1.9047   52.1621   23.5412 C.2       1 UNK         0.0000 
     19 C19         2.4471   51.9276   22.3328 C.2       1 UNK         0.0000 
     20 C20         1.8889   50.6927   21.7882 C.2       1 UNK         0.0000 
     21 O21         2.3584   50.0560   20.8426 O.2       1 UNK         0.0000 
     22 C22         0.5998   50.4298   22.5882 C.3       1 UNK         0.0000 
     23 C23        -0.6020   50.9906   21.7834 C.3       1 UNK         0.0000 
     24 C24        -2.0308   50.8129   22.2966 C.2       1 UNK         0.0000 
     25 C25        -2.4020   50.6338   23.5862 C.2       1 UNK         0.0000 
     26 C26        -3.1295   50.7397   21.2330 C.3       1 UNK         0.0000 
     27 O27        -2.8956   51.6967   20.2132 O.3       1 UNK         0.0000 
     28 O28         0.4093   49.0241   22.6740 O.3       1 UNK         0.0000 
     29 C29         3.5799   52.6264   21.5997 C.3       1 UNK         0.0000 
     30 O30        -0.6577   52.8302   24.4046 O.3       1 UNK         0.0000 
     31 O31        -0.4894   52.4914   28.6362 O.3       1 UNK         0.0000 
     32 C32         0.3680   53.4048   29.1918 C.2       1 UNK         0.0000 
     33 O33         0.3578   53.6326   30.4010 O.2       1 UNK         0.0000 
     34 C34         1.3814   54.1400   28.2827 C.3       1 UNK         0.0000 
     35 C35         1.6101   55.6059   28.7228 C.3       1 UNK         0.0000 
     36 C36         2.7386   53.4000   28.2643 C.3       1 UNK         0.0000 
     37 H37         1.3214   49.6768   26.3957 H         1 UNK         0.0000 
     38 H38         1.2631   50.5297   27.9123 H         1 UNK         0.0000 
     39 H39        -0.1293   49.6971   27.2815 H         1 UNK         0.0000 
     40 H40        -5.0559   51.9138   28.0137 H         1 UNK         0.0000 
     41 H41        -5.4729   50.9371   26.6060 H         1 UNK         0.0000 
     42 H42        -4.5171   50.2483   27.9075 H         1 UNK         0.0000 
     43 H43        -2.7837   53.2972   25.3131 H         1 UNK         0.0000 
     44 H44        -4.4199   52.7585   25.0529 H         1 UNK         0.0000 
     45 H45        -4.0106   53.7188   26.4737 H         1 UNK         0.0000 
     46 H46         2.1933   52.9554   24.2163 H         1 UNK         0.0000 
     47 H47        -0.4644   52.0574   21.5946 H         1 UNK         0.0000 
     48 H48        -0.5708   50.5218   20.7962 H         1 UNK         0.0000 
     49 H49        -3.4554   50.4669   23.7657 H         1 UNK         0.0000 
     50 H50        -3.1219   49.7446   20.7854 H         1 UNK         0.0000 
     51 H51        -4.1227   50.8968   21.6568 H         1 UNK         0.0000 
     52 H52        -2.1838   51.3699   19.6552 H         1 UNK         0.0000 
     53 H53         1.1910   48.6369   23.0805 H         1 UNK         0.0000 
     54 H54         4.3085   51.9147   21.2062 H         1 UNK         0.0000 
     55 H55         3.1836   53.2071   20.7651 H         1 UNK         0.0000 
     56 H56         4.1067   53.3090   22.2680 H         1 UNK         0.0000 
     57 H57        -1.0848   52.7100   23.5531 H         1 UNK         0.0000 
     58 H58         0.9860   54.1692   27.2747 H         1 UNK         0.0000 
     59 H59         1.9833   55.6771   29.7464 H         1 UNK         0.0000 
     60 H60         2.3375   56.0975   28.0818 H         1 UNK         0.0000 
     61 H61         0.7044   56.2026   28.6615 H         1 UNK         0.0000 
     62 H62         2.6511   52.3608   27.9518 H         1 UNK         0.0000 
     63 H63         3.4353   53.8784   27.5744 H         1 UNK         0.0000 
     64 H64         3.2076   53.3975   29.2503 H         1 UNK         0.0000 
@<TRIPOS>BOND
     1    1    2 1    
     2    1   37 1    
     3    1   38 1    
     4    1   39 1    
     5    2    3 1    
     6    2   15 1    
     7    2    4 1    
     8    4    5 1    
     9    4    6 1    
    10    4   31 1    
    11    6    7 1    
    12    6   10 1    
    13    6    8 1    
    14    8    9 1    
    15    8   10 1    
    16    8   13 1    
    17   10   11 1    
    18   10   12 1    
    19   11   40 1    
    20   11   41 1    
    21   11   42 1    
    22   12   43 1    
    23   12   44 1    
    24   12   45 1    
    25   13   14 1    
    26   13   25 1    
    27   13   15 1    
    28   15   16 1    
    29   15   30 1    
    30   16   17 1    
    31   16   22 1    
    32   16   18 1    
    33   18   19 2    
    34   18   46 1    
    35   19   20 1    
    36   19   29 1    
    37   20   21 2    
    38   20   22 1    
    39   22   23 1    
    40   22   28 1    
    41   23   24 1    
    42   23   47 1    
    43   23   48 1    
    44   24   25 2    
    45   24   26 1    
    46   25   49 1    
    47   26   27 1    
    48   26   50 1    
    49   26   51 1    
    50   27   52 1    
    51   28   53 1    
    52   29   54 1    
    53   29   55 1    
    54   29   56 1    
    55   30   57 1    
    56   31   32 1    
    57   32   33 2    
    58   32   34 1    
    59   34   35 1    
    60   34   36 1    
    61   34   58 1    
    62   35   59 1    
    63   35   60 1    
    64   35   61 1    
    65   36   62 1    
    66   36   63 1    
    67   36   64 1    
@<TRIPOS>SUBSTRUCTURE
     1 UNK         1 GROUP             0       ****    0 ROOT    
