ZINC16608660_5390
                    3D
 Schrodinger Suite 2024-2.
 63 66  0  0  1  0            999 V2000
   -4.6640   53.5020   26.0845 C   0  0  0  0  0  0
   -5.3511   52.2129   26.5624 C   0  0  0  0  0  0
   -4.4469   51.1663   27.2766 C   0  0  1  0  0  0
   -4.0362   51.6433   28.1692 H   0  0  0  0  0  0
   -5.3377   50.0329   27.8195 C   0  0  0  0  0  0
   -3.2781   50.5443   26.4328 C   0  0  2  0  0  0
   -2.9872   49.5783   26.8542 H   0  0  0  0  0  0
   -2.0450   51.4840   26.4909 C   0  0  0  0  0  0
   -1.8580   52.3166   25.5971 O   0  0  0  0  0  0
   -1.2402   51.2942   27.5584 N   0  0  0  0  0  0
   -0.0015   51.8756   27.7717 C   0  0  0  0  0  0
    0.5733   51.8888   28.9484 N   0  0  0  0  0  0
    1.8366   52.4722   28.9196 N   0  0  0  0  0  0
    2.2029   52.8579   27.7159 C   0  0  0  0  0  0
    1.0081   52.5065   26.4965 S   0  0  0  0  0  0
    3.5193   53.4869   27.3695 C   0  0  0  0  0  0
    4.5321   53.6124   28.3467 C   0  0  0  0  0  0
    5.7847   54.1562   28.0312 C   0  0  0  0  0  0
    5.9963   54.5545   26.7172 C   0  0  0  0  0  0
    5.0269   54.4473   25.7648 C   0  0  0  0  0  0
    3.7717   53.9345   26.0567 C   0  0  0  0  0  0
    5.4970   54.9197   24.5810 O   0  0  0  0  0  0
    6.8689   55.1211   24.7796 C   0  0  0  0  0  0
    7.0944   55.1253   26.1632 O   0  0  0  0  0  0
   -3.6730   50.3139   25.0140 N   0  0  0  0  0  0
   -2.8237   49.1349   24.0152 S   0  0  0  0  0  0
   -3.6055   48.9926   22.7829 O   0  0  0  0  0  0
   -2.5784   47.9441   24.8344 O   0  0  0  0  0  0
   -1.2405   49.9319   23.5627 C   0  0  0  0  0  0
   -0.0031   49.5234   24.1202 C   0  0  0  0  0  0
    1.1896   50.0916   23.6614 C   0  0  0  0  0  0
    1.1903   51.0716   22.6754 C   0  0  0  0  0  0
   -0.0199   51.4964   22.1424 C   0  0  0  0  0  0
   -1.2287   50.9407   22.5685 C   0  0  0  0  0  0
   -2.4957   51.5149   21.9497 C   0  0  0  0  0  0
    2.4961   51.6565   22.1696 C   0  0  0  0  0  0
    0.1216   48.5042   25.2445 C   0  0  0  0  0  0
   -5.3715   54.3307   26.0589 H   0  0  0  0  0  0
   -3.8448   53.7955   26.7406 H   0  0  0  0  0  0
   -4.2638   53.3847   25.0774 H   0  0  0  0  0  0
   -5.8528   51.7450   25.7142 H   0  0  0  0  0  0
   -6.1542   52.5021   27.2413 H   0  0  0  0  0  0
   -5.8122   49.4796   27.0084 H   0  0  0  0  0  0
   -4.7551   49.3213   28.4076 H   0  0  0  0  0  0
   -6.1264   50.4178   28.4666 H   0  0  0  0  0  0
   -1.5504   50.6314   28.2593 H   0  0  0  0  0  0
    4.3547   53.2778   29.3581 H   0  0  0  0  0  0
    6.5519   54.2574   28.7855 H   0  0  0  0  0  0
    3.0284   53.8644   25.2774 H   0  0  0  0  0  0
    7.1974   56.0570   24.3252 H   0  0  0  0  0  0
    7.4249   54.2978   24.3251 H   0  0  0  0  0  0
   -3.9581   51.1612   24.5189 H   0  0  0  0  0  0
    2.1318   49.7567   24.0728 H   0  0  0  0  0  0
   -0.0161   52.2662   21.3842 H   0  0  0  0  0  0
   -2.8831   50.8529   21.1749 H   0  0  0  0  0  0
   -3.2684   51.6630   22.7024 H   0  0  0  0  0  0
   -2.3178   52.4963   21.5118 H   0  0  0  0  0  0
    2.8629   52.4262   22.8504 H   0  0  0  0  0  0
    2.3827   52.0868   21.1719 H   0  0  0  0  0  0
    3.2544   50.8758   22.0830 H   0  0  0  0  0  0
   -0.0936   47.5003   24.8807 H   0  0  0  0  0  0
    1.1157   48.4963   25.6904 H   0  0  0  0  0  0
   -0.5647   48.7320   26.0606 H   0  0  0  0  0  0
  1  2  1  0  0  0
  1 38  1  0  0  0
  1 39  1  0  0  0
  1 40  1  0  0  0
  2  3  1  0  0  0
  2 41  1  0  0  0
  2 42  1  0  0  0
  3  4  1  0  0  0
  3  5  1  0  0  0
  3  6  1  0  0  0
  5 43  1  0  0  0
  5 44  1  0  0  0
  5 45  1  0  0  0
  6  7  1  0  0  0
  6  8  1  0  0  0
  6 25  1  0  0  0
  8  9  2  0  0  0
  8 10  1  0  0  0
 10 11  1  0  0  0
 10 46  1  0  0  0
 11 15  1  0  0  0
 11 12  2  0  0  0
 12 13  1  0  0  0
 13 14  2  0  0  0
 14 15  1  0  0  0
 14 16  1  0  0  0
 16 21  2  0  0  0
 16 17  1  0  0  0
 17 18  2  0  0  0
 17 47  1  0  0  0
 18 19  1  0  0  0
 18 48  1  0  0  0
 19 24  1  0  0  0
 19 20  2  0  0  0
 20 21  1  0  0  0
 20 22  1  0  0  0
 21 49  1  0  0  0
 22 23  1  0  0  0
 23 24  1  0  0  0
 23 50  1  0  0  0
 23 51  1  0  0  0
 25 26  1  0  0  0
 25 52  1  0  0  0
 26 27  2  0  0  0
 26 28  2  0  0  0
 26 29  1  0  0  0
 29 34  2  0  0  0
 29 30  1  0  0  0
 30 31  2  0  0  0
 30 37  1  0  0  0
 31 32  1  0  0  0
 31 53  1  0  0  0
 32 33  2  0  0  0
 32 36  1  0  0  0
 33 34  1  0  0  0
 33 54  1  0  0  0
 34 35  1  0  0  0
 35 55  1  0  0  0
 35 56  1  0  0  0
 35 57  1  0  0  0
 36 58  1  0  0  0
 36 59  1  0  0  0
 36 60  1  0  0  0
 37 61  1  0  0  0
 37 62  1  0  0  0
 37 63  1  0  0  0
M  END
> <i_i_glide_confnum>
1

> <i_i_glide_lignum>
5391

> <i_i_glide_posenum>
132

> <i_i_glide_rotatable_bonds>
9

> <i_m_Source_File_Index>
1972

> <b_m_subgroup_collapsed>
0

> <r_i_docking_score>
-6.10202

> <r_i_glide_ecoul>
-5.22132

> <r_i_glide_eff_state_penalty>
0

> <r_i_glide_einternal>
8.42282

> <r_i_glide_emodel>
-66.8025

> <r_i_glide_energy>
-51.4342

> <r_i_glide_erotb>
0.615239

> <r_i_glide_esite>
-0.193509

> <r_i_glide_evdw>
-46.2129

> <r_i_glide_gscore>
-6.10202

> <r_i_glide_hbond>
-0.367717

> <r_i_glide_ligand_efficiency>
-0.174343

> <r_i_glide_ligand_efficiency_ln>
-1.33953

> <r_i_glide_ligand_efficiency_sa>
-0.570289

> <r_i_glide_lipo>
-2.22634

> <r_i_glide_metal>
0

> <r_i_glide_rewards>
-0.835846

> <s_i_glide_gridfile>
wee1_glide-grid

> <s_m_Source_File>
wee1_decoys_glide_SP.sdf

> <s_m_Source_Path>
/Users/zhangxujun/Desktop

> <s_m_entry_id>
2247

> <s_m_entry_name>
wee1_decoys_glide_SP.1972

> <s_m_subgroup_title>
wee1_decoys_glide_SP

> <s_m_subgroupid>
wee1_decoys_glide_SP


$$$$
