@<TRIPOS>MOLECULE
ZINC20213470_5634
57   61    1
SMALL
USER_CHARGES


@<TRIPOS>ATOM
      1 C1          5.1494   46.9432   10.3261 C.3       1 UNK         0.0000 
      2 C2          5.1342   48.1180   11.2878 C.ar      1 UNK         0.0000 
      3 C3          6.2254   48.3746   12.1243 C.ar      1 UNK         0.0000 
      4 C4          6.1789   49.4382   13.0264 C.ar      1 UNK         0.0000 
      5 C5          5.0422   50.2499   13.1030 C.ar      1 UNK         0.0000 
      6 C6          3.9471   49.9976   12.2629 C.ar      1 UNK         0.0000 
      7 C7          4.0024   48.9358   11.3578 C.ar      1 UNK         0.0000 
      8 Cl8         2.5050   50.9522   12.3336 Cl        1 UNK         0.0000 
      9 N9          4.9747   51.2544   14.0823 N.pl3     1 UNK         0.0000 
     10 C10         5.2872   52.5936   14.0184 C.2       1 UNK         0.0000 
     11 S11         6.0660   53.2327   12.6654 S.2       1 UNK         0.0000 
     12 N12         4.8884   53.3509   15.1148 N.pl3     1 UNK         0.0000 
     13 C13         5.1827   54.8096   15.2790 C.3       1 UNK         0.0000 
     14 C14         5.8444   55.0352   16.6679 C.3       1 UNK         0.0000 
     15 C15         4.9548   54.4836   17.8061 C.3       1 UNK         0.0000 
     16 C16         4.7504   52.9863   17.5184 C.3       1 UNK         0.0000 
     17 C17         4.0147   52.7850   16.1817 C.3       1 UNK         0.0000 
     18 C18         5.4878   54.6842   19.2339 C.ar      1 UNK         0.0000 
     19 C19         6.7215   55.1575   19.5583 C.ar      1 UNK         0.0000 
     20 C20         7.1981   55.2981   20.9191 C.ar      1 UNK         0.0000 
     21 N21         6.2051   54.8887   21.8679 N.pl3     1 UNK         0.0000 
     22 C22         4.9479   54.4043   21.5543 C.ar      1 UNK         0.0000 
     23 N23         4.5736   54.3183   20.2224 N.pl3     1 UNK         0.0000 
     24 C24         4.3460   54.0969   22.7498 C.ar      1 UNK         0.0000 
     25 C25         5.2744   54.4464   23.7468 C.ar      1 UNK         0.0000 
     26 N26         6.3950   54.8969   23.2034 N.2       1 UNK         0.0000 
     27 C27         5.0668   54.3679   25.2312 C.ar      1 UNK         0.0000 
     28 C28         3.7707   54.1760   25.7286 C.ar      1 UNK         0.0000 
     29 C29         3.5417   54.1067   27.0983 C.ar      1 UNK         0.0000 
     30 C30         4.6078   54.2311   27.9844 C.ar      1 UNK         0.0000 
     31 C31         5.9056   54.4143   27.5070 C.ar      1 UNK         0.0000 
     32 C32         6.1333   54.4845   26.1326 C.ar      1 UNK         0.0000 
     33 Cl33        4.3044   54.1727   29.6838 Cl        1 UNK         0.0000 
     34 O34         8.3035   55.6971   21.2815 O.2       1 UNK         0.0000 
     35 H35         5.1055   47.2966    9.2953 H         1 UNK         0.0000 
     36 H36         4.2651   46.3244   10.4813 H         1 UNK         0.0000 
     37 H37         6.0224   46.3058   10.4796 H         1 UNK         0.0000 
     38 H38         7.1027   47.7416   12.0995 H         1 UNK         0.0000 
     39 H39         7.0189   49.6185   13.6803 H         1 UNK         0.0000 
     40 H40         3.1515   48.7395   10.7200 H         1 UNK         0.0000 
     41 H41         4.6278   50.9234   14.9759 H         1 UNK         0.0000 
     42 H42         5.8226   55.2371   14.5094 H         1 UNK         0.0000 
     43 H43         4.2333   55.3400   15.2245 H         1 UNK         0.0000 
     44 H44         6.8220   54.5471   16.6584 H         1 UNK         0.0000 
     45 H45         6.0148   56.1059   16.8041 H         1 UNK         0.0000 
     46 H46         3.9870   54.9870   17.7492 H         1 UNK         0.0000 
     47 H47         4.1747   52.4976   18.3043 H         1 UNK         0.0000 
     48 H48         5.7210   52.4965   17.4754 H         1 UNK         0.0000 
     49 H49         3.0745   53.3369   16.1756 H         1 UNK         0.0000 
     50 H50         3.7474   51.7336   16.0742 H         1 UNK         0.0000 
     51 H51         7.4205   55.4272   18.7825 H         1 UNK         0.0000 
     52 H52         3.3532   53.6915   22.8798 H         1 UNK         0.0000 
     53 H53         2.9267   54.0897   25.0617 H         1 UNK         0.0000 
     54 H54         2.5375   53.9678   27.4719 H         1 UNK         0.0000 
     55 H55         6.7285   54.5009   28.2019 H         1 UNK         0.0000 
     56 H56         7.1407   54.6219   25.7696 H         1 UNK         0.0000 
     57 H57         3.6479   54.0049   19.9635 H         1 UNK         0.0000 
@<TRIPOS>BOND
     1    1    2 1    
     2    1   35 1    
     3    1   36 1    
     4    1   37 1    
     5    2    7 ar   
     6    2    3 ar   
     7    3    4 ar   
     8    3   38 1    
     9    4    5 ar   
    10    4   39 1    
    11    5    6 ar   
    12    5    9 1    
    13    6    7 ar   
    14    6    8 1    
    15    7   40 1    
    16    9   10 1    
    17    9   41 1    
    18   10   11 2    
    19   10   12 1    
    20   12   17 1    
    21   12   13 1    
    22   13   14 1    
    23   13   42 1    
    24   13   43 1    
    25   14   15 1    
    26   14   44 1    
    27   14   45 1    
    28   15   16 1    
    29   15   18 1    
    30   15   46 1    
    31   16   17 1    
    32   16   47 1    
    33   16   48 1    
    34   17   49 1    
    35   17   50 1    
    36   18   23 ar   
    37   18   19 ar   
    38   19   20 ar   
    39   19   51 1    
    40   20   21 ar   
    41   20   34 2    
    42   21   26 ar   
    43   21   22 ar   
    44   22   23 ar   
    45   22   24 ar   
    46   23   57 1    
    47   24   25 ar   
    48   24   52 1    
    49   25   26 ar   
    50   25   27 1    
    51   27   32 ar   
    52   27   28 ar   
    53   28   29 ar   
    54   28   53 1    
    55   29   30 ar   
    56   29   54 1    
    57   30   31 ar   
    58   30   33 1    
    59   31   32 ar   
    60   31   55 1    
    61   32   56 1    
@<TRIPOS>SUBSTRUCTURE
     1 UNK         1 GROUP             0       ****    0 ROOT    
