ZINC29770030_2765
                    3D
 Schrodinger Suite 2024-2.
 51 54  0  0  1  0            999 V2000
    6.6539   52.9108   17.8813 C   0  0  0  0  0  0
    5.7485   54.0962   17.5712 C   0  0  0  0  0  0
    5.3866   55.0432   18.5434 C   0  0  0  0  0  0
    4.5821   56.1177   18.1519 C   0  0  0  0  0  0
    4.1654   56.2403   16.8055 C   0  0  0  0  0  0
    3.3902   57.3322   16.3384 C   0  0  0  0  0  0
    3.0184   57.4147   14.9879 C   0  0  0  0  0  0
    3.4058   56.4026   14.1117 C   0  0  0  0  0  0
    4.1678   55.3178   14.5399 C   0  0  0  0  0  0
    4.5687   55.2231   15.8915 C   0  0  0  0  0  0
    5.3411   54.1705   16.2779 N   0  0  0  0  0  0
    2.2818   58.4474   14.4403 O   0  0  0  0  0  0
    1.8607   59.5224   15.2718 C   0  0  0  0  0  0
    5.9021   54.9773   19.9527 C   0  0  0  0  0  0
    7.0716   55.2967   20.1690 O   0  0  0  0  0  0
    5.0058   54.5504   20.8748 N   0  0  0  0  0  0
    5.2015   54.4405   22.2532 C   0  0  0  0  0  0
    4.2287   54.1000   23.0710 N   0  0  0  0  0  0
    4.5781   54.1565   24.3547 C   0  0  0  0  0  0
    5.9198   54.4971   24.5579 C   0  0  0  0  0  0
    6.7043   54.8062   23.0541 S   0  0  0  0  0  0
    3.6009   53.8631   25.4621 C   0  0  0  0  0  0
    3.9649   54.1399   26.7862 C   0  0  0  0  0  0
    3.1219   53.8157   27.8421 C   0  0  0  0  0  0
    1.8923   53.1916   27.5946 C   0  0  0  0  0  0
    1.5044   52.9498   26.2742 C   0  0  0  0  0  0
    2.3460   53.2918   25.2158 C   0  0  0  0  0  0
    0.9894   52.8058   28.6064 N   0  0  0  0  0  0
    1.2133   52.6611   29.9305 C   0  0  0  0  0  0
    2.3044   52.7888   30.4866 O   0  0  0  0  0  0
    0.0002   52.2858   30.7729 C   0  0  0  0  0  0
    7.6712   53.2597   18.0580 H   0  0  0  0  0  0
    6.3046   52.4028   18.7795 H   0  0  0  0  0  0
    6.6811   52.1788   17.0726 H   0  0  0  0  0  0
    4.3043   56.8886   18.8552 H   0  0  0  0  0  0
    3.1096   58.1026   17.0417 H   0  0  0  0  0  0
    3.1148   56.4678   13.0735 H   0  0  0  0  0  0
    4.4673   54.5492   13.8415 H   0  0  0  0  0  0
    1.2729   60.2234   14.6799 H   0  0  0  0  0  0
    1.2245   59.1677   16.0815 H   0  0  0  0  0  0
    2.7042   60.0752   15.6874 H   0  0  0  0  0  0
    4.0828   54.3185   20.5367 H   0  0  0  0  0  0
    6.4708   54.5843   25.4806 H   0  0  0  0  0  0
    4.9100   54.6029   27.0217 H   0  0  0  0  0  0
    3.4507   54.0565   28.8400 H   0  0  0  0  0  0
    0.5546   52.4821   26.0571 H   0  0  0  0  0  0
    2.0332   53.0721   24.2055 H   0  0  0  0  0  0
    0.0713   52.5449   28.2815 H   0  0  0  0  0  0
   -0.7225   51.6962   30.2080 H   0  0  0  0  0  0
   -0.4948   53.1833   31.1428 H   0  0  0  0  0  0
    0.3039   51.6984   31.6406 H   0  0  0  0  0  0
  1  2  1  0  0  0
  1 32  1  0  0  0
  1 33  1  0  0  0
  1 34  1  0  0  0
  2 11  2  0  0  0
  2  3  1  0  0  0
  3  4  2  0  0  0
  3 14  1  0  0  0
  4  5  1  0  0  0
  4 35  1  0  0  0
  5 10  2  0  0  0
  5  6  1  0  0  0
  6  7  2  0  0  0
  6 36  1  0  0  0
  7  8  1  0  0  0
  7 12  1  0  0  0
  8  9  2  0  0  0
  8 37  1  0  0  0
  9 10  1  0  0  0
  9 38  1  0  0  0
 10 11  1  0  0  0
 12 13  1  0  0  0
 13 39  1  0  0  0
 13 40  1  0  0  0
 13 41  1  0  0  0
 14 15  2  0  0  0
 14 16  1  0  0  0
 16 17  1  0  0  0
 16 42  1  0  0  0
 17 21  1  0  0  0
 17 18  2  0  0  0
 18 19  1  0  0  0
 19 20  2  0  0  0
 19 22  1  0  0  0
 20 21  1  0  0  0
 20 43  1  0  0  0
 22 27  2  0  0  0
 22 23  1  0  0  0
 23 24  2  0  0  0
 23 44  1  0  0  0
 24 25  1  0  0  0
 24 45  1  0  0  0
 25 26  2  0  0  0
 25 28  1  0  0  0
 26 27  1  0  0  0
 26 46  1  0  0  0
 27 47  1  0  0  0
 28 29  1  0  0  0
 28 48  1  0  0  0
 29 30  2  0  0  0
 29 31  1  0  0  0
 31 49  1  0  0  0
 31 50  1  0  0  0
 31 51  1  0  0  0
M  END
> <i_i_glide_confnum>
4

> <i_i_glide_lignum>
2766

> <i_i_glide_posenum>
152

> <i_i_glide_rotatable_bonds>
7

> <i_m_Source_File_Index>
4657

> <b_m_subgroup_collapsed>
0

> <r_i_docking_score>
-5.48762

> <r_i_glide_ecoul>
-4.67952

> <r_i_glide_eff_state_penalty>
0

> <r_i_glide_einternal>
5.35644

> <r_i_glide_emodel>
-59.9066

> <r_i_glide_energy>
-45.554

> <r_i_glide_erotb>
0.53191

> <r_i_glide_esite>
0

> <r_i_glide_evdw>
-40.8745

> <r_i_glide_gscore>
-5.48762

> <r_i_glide_hbond>
-0.117707

> <r_i_glide_ligand_efficiency>
-0.17702

> <r_i_glide_ligand_efficiency_ln>
-1.23763

> <r_i_glide_ligand_efficiency_sa>
-0.556087

> <r_i_glide_lipo>
-2.35149

> <r_i_glide_metal>
0

> <r_i_glide_rewards>
-0.804681

> <s_i_glide_gridfile>
wee1_glide-grid

> <s_m_Source_File>
wee1_decoys_glide_SP.sdf

> <s_m_Source_Path>
/Users/zhangxujun/Desktop

> <s_m_entry_id>
4932

> <s_m_entry_name>
wee1_decoys_glide_SP.4657

> <s_m_subgroup_title>
wee1_decoys_glide_SP

> <s_m_subgroupid>
wee1_decoys_glide_SP


$$$$
