ZINC38687934_2417
                    3D
 Schrodinger Suite 2024-2.
 49 53  0  0  1  0            999 V2000
    6.7064   53.6793   15.2626 C   0  0  0  0  0  0
    7.2825   54.9526   15.2739 C   0  0  0  0  0  0
    7.2662   55.7205   16.4404 C   0  0  0  0  0  0
    6.6711   55.2087   17.5934 C   0  0  0  0  0  0
    6.0867   53.9390   17.5799 C   0  0  0  0  0  0
    6.1067   53.1688   16.4155 C   0  0  0  0  0  0
    5.4871   53.4736   18.8271 C   0  0  0  0  0  0
    5.5008   54.2150   19.9586 C   0  0  0  0  0  0
    6.1558   55.5537   19.9455 C   0  0  0  0  0  0
    6.3046   56.3366   20.8838 O   0  0  0  0  0  0
    6.6821   55.9946   18.7361 O   0  0  0  0  0  0
    4.9047   53.6168   21.1594 C   0  0  0  0  0  0
    5.1027   52.4408   21.4841 O   0  0  0  0  0  0
    4.1326   54.4901   21.8608 O   0  0  0  0  0  0
    3.8099   54.2229   23.1720 C   0  0  0  0  0  0
    2.4906   53.9482   23.5345 C   0  0  0  0  0  0
    2.1469   53.7890   24.8801 C   0  0  0  0  0  0
    3.1050   53.9129   25.9021 C   0  0  0  0  0  0
    4.4294   54.1876   25.5011 C   0  0  0  0  0  0
    4.7820   54.3397   24.1657 C   0  0  0  0  0  0
    5.4520   54.3371   26.4119 O   0  0  0  0  0  0
    5.2949   53.7532   27.6195 C   0  0  0  0  0  0
    4.0962   53.4366   28.1530 C   0  0  0  0  0  0
    2.8040   53.8580   27.4259 C   0  0  2  0  0  0
    2.6127   54.9076   27.6596 H   0  0  0  0  0  0
    1.5531   53.1046   27.9230 C   0  0  0  0  0  0
    0.9874   52.0348   27.2150 C   0  0  0  0  0  0
   -0.1062   51.3386   27.7298 C   0  0  0  0  0  0
   -0.6456   51.6969   28.9634 C   0  0  0  0  0  0
   -0.0922   52.7530   29.6826 C   0  0  0  0  0  0
    0.9966   53.4548   29.1659 C   0  0  0  0  0  0
    1.5203   54.4748   29.8867 F   0  0  0  0  0  0
    4.0182   52.7030   29.3790 C   0  0  0  0  0  0
    3.9046   52.0968   30.3599 N   0  0  0  0  0  0
    6.5398   53.4732   28.1025 N   0  0  0  0  0  0
    6.7254   53.0858   14.3603 H   0  0  0  0  0  0
    7.7448   55.3426   14.3792 H   0  0  0  0  0  0
    7.7143   56.7036   16.4495 H   0  0  0  0  0  0
    5.6663   52.1802   16.4050 H   0  0  0  0  0  0
    5.0227   52.4966   18.8242 H   0  0  0  0  0  0
    1.7289   53.8894   22.7703 H   0  0  0  0  0  0
    1.1060   53.6296   25.1205 H   0  0  0  0  0  0
    5.8031   54.5735   23.9014 H   0  0  0  0  0  0
    1.4184   51.6967   26.2857 H   0  0  0  0  0  0
   -0.5208   50.4965   27.1927 H   0  0  0  0  0  0
   -1.4752   51.1355   29.3719 H   0  0  0  0  0  0
   -0.4948   53.0164   30.6500 H   0  0  0  0  0  0
    6.6708   53.1670   29.0552 H   0  0  0  0  0  0
    7.3220   53.3926   27.4714 H   0  0  0  0  0  0
  1  6  2  0  0  0
  1  2  1  0  0  0
  1 36  1  0  0  0
  2  3  2  0  0  0
  2 37  1  0  0  0
  3  4  1  0  0  0
  3 38  1  0  0  0
  4 11  1  0  0  0
  4  5  2  0  0  0
  5  6  1  0  0  0
  5  7  1  0  0  0
  6 39  1  0  0  0
  7  8  2  0  0  0
  7 40  1  0  0  0
  8  9  1  0  0  0
  8 12  1  0  0  0
  9 10  2  0  0  0
  9 11  1  0  0  0
 12 13  2  0  0  0
 12 14  1  0  0  0
 14 15  1  0  0  0
 15 20  2  0  0  0
 15 16  1  0  0  0
 16 17  2  0  0  0
 16 41  1  0  0  0
 17 18  1  0  0  0
 17 42  1  0  0  0
 18 24  1  0  0  0
 18 19  2  0  0  0
 19 20  1  0  0  0
 19 21  1  0  0  0
 20 43  1  0  0  0
 21 22  1  0  0  0
 22 23  2  0  0  0
 22 35  1  0  0  0
 23 24  1  0  0  0
 23 33  1  0  0  0
 24 25  1  0  0  0
 24 26  1  0  0  0
 26 31  2  0  0  0
 26 27  1  0  0  0
 27 28  2  0  0  0
 27 44  1  0  0  0
 28 29  1  0  0  0
 28 45  1  0  0  0
 29 30  2  0  0  0
 29 46  1  0  0  0
 30 31  1  0  0  0
 30 47  1  0  0  0
 31 32  1  0  0  0
 33 34  3  0  0  0
 35 48  1  0  0  0
 35 49  1  0  0  0
M  END
> <i_i_glide_confnum>
13

> <i_i_glide_lignum>
2418

> <i_i_glide_posenum>
101

> <i_i_glide_rotatable_bonds>
5

> <i_m_Source_File_Index>
1160

> <b_m_subgroup_collapsed>
0

> <r_i_docking_score>
-5.35152

> <r_i_glide_ecoul>
-7.67548

> <r_i_glide_eff_state_penalty>
0

> <r_i_glide_einternal>
7.33924

> <r_i_glide_emodel>
-65.471

> <r_i_glide_energy>
-56.6381

> <r_i_glide_erotb>
0.389004

> <r_i_glide_esite>
0

> <r_i_glide_evdw>
-48.9627

> <r_i_glide_gscore>
-5.35152

> <r_i_glide_hbond>
-0.13326

> <r_i_glide_ligand_efficiency>
-0.157398

> <r_i_glide_ligand_efficiency_ln>
-1.1823

> <r_i_glide_ligand_efficiency_sa>
-0.509907

> <r_i_glide_lipo>
-2.59947

> <r_i_glide_metal>
0

> <r_i_glide_rewards>
0.591654

> <s_i_glide_gridfile>
wee1_glide-grid

> <s_m_Source_File>
wee1_decoys_glide_SP.sdf

> <s_m_Source_Path>
/Users/zhangxujun/Desktop

> <s_m_entry_id>
1435

> <s_m_entry_name>
wee1_decoys_glide_SP.1160

> <s_m_subgroup_title>
wee1_decoys_glide_SP

> <s_m_subgroupid>
wee1_decoys_glide_SP


$$$$
