ZINC09305250_2801
                    3D
 Schrodinger Suite 2024-2.
 53 57  0  0  1  0            999 V2000
   -0.1065   52.0413   28.3334 C   0  0  0  0  0  0
    0.9582   52.8975   27.6248 C   0  0  1  0  0  0
    0.6477   53.9402   27.7329 H   0  0  0  0  0  0
    2.3514   52.6864   28.2472 C   0  0  0  0  0  0
    3.3875   53.6974   27.7112 C   0  0  0  0  0  0
    3.2994   53.7739   26.1793 C   0  0  0  0  0  0
    2.1825   53.2872   25.4797 C   0  0  0  0  0  0
    2.3354   53.4945   23.7701 S   0  0  0  0  0  0
    3.9309   54.1343   23.9561 C   0  0  0  0  0  0
    4.3055   54.2617   25.3133 C   0  0  0  0  0  0
    5.5536   54.8393   25.8095 C   0  0  0  0  0  0
    6.5427   55.2950   26.2032 N   0  0  0  0  0  0
    4.5584   54.4832   22.7616 N   0  0  0  0  0  0
    5.8818   54.4301   22.5066 C   0  0  0  0  0  0
    6.7429   53.9948   23.2743 O   0  0  0  0  0  0
    6.2553   54.9378   21.2081 C   0  0  0  0  0  0
    7.5070   55.5012   20.9174 C   0  0  0  0  0  0
    7.5422   55.6868   19.5554 C   0  0  0  0  0  0
    6.2774   55.3433   19.1067 N   0  0  0  0  0  0
    5.5312   54.8481   20.1102 N   0  0  0  0  0  0
    5.8494   55.2781   17.6948 C   0  0  2  0  0  0
    5.9560   54.2373   17.3828 H   0  0  0  0  0  0
    6.8519   56.1394   16.8767 C   0  0  0  0  0  0
    8.3267   55.8903   17.2709 C   0  0  1  0  0  0
    8.9276   56.6396   16.7523 H   0  0  0  0  0  0
    8.5118   56.1793   18.6996 N   0  0  0  0  0  0
    8.8616   54.5369   16.8314 C   0  0  0  0  0  0
    9.7314   54.1410   15.8247 C   0  0  0  0  0  0
    9.7954   52.7468   15.8543 C   0  0  0  0  0  0
    8.9586   52.3490   16.8815 C   0  0  0  0  0  0
    8.4002   53.4314   17.4776 O   0  0  0  0  0  0
    4.3688   55.6574   17.4369 C   0  0  0  0  0  0
    4.0789   55.5875   16.1371 F   0  0  0  0  0  0
    3.5193   54.8496   18.0740 F   0  0  0  0  0  0
    4.1151   56.9078   17.8266 F   0  0  0  0  0  0
    0.9954   52.5660   26.1125 C   0  0  0  0  0  0
    0.1151   50.9750   28.2584 H   0  0  0  0  0  0
   -0.1726   52.2878   29.3942 H   0  0  0  0  0  0
   -1.0952   52.1998   27.9033 H   0  0  0  0  0  0
    2.6777   51.6548   28.1023 H   0  0  0  0  0  0
    2.2886   52.8037   29.3311 H   0  0  0  0  0  0
    3.2087   54.6856   28.1378 H   0  0  0  0  0  0
    4.3870   53.4009   28.0348 H   0  0  0  0  0  0
    3.9575   54.6103   21.9590 H   0  0  0  0  0  0
    8.3038   55.6949   21.6195 H   0  0  0  0  0  0
    6.7109   55.9632   15.8087 H   0  0  0  0  0  0
    6.6108   57.1956   17.0102 H   0  0  0  0  0  0
    9.4821   56.0923   18.9688 H   0  0  0  0  0  0
   10.2480   54.7948   15.1374 H   0  0  0  0  0  0
   10.3729   52.1094   15.2011 H   0  0  0  0  0  0
    8.6798   51.3860   17.2824 H   0  0  0  0  0  0
    1.1043   51.4905   25.9702 H   0  0  0  0  0  0
    0.0625   52.8561   25.6331 H   0  0  0  0  0  0
  1  2  1  0  0  0
  1 37  1  0  0  0
  1 38  1  0  0  0
  1 39  1  0  0  0
  2  3  1  0  0  0
  2 36  1  0  0  0
  2  4  1  0  0  0
  4  5  1  0  0  0
  4 40  1  0  0  0
  4 41  1  0  0  0
  5  6  1  0  0  0
  5 42  1  0  0  0
  5 43  1  0  0  0
  6 10  1  0  0  0
  6  7  2  0  0  0
  7  8  1  0  0  0
  7 36  1  0  0  0
  8  9  1  0  0  0
  9 10  2  0  0  0
  9 13  1  0  0  0
 10 11  1  0  0  0
 11 12  3  0  0  0
 13 14  1  0  0  0
 13 44  1  0  0  0
 14 15  2  0  0  0
 14 16  1  0  0  0
 16 20  2  0  0  0
 16 17  1  0  0  0
 17 18  2  0  0  0
 17 45  1  0  0  0
 18 26  1  0  0  0
 18 19  1  0  0  0
 19 20  1  0  0  0
 19 21  1  0  0  0
 21 22  1  0  0  0
 21 23  1  0  0  0
 21 32  1  0  0  0
 23 24  1  0  0  0
 23 46  1  0  0  0
 23 47  1  0  0  0
 24 25  1  0  0  0
 24 26  1  0  0  0
 24 27  1  0  0  0
 26 48  1  0  0  0
 27 31  1  0  0  0
 27 28  2  0  0  0
 28 29  1  0  0  0
 28 49  1  0  0  0
 29 30  2  0  0  0
 29 50  1  0  0  0
 30 31  1  0  0  0
 30 51  1  0  0  0
 32 33  1  0  0  0
 32 34  1  0  0  0
 32 35  1  0  0  0
 36 52  1  0  0  0
 36 53  1  0  0  0
M  END
> <i_i_glide_confnum>
51

> <i_i_glide_lignum>
2802

> <i_i_glide_posenum>
375

> <i_i_glide_rotatable_bonds>
6

> <i_m_Source_File_Index>
4813

> <b_m_subgroup_collapsed>
0

> <r_i_docking_score>
-6.28315

> <r_i_glide_ecoul>
-4.20565

> <r_i_glide_eff_state_penalty>
0

> <r_i_glide_einternal>
11.4655

> <r_i_glide_emodel>
-62.1519

> <r_i_glide_energy>
-49.2794

> <r_i_glide_erotb>
0.358138

> <r_i_glide_esite>
-0.00978947

> <r_i_glide_evdw>
-45.0738

> <r_i_glide_gscore>
-6.28315

> <r_i_glide_hbond>
-0.234464

> <r_i_glide_ligand_efficiency>
-0.190398

> <r_i_glide_ligand_efficiency_ln>
-1.39734

> <r_i_glide_ligand_efficiency_sa>
-0.61071

> <r_i_glide_lipo>
-2.32126

> <r_i_glide_metal>
0

> <r_i_glide_rewards>
-1.19124

> <s_i_glide_gridfile>
wee1_glide-grid

> <s_m_Source_File>
wee1_decoys_glide_SP.sdf

> <s_m_Source_Path>
/Users/zhangxujun/Desktop

> <s_m_entry_id>
5088

> <s_m_entry_name>
wee1_decoys_glide_SP.4813

> <s_m_subgroup_title>
wee1_decoys_glide_SP

> <s_m_subgroupid>
wee1_decoys_glide_SP


$$$$
