ZINC13428477_1945
                    3D
 Schrodinger Suite 2024-2.
 50 53  0  0  1  0            999 V2000
    1.2068   55.5394   30.1313 C   0  0  0  0  0  0
    1.0915   54.0023   30.2434 C   0  0  1  0  0  0
    1.4719   53.6822   31.2148 H   0  0  0  0  0  0
   -0.3340   53.4807   30.0924 C   0  0  0  0  0  0
   -0.2760   52.4826   28.9845 C   0  0  0  0  0  0
   -1.2709   51.6967   28.3924 C   0  0  0  0  0  0
   -0.9490   50.8975   27.2959 C   0  0  0  0  0  0
    0.3743   50.7981   26.8726 C   0  0  0  0  0  0
    1.3602   51.5402   27.5242 C   0  0  0  0  0  0
    1.0272   52.4230   28.5340 C   0  0  0  0  0  0
    1.8568   53.3255   29.2026 N   0  0  0  0  0  0
    3.5979   53.1306   29.4332 S   0  0  0  0  0  0
    3.8634   51.6987   29.6190 O   0  0  0  0  0  0
    3.9505   54.0853   30.4803 O   0  0  0  0  0  0
    4.4680   53.7001   27.9722 C   0  0  0  0  0  0
    5.8056   54.0635   28.1252 C   0  0  0  0  0  0
    6.5446   54.4944   27.0324 C   0  0  0  0  0  0
    5.9677   54.5364   25.7667 C   0  0  0  0  0  0
    4.6277   54.1486   25.5790 C   0  0  0  0  0  0
    3.8799   53.7569   26.7039 C   0  0  0  0  0  0
    3.9993   54.0962   24.2012 C   0  0  0  0  0  0
    2.7840   53.9359   24.0744 O   0  0  0  0  0  0
    4.8607   54.1915   23.1655 N   0  0  0  0  0  0
    4.6465   54.0119   21.7859 C   0  0  0  0  0  0
    3.6775   53.1088   21.3212 C   0  0  0  0  0  0
    3.5036   52.8950   19.9579 C   0  0  0  0  0  0
    4.2890   53.5863   19.0412 C   0  0  0  0  0  0
    5.2522   54.4901   19.4862 C   0  0  0  0  0  0
    5.4597   54.7151   20.8568 C   0  0  0  0  0  0
    6.5156   55.7025   21.2804 C   0  0  0  0  0  0
    7.1039   55.4908   22.3659 O   0  0  0  0  0  0
    2.5674   52.0196   19.5279 F   0  0  0  0  0  0
    0.5996   56.0344   30.8888 H   0  0  0  0  0  0
    2.2285   55.8894   30.2723 H   0  0  0  0  0  0
    0.8835   55.8944   29.1523 H   0  0  0  0  0  0
   -0.6865   53.0319   31.0242 H   0  0  0  0  0  0
   -0.9582   54.3236   29.8349 H   0  0  0  0  0  0
   -2.2889   51.7037   28.7516 H   0  0  0  0  0  0
   -1.7104   50.2886   26.8298 H   0  0  0  0  0  0
    0.6379   50.1205   26.0740 H   0  0  0  0  0  0
    2.3973   51.4385   27.2814 H   0  0  0  0  0  0
    6.2763   54.0323   29.0969 H   0  0  0  0  0  0
    7.5694   54.7884   27.1807 H   0  0  0  0  0  0
    6.5883   54.8636   24.9429 H   0  0  0  0  0  0
    2.8428   53.4868   26.5816 H   0  0  0  0  0  0
    5.8021   54.5150   23.3601 H   0  0  0  0  0  0
    3.0607   52.5476   22.0065 H   0  0  0  0  0  0
    4.1514   53.4158   17.9837 H   0  0  0  0  0  0
    5.8468   55.0156   18.7513 H   0  0  0  0  0  0
    6.7177   56.7060   20.5565 O   0  5  0  0  0  0
  1  2  1  0  0  0
  1 33  1  0  0  0
  1 34  1  0  0  0
  1 35  1  0  0  0
  2  3  1  0  0  0
  2 11  1  0  0  0
  2  4  1  0  0  0
  4  5  1  0  0  0
  4 36  1  0  0  0
  4 37  1  0  0  0
  5 10  2  0  0  0
  5  6  1  0  0  0
  6  7  2  0  0  0
  6 38  1  0  0  0
  7  8  1  0  0  0
  7 39  1  0  0  0
  8  9  2  0  0  0
  8 40  1  0  0  0
  9 10  1  0  0  0
  9 41  1  0  0  0
 10 11  1  0  0  0
 11 12  1  0  0  0
 12 13  2  0  0  0
 12 14  2  0  0  0
 12 15  1  0  0  0
 15 20  2  0  0  0
 15 16  1  0  0  0
 16 17  2  0  0  0
 16 42  1  0  0  0
 17 18  1  0  0  0
 17 43  1  0  0  0
 18 19  2  0  0  0
 18 44  1  0  0  0
 19 20  1  0  0  0
 19 21  1  0  0  0
 20 45  1  0  0  0
 21 22  2  0  0  0
 21 23  1  0  0  0
 23 24  1  0  0  0
 23 46  1  0  0  0
 24 29  2  0  0  0
 24 25  1  0  0  0
 25 26  2  0  0  0
 25 47  1  0  0  0
 26 27  1  0  0  0
 26 32  1  0  0  0
 27 28  2  0  0  0
 27 48  1  0  0  0
 28 29  1  0  0  0
 28 49  1  0  0  0
 29 30  1  0  0  0
 30 31  2  0  0  0
 30 50  1  0  0  0
M  CHG  1  50  -1
M  END
> <i_i_glide_confnum>
5

> <i_i_glide_lignum>
1946

> <i_i_glide_posenum>
202

> <i_i_glide_rotatable_bonds>
6

> <i_m_Source_File_Index>
2221

> <b_m_subgroup_collapsed>
0

> <r_i_docking_score>
-5.99337

> <r_i_glide_ecoul>
-6.46281

> <r_i_glide_eff_state_penalty>
0

> <r_i_glide_einternal>
4.40581

> <r_i_glide_emodel>
-63.7993

> <r_i_glide_energy>
-47.9654

> <r_i_glide_erotb>
0.488095

> <r_i_glide_esite>
-0.058971

> <r_i_glide_evdw>
-41.5026

> <r_i_glide_gscore>
-5.99337

> <r_i_glide_hbond>
-0.159328

> <r_i_glide_ligand_efficiency>
-0.187293

> <r_i_glide_ligand_efficiency_ln>
-1.34208

> <r_i_glide_ligand_efficiency_sa>
-0.594618

> <r_i_glide_lipo>
-2.83327

> <r_i_glide_metal>
0

> <r_i_glide_rewards>
-0.385344

> <s_i_glide_gridfile>
wee1_glide-grid

> <s_m_Source_File>
wee1_decoys_glide_SP.sdf

> <s_m_Source_Path>
/Users/zhangxujun/Desktop

> <s_m_entry_id>
2496

> <s_m_entry_name>
wee1_decoys_glide_SP.2221

> <s_m_subgroup_title>
wee1_decoys_glide_SP

> <s_m_subgroupid>
wee1_decoys_glide_SP


$$$$
