@<TRIPOS>MOLECULE
ZINC35890866_1134
67   70    1
SMALL
USER_CHARGES


@<TRIPOS>ATOM
      1 C1          5.8169   54.4999   20.1185 C.3       1 UNK         0.0000 
      2 C2          5.2616   54.3579   21.5226 C.ar      1 UNK         0.0000 
      3 C3          3.9063   54.0964   21.7073 C.ar      1 UNK         0.0000 
      4 C4          3.3899   53.9686   22.9942 C.ar      1 UNK         0.0000 
      5 C5          4.2143   54.0967   24.1230 C.ar      1 UNK         0.0000 
      6 C6          5.5794   54.3633   23.9159 C.ar      1 UNK         0.0000 
      7 C7          6.0991   54.4956   22.6285 C.ar      1 UNK         0.0000 
      8 C8          3.6550   53.9138   25.5015 C.ar      1 UNK         0.0000 
      9 N9          4.3778   54.3305   26.5492 N.pl3     1 UNK         0.0000 
     10 C10         3.9685   54.1843   27.8193 C.ar      1 UNK         0.0000 
     11 C11         2.7169   53.5700   28.0779 C.ar      1 UNK         0.0000 
     12 C12         1.9494   53.1522   26.9400 C.ar      1 UNK         0.0000 
     13 N13         2.4568   53.3053   25.6794 N.ar      1 UNK         0.0000 
     14 N14         0.6678   52.5656   26.9591 N.pl3     1 UNK         0.0000 
     15 C15        -0.4122   52.8898   27.9082 C.3       1 UNK         0.0000 
     16 C16        -1.3204   51.6987   28.2535 C.3       1 UNK         0.0000 
     17 N17        -1.9583   51.1766   27.0243 N.am      1 UNK         0.0000 
     18 C18        -1.3950   51.5789   25.7128 C.3       1 UNK         0.0000 
     19 C19         0.1425   51.7491   25.8347 C.3       1 UNK         0.0000 
     20 C20        -3.2420   50.7213   27.1072 C.2       1 UNK         0.0000 
     21 O21        -3.9685   50.9119   28.0881 O.2       1 UNK         0.0000 
     22 N22        -3.6452   49.9935   26.0412 N.am      1 UNK         0.0000 
     23 C23        -4.7904   49.1849   25.9331 C.ar      1 UNK         0.0000 
     24 C24        -5.2376   48.4195   27.0226 C.ar      1 UNK         0.0000 
     25 C25        -6.3542   47.5929   26.8946 C.ar      1 UNK         0.0000 
     26 C26        -7.0297   47.5218   25.6809 C.ar      1 UNK         0.0000 
     27 C27        -6.5817   48.2622   24.5877 C.ar      1 UNK         0.0000 
     28 C28        -5.4570   49.0956   24.6924 C.ar      1 UNK         0.0000 
     29 C29        -4.9745   49.8851   23.4655 C.3       1 UNK         0.0000 
     30 F30        -5.0281   51.1911   23.7180 F         1 UNK         0.0000 
     31 F31        -3.7129   49.5580   23.1857 F         1 UNK         0.0000 
     32 F32        -5.7074   49.6465   22.3761 F         1 UNK         0.0000 
     33 C33         2.2737   53.2992   29.5334 C.3       1 UNK         0.0000 
     34 C34         3.3082   52.5934   30.4375 C.3       1 UNK         0.0000 
     35 C35         1.6685   54.5576   30.1949 C.3       1 UNK         0.0000 
     36 C36         4.9710   54.6556   28.8595 C.3       1 UNK         0.0000 
     37 H37         5.1726   55.1476   19.5207 H         1 UNK         0.0000 
     38 H38         6.8156   54.9417   20.1120 H         1 UNK         0.0000 
     39 H39         5.8575   53.5280   19.6239 H         1 UNK         0.0000 
     40 H40         3.2498   53.9959   20.8545 H         1 UNK         0.0000 
     41 H41         2.3328   53.7628   23.0999 H         1 UNK         0.0000 
     42 H42         6.2644   54.4546   24.7428 H         1 UNK         0.0000 
     43 H43         7.1555   54.6995   22.4988 H         1 UNK         0.0000 
     44 H44        -0.1309   53.4258   28.7998 H         1 UNK         0.0000 
     45 H45        -1.0356   53.6161   27.3892 H         1 UNK         0.0000 
     46 H46        -0.7841   50.9117   28.7886 H         1 UNK         0.0000 
     47 H47        -2.0701   52.0843   28.9462 H         1 UNK         0.0000 
     48 H48        -1.7905   52.5483   25.4089 H         1 UNK         0.0000 
     49 H49        -1.5306   50.8151   24.9456 H         1 UNK         0.0000 
     50 H50         0.5323   52.0631   24.8662 H         1 UNK         0.0000 
     51 H51         0.5380   50.7491   26.0345 H         1 UNK         0.0000 
     52 H52        -3.0221   49.9518   25.2513 H         1 UNK         0.0000 
     53 H53        -4.7106   48.4463   27.9665 H         1 UNK         0.0000 
     54 H54        -6.6905   47.0068   27.7389 H         1 UNK         0.0000 
     55 H55        -7.8969   46.8834   25.5831 H         1 UNK         0.0000 
     56 H56        -7.1197   48.1765   23.6539 H         1 UNK         0.0000 
     57 H57         1.5110   52.5278   29.4914 H         1 UNK         0.0000 
     58 H58         3.8715   51.8360   29.8899 H         1 UNK         0.0000 
     59 H59         2.8125   52.0936   31.2693 H         1 UNK         0.0000 
     60 H60         4.0207   53.2828   30.8869 H         1 UNK         0.0000 
     61 H61         0.9855   55.0857   29.5314 H         1 UNK         0.0000 
     62 H62         1.1028   54.2997   31.0923 H         1 UNK         0.0000 
     63 H63         2.4277   55.2824   30.4760 H         1 UNK         0.0000 
     64 H64         5.4944   53.8016   29.2806 H         1 UNK         0.0000 
     65 H65         5.7417   55.2970   28.4317 H         1 UNK         0.0000 
     66 H66         4.4976   55.2217   29.6602 H         1 UNK         0.0000 
     67 H67         5.2725   54.7587   26.3713 H         1 UNK         0.0000 
@<TRIPOS>BOND
     1    1    2 1    
     2    1   37 1    
     3    1   38 1    
     4    1   39 1    
     5    2    7 ar   
     6    2    3 ar   
     7    3    4 ar   
     8    3   40 1    
     9    4    5 ar   
    10    4   41 1    
    11    5    6 ar   
    12    5    8 1    
    13    6    7 ar   
    14    6   42 1    
    15    7   43 1    
    16    8   13 ar   
    17    8    9 ar   
    18    9   10 ar   
    19    9   67 1    
    20   10   11 ar   
    21   10   36 1    
    22   11   12 ar   
    23   11   33 1    
    24   12   13 ar   
    25   12   14 1    
    26   14   19 1    
    27   14   15 1    
    28   15   16 1    
    29   15   44 1    
    30   15   45 1    
    31   16   17 1    
    32   16   46 1    
    33   16   47 1    
    34   17   18 1    
    35   17   20 am   BACKBONE|DICT|INTERRES
    36   18   19 1    
    37   18   48 1    
    38   18   49 1    
    39   19   50 1    
    40   19   51 1    
    41   20   21 2    
    42   20   22 am   BACKBONE|DICT|INTERRES
    43   22   23 1    
    44   22   52 1    
    45   23   28 ar   
    46   23   24 ar   
    47   24   25 ar   
    48   24   53 1    
    49   25   26 ar   
    50   25   54 1    
    51   26   27 ar   
    52   26   55 1    
    53   27   28 ar   
    54   27   56 1    
    55   28   29 1    
    56   29   30 1    
    57   29   31 1    
    58   29   32 1    
    59   33   34 1    
    60   33   35 1    
    61   33   57 1    
    62   34   58 1    
    63   34   59 1    
    64   34   60 1    
    65   35   61 1    
    66   35   62 1    
    67   35   63 1    
    68   36   64 1    
    69   36   65 1    
    70   36   66 1    
@<TRIPOS>SUBSTRUCTURE
     1 UNK         1 GROUP             0       ****    0 ROOT    
