@<TRIPOS>MOLECULE
ZINC37205715_1834
32   32    1
SMALL
USER_CHARGES


@<TRIPOS>ATOM
      1 C1          0.1753   53.1374   30.4965 C.3       1 UNK         0.0000 
      2 C2          0.8259   53.0355   29.1017 C.3       1 UNK         0.0000 
      3 H3          0.6029   53.9755   28.5964 H         1 UNK         0.0000 
      4 C4          2.3548   52.8549   29.2176 C.2       1 UNK         0.0000 
      5 O5          2.8132   52.0966   30.0790 O.2       1 UNK         0.0000 
      6 N6          3.0974   53.5863   28.3532 N.am      1 UNK         0.0000 
      7 C7          4.4383   53.5749   28.2071 C.2       1 UNK         0.0000 
      8 O8          5.2219   52.8967   28.8709 O.2       1 UNK         0.0000 
      9 N9          4.8346   54.4123   27.2357 N.am      1 UNK         0.0000 
     10 C10         6.2326   54.6751   26.9118 C.3       1 UNK         0.0000 
     11 S11         0.0330   51.6969   28.1414 S.3       1 UNK         0.0000 
     12 C12         0.5167   51.7089   26.4229 C.ar      1 UNK         0.0000 
     13 C13         1.1013   52.8524   25.8645 C.ar      1 UNK         0.0000 
     14 C14         1.4854   52.8761   24.5254 C.ar      1 UNK         0.0000 
     15 C15         1.2893   51.7527   23.7271 C.ar      1 UNK         0.0000 
     16 C16         0.7017   50.6097   24.2660 C.ar      1 UNK         0.0000 
     17 C17         0.3045   50.5796   25.6059 C.ar      1 UNK         0.0000 
     18 N18        -0.2690   49.3984   26.0817 N.pl3     1 UNK         0.0000 
     19 Br19        1.8239   51.7814   21.9017 Br        1 UNK         0.0000 
     20 H20         0.5841   53.9626   31.0813 H         1 UNK         0.0000 
     21 H21        -0.8955   53.3001   30.4058 H         1 UNK         0.0000 
     22 H22         0.3048   52.2224   31.0781 H         1 UNK         0.0000 
     23 H23         2.5871   54.1930   27.7351 H         1 UNK         0.0000 
     24 H24         4.1467   54.8822   26.6671 H         1 UNK         0.0000 
     25 H25         6.3040   55.1978   25.9575 H         1 UNK         0.0000 
     26 H26         6.8009   53.7460   26.8341 H         1 UNK         0.0000 
     27 H27         6.6920   55.2972   27.6817 H         1 UNK         0.0000 
     28 H28         1.2425   53.7414   26.4522 H         1 UNK         0.0000 
     29 H29         1.9322   53.7649   24.1043 H         1 UNK         0.0000 
     30 H30         0.5583   49.7444   23.6356 H         1 UNK         0.0000 
     31 H31        -0.2245   48.5608   25.5215 H         1 UNK         0.0000 
     32 H32        -0.6076   49.3222   27.0429 H         1 UNK         0.0000 
@<TRIPOS>BOND
     1    1    2 1    
     2    1   20 1    
     3    1   21 1    
     4    1   22 1    
     5    2    3 1    
     6    2    4 1    
     7    2   11 1    
     8    4    5 2    
     9    4    6 am   BACKBONE|DICT|INTERRES
    10    6    7 am   BACKBONE|DICT|INTERRES
    11    6   23 1    
    12    7    8 2    
    13    7    9 am   BACKBONE|DICT|INTERRES
    14    9   10 1    
    15    9   24 1    
    16   10   25 1    
    17   10   26 1    
    18   10   27 1    
    19   11   12 1    
    20   12   17 ar   
    21   12   13 ar   
    22   13   14 ar   
    23   13   28 1    
    24   14   15 ar   
    25   14   29 1    
    26   15   16 ar   
    27   15   19 1    
    28   16   17 ar   
    29   16   30 1    
    30   17   18 1    
    31   18   31 1    
    32   18   32 1    
@<TRIPOS>SUBSTRUCTURE
     1 UNK         1 GROUP             0       ****    0 ROOT    
