ZINC09484891_510
                    3D
 Schrodinger Suite 2024-2.
 60 63  0  0  1  0            999 V2000
    2.9069   53.4461   22.9804 C   0  0  0  0  0  0
    4.2807   54.0136   23.3402 C   0  0  0  0  0  0
    5.1100   54.4967   22.2108 C   0  0  0  0  0  0
    4.7324   54.4232   20.8618 C   0  0  0  0  0  0
    5.5606   54.9167   19.8482 C   0  0  0  0  0  0
    6.7944   55.4926   20.2118 C   0  0  0  0  0  0
    7.1995   55.5394   21.5411 C   0  0  0  0  0  0
    6.3610   55.0364   22.5292 C   0  0  0  0  0  0
    6.8046   55.1507   23.8322 O   0  0  0  0  0  0
    6.1063   54.6411   24.8975 C   0  0  0  0  0  0
    6.6820   54.7451   25.9814 O   0  0  0  0  0  0
    4.7660   54.0559   24.6118 C   0  0  0  0  0  0
    4.1420   53.2967   25.8012 C   0  0  0  0  0  0
    3.2893   54.1075   26.7458 C   0  0  0  0  0  0
    3.5045   55.2967   26.8428 O   0  0  0  0  0  0
    2.3396   53.4651   27.4469 N   0  0  0  0  0  0
    1.3706   54.0862   28.3701 C   0  0  1  0  0  0
    0.8750   54.9038   27.8432 H   0  0  0  0  0  0
    0.2828   53.0802   28.8141 C   0  0  0  0  0  0
   -0.5022   52.2251   27.4132 S   0  0  0  0  0  0
   -1.7804   51.3042   28.3047 C   0  0  0  0  0  0
    2.0500   54.7143   29.6322 C   0  0  0  0  0  0
    1.4621   55.7240   30.0800 O   0  0  0  0  0  0
    7.7059   55.9834   19.2932 O   0  0  0  0  0  0
    7.1768   56.3752   18.0167 C   0  0  0  0  0  0
    6.3910   57.7111   18.1898 C   0  0  0  0  0  0
    6.0129   58.3488   16.8366 C   0  0  0  0  0  0
    7.2510   58.5766   15.9493 C   0  0  0  0  0  0
    8.0980   57.2985   15.7901 C   0  0  0  0  0  0
    8.4349   56.6511   17.1527 C   0  0  0  0  0  0
    6.3382   55.1843   17.4738 C   0  0  0  0  0  0
    5.1355   54.8828   18.3847 C   0  0  0  0  0  0
    2.3423   54.1768   22.3997 H   0  0  0  0  0  0
    3.0118   52.5397   22.3834 H   0  0  0  0  0  0
    2.2875   53.2116   23.8438 H   0  0  0  0  0  0
    3.7795   54.0007   20.5776 H   0  0  0  0  0  0
    8.1616   55.9564   21.8031 H   0  0  0  0  0  0
    4.9223   52.8466   26.4172 H   0  0  0  0  0  0
    3.5038   52.4968   25.4356 H   0  0  0  0  0  0
    2.2281   52.4694   27.3277 H   0  0  0  0  0  0
   -0.4930   53.5906   29.3881 H   0  0  0  0  0  0
    0.7071   52.3188   29.4717 H   0  0  0  0  0  0
   -2.1544   50.4958   27.6813 H   0  0  0  0  0  0
   -2.6246   51.9384   28.5618 H   0  0  0  0  0  0
   -1.3751   50.8958   29.2287 H   0  0  0  0  0  0
    5.5045   57.5875   18.8100 H   0  0  0  0  0  0
    7.0302   58.4331   18.7006 H   0  0  0  0  0  0
    5.2973   57.7125   16.3147 H   0  0  0  0  0  0
    5.5003   59.2966   17.0022 H   0  0  0  0  0  0
    6.9429   58.9473   14.9706 H   0  0  0  0  0  0
    7.8629   59.3655   16.3898 H   0  0  0  0  0  0
    7.5636   56.5835   15.1637 H   0  0  0  0  0  0
    9.0187   57.5320   15.2542 H   0  0  0  0  0  0
    9.0760   57.3612   17.6783 H   0  0  0  0  0  0
    9.0172   55.7397   17.0107 H   0  0  0  0  0  0
    6.9706   54.2953   17.4393 H   0  0  0  0  0  0
    6.0060   55.3588   16.4507 H   0  0  0  0  0  0
    4.7011   53.9141   18.1322 H   0  0  0  0  0  0
    4.3514   55.6240   18.2248 H   0  0  0  0  0  0
    3.0457   54.0976   30.0817 O   0  5  0  0  0  0
  1  2  1  0  0  0
  1 33  1  0  0  0
  1 34  1  0  0  0
  1 35  1  0  0  0
  2 12  2  0  0  0
  2  3  1  0  0  0
  3  8  2  0  0  0
  3  4  1  0  0  0
  4  5  2  0  0  0
  4 36  1  0  0  0
  5 32  1  0  0  0
  5  6  1  0  0  0
  6  7  2  0  0  0
  6 24  1  0  0  0
  7  8  1  0  0  0
  7 37  1  0  0  0
  8  9  1  0  0  0
  9 10  1  0  0  0
 10 11  2  0  0  0
 10 12  1  0  0  0
 12 13  1  0  0  0
 13 14  1  0  0  0
 13 38  1  0  0  0
 13 39  1  0  0  0
 14 15  2  0  0  0
 14 16  1  0  0  0
 16 17  1  0  0  0
 16 40  1  0  0  0
 17 18  1  0  0  0
 17 19  1  0  0  0
 17 22  1  0  0  0
 19 20  1  0  0  0
 19 41  1  0  0  0
 19 42  1  0  0  0
 20 21  1  0  0  0
 21 43  1  0  0  0
 21 44  1  0  0  0
 21 45  1  0  0  0
 22 23  2  0  0  0
 22 60  1  0  0  0
 24 25  1  0  0  0
 25 30  1  0  0  0
 25 26  1  0  0  0
 25 31  1  0  0  0
 26 27  1  0  0  0
 26 46  1  0  0  0
 26 47  1  0  0  0
 27 28  1  0  0  0
 27 48  1  0  0  0
 27 49  1  0  0  0
 28 29  1  0  0  0
 28 50  1  0  0  0
 28 51  1  0  0  0
 29 30  1  0  0  0
 29 52  1  0  0  0
 29 53  1  0  0  0
 30 54  1  0  0  0
 30 55  1  0  0  0
 31 32  1  0  0  0
 31 56  1  0  0  0
 31 57  1  0  0  0
 32 58  1  0  0  0
 32 59  1  0  0  0
M  CHG  1  60  -1
M  END
> <i_i_glide_confnum>
331

> <i_i_glide_lignum>
511

> <i_i_glide_posenum>
200

> <i_i_glide_rotatable_bonds>
7

> <i_m_Source_File_Index>
3806

> <b_m_subgroup_collapsed>
0

> <r_i_docking_score>
-5.52707

> <r_i_glide_ecoul>
-7.18406

> <r_i_glide_eff_state_penalty>
0

> <r_i_glide_einternal>
5.52379

> <r_i_glide_emodel>
-51.9512

> <r_i_glide_energy>
-38.653

> <r_i_glide_erotb>
0.478289

> <r_i_glide_esite>
0

> <r_i_glide_evdw>
-31.4689

> <r_i_glide_gscore>
-5.52707

> <r_i_glide_hbond>
-0.339555

> <r_i_glide_ligand_efficiency>
-0.172721

> <r_i_glide_ligand_efficiency_ln>
-1.23766

> <r_i_glide_ligand_efficiency_sa>
-0.548354

> <r_i_glide_lipo>
-2.27348

> <r_i_glide_metal>
0

> <r_i_glide_rewards>
-0.741268

> <s_i_glide_gridfile>
wee1_glide-grid

> <s_m_Source_File>
wee1_decoys_glide_SP.sdf

> <s_m_Source_Path>
/Users/zhangxujun/Desktop

> <s_m_entry_id>
4081

> <s_m_entry_name>
wee1_decoys_glide_SP.3806

> <s_m_subgroup_title>
wee1_decoys_glide_SP

> <s_m_subgroupid>
wee1_decoys_glide_SP


$$$$
