@<TRIPOS>MOLECULE
ZINC59025646_2630
40   42    1
SMALL
USER_CHARGES


@<TRIPOS>ATOM
      1 C1          2.9952   53.2984   30.0816 C.3       1 UNK         0.0000 
      2 C2          3.8387   53.7410   28.9140 C.ar      1 UNK         0.0000 
      3 C3          3.6058   53.5252   27.5541 C.ar      1 UNK         0.0000 
      4 C4          4.6738   54.0811   26.8840 C.ar      1 UNK         0.0000 
      5 N5          5.4668   54.5940   27.8775 N.pl3     1 UNK         0.0000 
      6 H6          6.3391   55.0812   27.7233 H         1 UNK         0.0000 
      7 N7          4.9511   54.4210   29.1006 N.2       1 UNK         0.0000 
      8 N8          4.8866   54.1334   25.5254 N.am      1 UNK         0.0000 
      9 C9          5.9753   54.5760   24.8643 C.2       1 UNK         0.0000 
     10 O10         6.9732   55.0551   25.4131 O.2       1 UNK         0.0000 
     11 C11         5.8507   54.4969   23.3534 C.ar      1 UNK         0.0000 
     12 C12         4.8446   53.7277   22.7419 C.ar      1 UNK         0.0000 
     13 C13         4.6759   53.7377   21.3656 C.ar      1 UNK         0.0000 
     14 C14         5.5039   54.5232   20.5769 C.ar      1 UNK         0.0000 
     15 C15         6.5367   55.2967   21.1293 C.ar      1 UNK         0.0000 
     16 C16         6.7046   55.2423   22.5217 C.ar      1 UNK         0.0000 
     17 N17         7.3932   56.0970   20.4120 N.2       1 UNK         0.0000 
     18 S18         7.2052   56.4985   18.8999 S.o2      1 UNK         0.0000 
     19 O19         5.8064   56.6066   18.4695 O.2       1 UNK         0.0000 
     20 O20         8.1095   57.5782   18.4909 O.2       1 UNK         0.0000 
     21 C21         7.8651   55.0376   18.0838 C.ar      1 UNK         0.0000 
     22 C22         7.0130   54.1123   17.4710 C.ar      1 UNK         0.0000 
     23 C23         7.5400   52.9674   16.8807 C.ar      1 UNK         0.0000 
     24 C24         8.9174   52.7619   16.8818 C.ar      1 UNK         0.0000 
     25 C25         9.7727   53.6956   17.4653 C.ar      1 UNK         0.0000 
     26 C26         9.2461   54.8280   18.0804 C.ar      1 UNK         0.0000 
     27 Br27        9.6314   51.1838   16.0926 Br        1 UNK         0.0000 
     28 H28         2.4104   54.1270   30.4815 H         1 UNK         0.0000 
     29 H29         3.6018   52.8901   30.8910 H         1 UNK         0.0000 
     30 H30         2.2846   52.5215   29.7940 H         1 UNK         0.0000 
     31 H31         2.7630   53.0094   27.1187 H         1 UNK         0.0000 
     32 H32         4.1431   53.7619   24.9559 H         1 UNK         0.0000 
     33 H33         4.1563   53.1248   23.3140 H         1 UNK         0.0000 
     34 H34         3.8910   53.1530   20.9077 H         1 UNK         0.0000 
     35 H35         5.3132   54.5088   19.5196 H         1 UNK         0.0000 
     36 H36         7.4987   55.8283   22.9655 H         1 UNK         0.0000 
     37 H37         5.9451   54.2701   17.4493 H         1 UNK         0.0000 
     38 H38         6.8825   52.2388   16.4277 H         1 UNK         0.0000 
     39 H39        10.8389   53.5252   17.4689 H         1 UNK         0.0000 
     40 H40         9.9037   55.5395   18.5609 H         1 UNK         0.0000 
@<TRIPOS>BOND
     1    1    2 1    
     2    1   28 1    
     3    1   29 1    
     4    1   30 1    
     5    2    7 ar   
     6    2    3 ar   
     7    3    4 ar   
     8    3   31 1    
     9    4    5 ar   
    10    4    8 1    
    11    5    6 1    
    12    5    7 ar   
    13    8    9 am   BACKBONE|DICT|INTERRES
    14    8   32 1    
    15    9   10 2    
    16    9   11 1    
    17   11   16 ar   
    18   11   12 ar   
    19   12   13 ar   
    20   12   33 1    
    21   13   14 ar   
    22   13   34 1    
    23   14   15 ar   
    24   14   35 1    
    25   15   16 ar   
    26   15   17 1    
    27   16   36 1    
    28   17   18 1    
    29   18   19 2    
    30   18   20 2    
    31   18   21 1    
    32   21   26 ar   
    33   21   22 ar   
    34   22   23 ar   
    35   22   37 1    
    36   23   24 ar   
    37   23   38 1    
    38   24   25 ar   
    39   24   27 1    
    40   25   26 ar   
    41   25   39 1    
    42   26   40 1    
@<TRIPOS>SUBSTRUCTURE
     1 UNK         1 GROUP             0       ****    0 ROOT    
