ZINC09396240_866
                    3D
 Schrodinger Suite 2024-2.
 65 68  0  0  1  0            999 V2000
    1.3796   53.2330   27.9679 C   0  0  0  0  0  0
    2.5784   53.6797   27.1503 C   0  0  0  0  0  0
    3.7612   54.0540   27.7871 C   0  0  0  0  0  0
    4.8618   54.4542   27.0337 C   0  0  0  0  0  0
    4.7944   54.4762   25.6329 C   0  0  0  0  0  0
    3.5988   54.0969   25.0021 C   0  0  0  0  0  0
    2.5011   53.6965   25.7583 C   0  0  0  0  0  0
    5.9954   54.9268   24.8344 C   0  0  0  0  0  0
    6.8186   55.6967   25.3407 O   0  0  0  0  0  0
    6.1106   54.4098   23.5920 N   0  0  0  0  0  0
    7.1044   54.9389   22.7715 N   0  0  0  0  0  0
    6.7865   55.2971   21.5119 C   0  0  0  0  0  0
    5.6363   55.2856   21.0696 O   0  0  0  0  0  0
    7.9715   55.7281   20.6292 C   0  0  0  0  0  0
    7.5015   56.4389   19.0117 S   0  0  0  0  0  0
    7.9068   55.0519   17.9915 C   0  0  0  0  0  0
    7.1687   53.9753   17.9186 N   0  0  0  0  0  0
    7.8062   53.0965   17.0552 N   0  0  0  0  0  0
    8.9006   53.6766   16.6119 C   0  0  0  0  0  0
    9.0269   54.9343   17.1851 N   0  0  0  0  0  0
   10.0364   55.8944   16.9845 C   0  0  0  0  0  0
    9.7013   57.1563   16.4821 C   0  0  0  0  0  0
   10.6995   58.1050   16.2812 C   0  0  0  0  0  0
   12.0234   57.7900   16.5765 C   0  0  0  0  0  0
   12.3607   56.5317   17.0727 C   0  0  0  0  0  0
   11.3657   55.5806   17.2816 C   0  0  0  0  0  0
   12.9885   58.7178   16.3845 F   0  0  0  0  0  0
    9.8860   53.0236   15.6200 C   0  0  2  0  0  0
   10.7445   52.6588   16.1881 H   0  0  0  0  0  0
   10.3811   53.9364   14.4688 C   0  0  0  0  0  0
   10.2883   50.6494   14.6502 C   0  0  0  0  0  0
    9.5333   49.3372   14.3748 C   0  0  0  0  0  0
    8.4343   49.5174   13.3099 C   0  0  0  0  0  0
    7.4890   50.7053   13.5770 C   0  0  0  0  0  0
    8.2457   51.9990   13.8971 C   0  0  0  0  0  0
    1.6894   52.7762   28.9094 H   0  0  0  0  0  0
    0.7248   54.0804   28.1806 H   0  0  0  0  0  0
    0.8044   52.4757   27.4310 H   0  0  0  0  0  0
    3.8281   54.0393   28.8659 H   0  0  0  0  0  0
    5.7683   54.7444   27.5481 H   0  0  0  0  0  0
    3.4948   54.1161   23.9266 H   0  0  0  0  0  0
    1.5888   53.4033   25.2576 H   0  0  0  0  0  0
    5.2936   54.1540   23.0545 H   0  0  0  0  0  0
    8.0443   54.6993   23.0648 H   0  0  0  0  0  0
    8.5399   56.4851   21.1668 H   0  0  0  0  0  0
    8.6575   54.8946   20.4866 H   0  0  0  0  0  0
    8.6744   57.4038   16.2482 H   0  0  0  0  0  0
   10.4514   59.0830   15.8939 H   0  0  0  0  0  0
   13.3891   56.3038   17.3062 H   0  0  0  0  0  0
   11.6305   54.6145   17.6873 H   0  0  0  0  0  0
   11.0593   54.7122   14.8141 H   0  0  0  0  0  0
   10.9381   53.3724   13.7196 H   0  0  0  0  0  0
    9.5567   54.4432   13.9640 H   0  0  0  0  0  0
   10.8463   51.0114   13.7836 H   0  0  0  0  0  0
   10.9629   50.5094   15.4981 H   0  0  0  0  0  0
   10.2210   48.5467   14.0558 H   0  0  0  0  0  0
    9.1045   48.9765   15.3095 H   0  0  0  0  0  0
    7.8522   48.5971   13.2505 H   0  0  0  0  0  0
    8.9088   49.6666   12.3366 H   0  0  0  0  0  0
    6.7925   50.4967   14.3856 H   0  0  0  0  0  0
    6.8599   50.8675   12.6998 H   0  0  0  0  0  0
    7.5488   52.7638   14.2443 H   0  0  0  0  0  0
    8.8089   52.3623   13.0362 H   0  0  0  0  0  0
    9.2419   51.7184   15.0542 N   0  3  0  0  0  0
    8.7139   51.3451   15.8340 H   0  0  0  0  0  0
  1  2  1  0  0  0
  1 36  1  0  0  0
  1 37  1  0  0  0
  1 38  1  0  0  0
  2  7  2  0  0  0
  2  3  1  0  0  0
  3  4  2  0  0  0
  3 39  1  0  0  0
  4  5  1  0  0  0
  4 40  1  0  0  0
  5  6  2  0  0  0
  5  8  1  0  0  0
  6  7  1  0  0  0
  6 41  1  0  0  0
  7 42  1  0  0  0
  8  9  2  0  0  0
  8 10  1  0  0  0
 10 11  1  0  0  0
 10 43  1  0  0  0
 11 12  1  0  0  0
 11 44  1  0  0  0
 12 13  2  0  0  0
 12 14  1  0  0  0
 14 15  1  0  0  0
 14 45  1  0  0  0
 14 46  1  0  0  0
 15 16  1  0  0  0
 16 20  1  0  0  0
 16 17  2  0  0  0
 17 18  1  0  0  0
 18 19  2  0  0  0
 19 20  1  0  0  0
 19 28  1  0  0  0
 20 21  1  0  0  0
 21 26  2  0  0  0
 21 22  1  0  0  0
 22 23  2  0  0  0
 22 47  1  0  0  0
 23 24  1  0  0  0
 23 48  1  0  0  0
 24 25  2  0  0  0
 24 27  1  0  0  0
 25 26  1  0  0  0
 25 49  1  0  0  0
 26 50  1  0  0  0
 28 29  1  0  0  0
 28 30  1  0  0  0
 28 64  1  0  0  0
 30 51  1  0  0  0
 30 52  1  0  0  0
 30 53  1  0  0  0
 31 32  1  0  0  0
 31 54  1  0  0  0
 31 55  1  0  0  0
 31 64  1  0  0  0
 32 33  1  0  0  0
 32 56  1  0  0  0
 32 57  1  0  0  0
 33 34  1  0  0  0
 33 58  1  0  0  0
 33 59  1  0  0  0
 34 35  1  0  0  0
 34 60  1  0  0  0
 34 61  1  0  0  0
 35 62  1  0  0  0
 35 63  1  0  0  0
 35 64  1  0  0  0
 64 65  1  0  0  0
M  CHG  1  64   1
M  END
> <i_i_glide_confnum>
238

> <i_i_glide_lignum>
867

> <i_i_glide_posenum>
155

> <i_i_glide_rotatable_bonds>
10

> <i_m_Source_File_Index>
3512

> <b_m_subgroup_collapsed>
0

> <r_i_docking_score>
-5.70609

> <r_i_glide_ecoul>
-6.03174

> <r_i_glide_eff_state_penalty>
0

> <r_i_glide_einternal>
9.21735

> <r_i_glide_emodel>
-61.5876

> <r_i_glide_energy>
-46.3035

> <r_i_glide_erotb>
0.823874

> <r_i_glide_esite>
-0.0034513

> <r_i_glide_evdw>
-40.2717

> <r_i_glide_gscore>
-5.70609

> <r_i_glide_hbond>
-0.608

> <r_i_glide_ligand_efficiency>
-0.163031

> <r_i_glide_ligand_efficiency_ln>
-1.25261

> <r_i_glide_ligand_efficiency_sa>
-0.533286

> <r_i_glide_lipo>
-2.03365

> <r_i_glide_metal>
0

> <r_i_glide_rewards>
-0.966523

> <s_i_glide_gridfile>
wee1_glide-grid

> <s_m_Source_File>
wee1_decoys_glide_SP.sdf

> <s_m_Source_Path>
/Users/zhangxujun/Desktop

> <s_m_entry_id>
3787

> <s_m_entry_name>
wee1_decoys_glide_SP.3512

> <s_m_subgroup_title>
wee1_decoys_glide_SP

> <s_m_subgroupid>
wee1_decoys_glide_SP


$$$$
