@<TRIPOS>MOLECULE
ZINC43410347_1849
35   37    1
SMALL
USER_CHARGES


@<TRIPOS>ATOM
      1 C1          5.0127   54.0968   24.4830 C.ar      1 UNK         0.0000 
      2 C2          3.8924   53.7340   23.7264 C.ar      1 UNK         0.0000 
      3 C3          2.7001   53.4584   24.4275 C.ar      1 UNK         0.0000 
      4 N4          2.5791   53.7163   25.7501 N.ar      1 UNK         0.0000 
      5 C5          3.6676   54.0607   26.4789 C.ar      1 UNK         0.0000 
      6 C6          4.9268   54.2012   25.8746 C.ar      1 UNK         0.0000 
      7 C7          6.1441   54.3761   26.6522 C.1       1 UNK         0.0000 
      8 N8          7.1046   54.4975   27.2781 N.1       1 UNK         0.0000 
      9 S9          3.4453   54.3831   28.2265 S.3       1 UNK         0.0000 
     10 C10         2.0485   53.4549   28.8100 C.ar      1 UNK         0.0000 
     11 N11         1.6805   53.7425   30.0813 N.ar      1 UNK         0.0000 
     12 C12         0.6390   53.0419   30.5847 C.ar      1 UNK         0.0000 
     13 C13        -0.0610   52.0932   29.8358 C.ar      1 UNK         0.0000 
     14 C14         0.4029   51.8480   28.5407 C.ar      1 UNK         0.0000 
     15 N15         1.4625   52.5125   28.0244 N.ar      1 UNK         0.0000 
     16 N16        -0.1961   50.8995   27.7142 N.pl3     1 UNK         0.0000 
     17 N17         0.3044   53.2977   31.9064 N.pl3     1 UNK         0.0000 
     18 C18         1.5078   52.7959   23.7482 C.3       1 UNK         0.0000 
     19 C19         1.4984   53.0459   22.2401 C.3       1 UNK         0.0000 
     20 C20         2.8683   52.7227   21.6213 C.3       1 UNK         0.0000 
     21 C21         3.9574   53.6442   22.2019 C.3       1 UNK         0.0000 
     22 H22         5.9594   54.2495   23.9812 H         1 UNK         0.0000 
     23 H23        -0.8946   51.5448   30.2525 H         1 UNK         0.0000 
     24 H24        -0.8875   50.2505   28.0838 H         1 UNK         0.0000 
     25 H25         0.2210   50.7240   26.8141 H         1 UNK         0.0000 
     26 H26        -0.4045   52.7135   32.3623 H         1 UNK         0.0000 
     27 H27         0.8144   53.9947   32.4215 H         1 UNK         0.0000 
     28 H28         1.5789   51.7232   23.9266 H         1 UNK         0.0000 
     29 H29         0.5686   53.1188   24.1996 H         1 UNK         0.0000 
     30 H30         0.7137   52.4611   21.7605 H         1 UNK         0.0000 
     31 H31         1.2546   54.0951   22.0813 H         1 UNK         0.0000 
     32 H32         3.1240   51.6776   21.8052 H         1 UNK         0.0000 
     33 H33         2.8272   52.8401   20.5364 H         1 UNK         0.0000 
     34 H34         3.8121   54.6492   21.8006 H         1 UNK         0.0000 
     35 H35         4.9446   53.3206   21.8688 H         1 UNK         0.0000 
@<TRIPOS>BOND
     1    1    6 ar   
     2    1    2 ar   
     3    1   22 1    
     4    2   21 1    
     5    2    3 ar   
     6    3    4 ar   
     7    3   18 1    
     8    4    5 ar   
     9    5    6 ar   
    10    5    9 1    
    11    6    7 1    
    12    7    8 3    
    13    9   10 1    
    14   10   15 ar   
    15   10   11 ar   
    16   11   12 ar   
    17   12   13 ar   
    18   12   17 1    
    19   13   14 ar   
    20   13   23 1    
    21   14   15 ar   
    22   14   16 1    
    23   16   24 1    
    24   16   25 1    
    25   17   26 1    
    26   17   27 1    
    27   18   19 1    
    28   18   28 1    
    29   18   29 1    
    30   19   20 1    
    31   19   30 1    
    32   19   31 1    
    33   20   21 1    
    34   20   32 1    
    35   20   33 1    
    36   21   34 1    
    37   21   35 1    
@<TRIPOS>SUBSTRUCTURE
     1 UNK         1 GROUP             0       ****    0 ROOT    
