@<TRIPOS>MOLECULE
ZINC48340435_1329
52   54    1
SMALL
USER_CHARGES


@<TRIPOS>ATOM
      1 C1          2.3030   49.6111   20.3223 C.3       1 UNK         0.0000 
      2 C2          2.7888   50.9687   19.8652 C.2       1 UNK         0.0000 
      3 N3          3.6337   51.6447   20.5222 N.2       1 UNK         0.0000 
      4 N4          3.9250   52.7982   19.8642 N.pl3     1 UNK         0.0000 
      5 C5          3.3326   53.0203   18.6507 C.2       1 UNK         0.0000 
      6 S6          3.5047   54.2622   17.5491 S.2       1 UNK         0.0000 
      7 S7          2.2514   51.6883   18.3397 S.3       1 UNK         0.0000 
      8 C8          4.8963   53.7434   20.4540 C.3       1 UNK         0.0000 
      9 N9          4.9142   53.7129   22.0093 N.4       1 UNK         0.0000 
     10 C10         6.0928   54.5508   22.5430 C.3       1 UNK         0.0000 
     11 C11         6.2056   54.3189   24.0542 C.3       1 UNK         0.0000 
     12 C12         4.8991   54.5351   24.8646 C.3       1 UNK         0.0000 
     13 C13         3.6183   54.0443   24.1319 C.3       1 UNK         0.0000 
     14 C14         3.5947   54.2539   22.6035 C.3       1 UNK         0.0000 
     15 N15         4.9520   54.0977   26.2652 N.am      1 UNK         0.0000 
     16 C16         5.8436   54.4963   27.1924 C.2       1 UNK         0.0000 
     17 O17         6.9666   54.9005   26.9013 O.2       1 UNK         0.0000 
     18 N18         5.4296   54.4948   28.4739 N.am      1 UNK         0.0000 
     19 C19         4.1328   54.0964   29.0440 C.3       1 UNK         0.0000 
     20 C20         2.9450   55.0607   28.7610 C.3       1 UNK         0.0000 
     21 C21         1.6073   54.6192   29.3968 C.3       1 UNK         0.0000 
     22 C22         1.2732   53.1488   29.1003 C.3       1 UNK         0.0000 
     23 C23         2.4169   52.2175   29.5309 C.3       1 UNK         0.0000 
     24 C24         3.7559   52.6008   28.8722 C.3       1 UNK         0.0000 
     25 H25         2.6186   49.3873   21.3424 H         1 UNK         0.0000 
     26 H26         1.2145   49.5557   20.2864 H         1 UNK         0.0000 
     27 H27         2.7032   48.8308   19.6736 H         1 UNK         0.0000 
     28 H28         4.6813   54.7796   20.1913 H         1 UNK         0.0000 
     29 H29         5.9017   53.4990   20.1047 H         1 UNK         0.0000 
     30 H30         5.9278   55.5916   22.2605 H         1 UNK         0.0000 
     31 H31         7.0097   54.1988   22.0816 H         1 UNK         0.0000 
     32 H32         7.0026   54.9691   24.4170 H         1 UNK         0.0000 
     33 H33         6.5417   53.2963   24.1957 H         1 UNK         0.0000 
     34 H34         4.8100   55.6222   24.8811 H         1 UNK         0.0000 
     35 H35         3.5040   52.9705   24.2904 H         1 UNK         0.0000 
     36 H36         2.7385   54.5255   24.5622 H         1 UNK         0.0000 
     37 H37         3.5024   55.2962   22.3083 H         1 UNK         0.0000 
     38 H38         2.7719   53.6918   22.1599 H         1 UNK         0.0000 
     39 H39         4.2180   53.4763   26.5680 H         1 UNK         0.0000 
     40 H40         6.0204   55.0413   29.0876 H         1 UNK         0.0000 
     41 H41         4.3105   54.1828   30.1177 H         1 UNK         0.0000 
     42 H42         2.7862   55.1267   27.6862 H         1 UNK         0.0000 
     43 H43         3.1760   56.0671   29.1111 H         1 UNK         0.0000 
     44 H44         0.7910   55.2523   29.0442 H         1 UNK         0.0000 
     45 H45         1.6506   54.7704   30.4758 H         1 UNK         0.0000 
     46 H46         1.0789   53.0267   28.0335 H         1 UNK         0.0000 
     47 H47         0.3505   52.8656   29.6095 H         1 UNK         0.0000 
     48 H48         2.1626   51.1872   29.2799 H         1 UNK         0.0000 
     49 H49         2.5206   52.2492   30.6174 H         1 UNK         0.0000 
     50 H50         4.5502   51.9661   29.2676 H         1 UNK         0.0000 
     51 H51         3.6640   52.3655   27.8134 H         1 UNK         0.0000 
     52 H52         5.0322   52.7415   22.2713 H         1 UNK         0.0000 
@<TRIPOS>BOND
     1    1    2 1    
     2    1   25 1    
     3    1   26 1    
     4    1   27 1    
     5    2    7 1    
     6    2    3 2    
     7    3    4 1    
     8    4    5 1    
     9    4    8 1    
    10    5    6 2    
    11    5    7 1    
    12    8    9 1    
    13    8   28 1    
    14    8   29 1    
    15    9   14 1    
    16    9   10 1    
    17    9   52 1    
    18   10   11 1    
    19   10   30 1    
    20   10   31 1    
    21   11   12 1    
    22   11   32 1    
    23   11   33 1    
    24   12   13 1    
    25   12   15 1    
    26   12   34 1    
    27   13   14 1    
    28   13   35 1    
    29   13   36 1    
    30   14   37 1    
    31   14   38 1    
    32   15   16 am   BACKBONE|DICT|INTERRES
    33   15   39 1    
    34   16   17 2    
    35   16   18 am   BACKBONE|DICT|INTERRES
    36   18   19 1    
    37   18   40 1    
    38   19   24 1    
    39   19   20 1    
    40   19   41 1    
    41   20   21 1    
    42   20   42 1    
    43   20   43 1    
    44   21   22 1    
    45   21   44 1    
    46   21   45 1    
    47   22   23 1    
    48   22   46 1    
    49   22   47 1    
    50   23   24 1    
    51   23   48 1    
    52   23   49 1    
    53   24   50 1    
    54   24   51 1    
@<TRIPOS>SUBSTRUCTURE
     1 UNK         1 GROUP             0       ****    0 ROOT    
