ZINC20108285_3379
                    3D
 Schrodinger Suite 2024-2.
 60 64  0  0  1  0            999 V2000
    8.4322   56.6892   17.2516 C   0  0  0  0  0  0
    8.7001   56.4904   18.6349 O   0  0  0  0  0  0
    7.7124   55.9648   19.4432 C   0  0  0  0  0  0
    8.0377   55.7903   20.7842 C   0  0  0  0  0  0
    7.1045   55.2968   21.6874 C   0  0  0  0  0  0
    5.8300   54.8961   21.2532 C   0  0  0  0  0  0
    5.5045   55.0885   19.9015 C   0  0  0  0  0  0
    6.4283   55.6177   19.0059 C   0  0  0  0  0  0
    4.8015   54.2528   22.1874 C   0  0  1  0  0  0
    3.9515   54.9354   22.2538 H   0  0  0  0  0  0
    4.3010   52.8914   21.6281 C   0  0  0  0  0  0
    5.0526   51.9152   21.6817 O   0  0  0  0  0  0
    3.1053   52.9175   21.0007 N   0  0  0  0  0  0
    2.4868   51.8822   20.2820 C   0  0  0  0  0  0
    1.7103   52.2607   19.1807 C   0  0  0  0  0  0
    1.0262   51.3097   18.4261 C   0  0  0  0  0  0
    1.1044   49.9671   18.7799 C   0  0  0  0  0  0
    1.8874   49.5709   19.8777 C   0  0  0  0  0  0
    2.5708   50.5250   20.6357 C   0  0  0  0  0  0
    1.9505   48.2520   20.2816 O   0  0  0  0  0  0
    1.6066   47.3239   19.2474 C   0  0  0  0  0  0
    0.2955   47.7609   18.5544 C   0  0  0  0  0  0
    0.4393   49.0614   17.9769 O   0  0  0  0  0  0
    5.3414   54.0968   23.5557 N   0  0  0  0  0  0
    4.6721   54.0967   24.7252 C   0  0  0  0  0  0
    3.4586   54.2746   24.7991 O   0  0  0  0  0  0
    5.5570   53.8586   25.8513 C   0  0  0  0  0  0
    5.2567   53.6686   27.1613 C   0  0  0  0  0  0
    3.9952   53.7042   27.9390 C   0  0  0  0  0  0
    2.9872   54.6603   27.7084 C   0  0  0  0  0  0
    1.8388   54.7256   28.5095 C   0  0  0  0  0  0
    1.7184   53.7974   29.5355 C   0  0  0  0  0  0
    2.6813   52.8576   29.7693 C   0  0  0  0  0  0
    3.8379   52.7883   28.9974 C   0  0  0  0  0  0
    2.3243   52.1108   30.8492 O   0  0  0  0  0  0
    0.9895   52.4622   31.1177 C   0  0  0  0  0  0
    0.7357   53.6788   30.4671 O   0  0  0  0  0  0
    9.3188   57.0998   16.7690 H   0  0  0  0  0  0
    8.1907   55.7502   16.7510 H   0  0  0  0  0  0
    7.6160   57.3973   17.1003 H   0  0  0  0  0  0
    9.0244   56.0634   21.1308 H   0  0  0  0  0  0
    7.4168   55.1962   22.7162 H   0  0  0  0  0  0
    4.5283   54.8145   19.5281 H   0  0  0  0  0  0
    6.1331   55.7410   17.9754 H   0  0  0  0  0  0
    2.6373   53.8120   20.9335 H   0  0  0  0  0  0
    1.6388   53.2970   18.8900 H   0  0  0  0  0  0
    0.4446   51.6107   17.5676 H   0  0  0  0  0  0
    3.1440   50.2066   21.4935 H   0  0  0  0  0  0
    1.5048   46.3261   19.6699 H   0  0  0  0  0  0
    2.4087   47.2967   18.5059 H   0  0  0  0  0  0
   -0.5096   47.7830   19.2908 H   0  0  0  0  0  0
    0.0170   47.0509   17.7756 H   0  0  0  0  0  0
    6.2823   53.7366   23.5748 H   0  0  0  0  0  0
    6.6048   53.7929   25.5926 H   0  0  0  0  0  0
    6.1174   53.4697   27.7853 H   0  0  0  0  0  0
    3.1058   55.3852   26.9213 H   0  0  0  0  0  0
    1.0861   55.4791   28.3329 H   0  0  0  0  0  0
    4.6011   52.0537   29.2092 H   0  0  0  0  0  0
    0.3198   51.6999   30.7104 H   0  0  0  0  0  0
    0.8001   52.5366   32.1907 H   0  0  0  0  0  0
  1  2  1  0  0  0
  1 38  1  0  0  0
  1 39  1  0  0  0
  1 40  1  0  0  0
  2  3  1  0  0  0
  3  8  2  0  0  0
  3  4  1  0  0  0
  4  5  2  0  0  0
  4 41  1  0  0  0
  5  6  1  0  0  0
  5 42  1  0  0  0
  6  7  2  0  0  0
  6  9  1  0  0  0
  7  8  1  0  0  0
  7 43  1  0  0  0
  8 44  1  0  0  0
  9 10  1  0  0  0
  9 11  1  0  0  0
  9 24  1  0  0  0
 11 12  2  0  0  0
 11 13  1  0  0  0
 13 14  1  0  0  0
 13 45  1  0  0  0
 14 19  2  0  0  0
 14 15  1  0  0  0
 15 16  2  0  0  0
 15 46  1  0  0  0
 16 17  1  0  0  0
 16 47  1  0  0  0
 17 23  1  0  0  0
 17 18  2  0  0  0
 18 19  1  0  0  0
 18 20  1  0  0  0
 19 48  1  0  0  0
 20 21  1  0  0  0
 21 22  1  0  0  0
 21 49  1  0  0  0
 21 50  1  0  0  0
 22 23  1  0  0  0
 22 51  1  0  0  0
 22 52  1  0  0  0
 24 25  1  0  0  0
 24 53  1  0  0  0
 25 26  2  0  0  0
 25 27  1  0  0  0
 27 28  2  0  0  0
 27 54  1  0  0  0
 28 29  1  0  0  0
 28 55  1  0  0  0
 29 34  2  0  0  0
 29 30  1  0  0  0
 30 31  2  0  0  0
 30 56  1  0  0  0
 31 32  1  0  0  0
 31 57  1  0  0  0
 32 37  1  0  0  0
 32 33  2  0  0  0
 33 34  1  0  0  0
 33 35  1  0  0  0
 34 58  1  0  0  0
 35 36  1  0  0  0
 36 37  1  0  0  0
 36 59  1  0  0  0
 36 60  1  0  0  0
M  END
> <i_i_glide_confnum>
5

> <i_i_glide_lignum>
3380

> <i_i_glide_posenum>
130

> <i_i_glide_rotatable_bonds>
9

> <i_m_Source_File_Index>
4241

> <b_m_subgroup_collapsed>
0

> <r_i_docking_score>
-6.78845

> <r_i_glide_ecoul>
-6.50411

> <r_i_glide_eff_state_penalty>
0

> <r_i_glide_einternal>
4.26986

> <r_i_glide_emodel>
-73.17

> <r_i_glide_energy>
-54.9533

> <r_i_glide_erotb>
0.511358

> <r_i_glide_esite>
-0.0721675

> <r_i_glide_evdw>
-48.4492

> <r_i_glide_gscore>
-6.78845

> <r_i_glide_hbond>
-0.587246

> <r_i_glide_ligand_efficiency>
-0.188568

> <r_i_glide_ligand_efficiency_ln>
-1.48106

> <r_i_glide_ligand_efficiency_sa>
-0.622638

> <r_i_glide_lipo>
-2.68481

> <r_i_glide_metal>
0

> <r_i_glide_rewards>
-0.557503

> <s_i_glide_gridfile>
wee1_glide-grid

> <s_m_Source_File>
wee1_decoys_glide_SP.sdf

> <s_m_Source_Path>
/Users/zhangxujun/Desktop

> <s_m_entry_id>
4516

> <s_m_entry_name>
wee1_decoys_glide_SP.4241

> <s_m_subgroup_title>
wee1_decoys_glide_SP

> <s_m_subgroupid>
wee1_decoys_glide_SP


$$$$
