ZINC16610526_2865
                    3D
 Schrodinger Suite 2024-2.
 67 69  0  0  1  0            999 V2000
   -0.8777   48.7632   25.4314 C   0  0  0  0  0  0
   -1.3521   50.1128   26.0036 C   0  0  0  0  0  0
   -0.6112   51.2827   25.4466 N   0  0  0  0  0  0
    0.5162   51.8177   26.0807 C   0  0  0  0  0  0
    1.2249   52.8579   25.5443 C   0  0  0  0  0  0
    0.8994   53.4011   24.1336 C   0  0  2  0  0  0
    0.8413   54.4930   24.1856 H   0  0  0  0  0  0
   -0.4314   52.9003   23.7579 N   0  0  0  0  0  0
   -1.1289   51.8591   24.2877 C   0  0  0  0  0  0
   -2.4958   51.4534   23.4136 S   0  0  0  0  0  0
    1.9637   53.1133   23.0624 C   0  0  0  0  0  0
    2.9066   54.0979   22.7753 C   0  0  0  0  0  0
    3.8334   53.9212   21.7589 C   0  0  0  0  0  0
    3.8000   52.7630   20.9740 C   0  0  0  0  0  0
    2.8819   51.7547   21.2756 C   0  0  0  0  0  0
    1.9647   51.9287   22.3128 C   0  0  0  0  0  0
    4.6603   52.5553   19.8811 N   0  0  0  0  0  0
    5.2907   53.4902   19.1417 C   0  0  0  0  0  0
    5.1682   54.7088   19.2695 O   0  0  0  0  0  0
    6.0757   52.8967   18.2246 N   0  0  0  0  0  0
    6.8694   53.5358   17.2607 C   0  0  0  0  0  0
    6.7327   53.0805   15.9449 C   0  0  0  0  0  0
    7.4886   53.6468   14.9224 C   0  0  0  0  0  0
    8.3926   54.6674   15.2112 C   0  0  0  0  0  0
    8.5535   55.1104   16.5241 C   0  0  0  0  0  0
    7.8087   54.5428   17.5743 C   0  0  0  0  0  0
    7.9763   54.8956   18.9045 O   0  0  0  0  0  0
    8.9149   55.9040   19.2543 C   0  0  0  0  0  0
    2.3596   53.5217   26.2243 C   0  0  0  0  0  0
    3.3696   53.9040   25.6294 O   0  0  0  0  0  0
    2.1608   53.7539   27.5527 O   0  0  0  0  0  0
    3.1480   54.4317   28.3300 C   0  0  0  0  0  0
    4.4253   53.5885   28.5840 C   0  0  0  0  0  0
    5.6282   54.4961   28.8815 C   0  0  0  0  0  0
    4.2098   52.5251   29.6753 C   0  0  0  0  0  0
    0.9228   51.1208   27.3932 C   0  0  0  0  0  0
   -1.4197   47.9444   25.9030 H   0  0  0  0  0  0
   -1.0503   48.6958   24.3582 H   0  0  0  0  0  0
    0.1823   48.5901   25.6201 H   0  0  0  0  0  0
   -1.2813   50.0969   27.0893 H   0  0  0  0  0  0
   -2.4301   50.2024   25.8682 H   0  0  0  0  0  0
   -0.8481   53.2540   22.9104 H   0  0  0  0  0  0
    2.9258   55.0159   23.3411 H   0  0  0  0  0  0
    4.5481   54.7080   21.5847 H   0  0  0  0  0  0
    2.8519   50.8464   20.6914 H   0  0  0  0  0  0
    1.2436   51.1512   22.5159 H   0  0  0  0  0  0
    4.7150   51.6067   19.5268 H   0  0  0  0  0  0
    5.9041   51.9039   18.0811 H   0  0  0  0  0  0
    6.0335   52.2891   15.7112 H   0  0  0  0  0  0
    7.3732   53.2956   13.9058 H   0  0  0  0  0  0
    8.9758   55.1088   14.4143 H   0  0  0  0  0  0
    9.2721   55.8914   16.7043 H   0  0  0  0  0  0
    8.9740   55.9807   20.3413 H   0  0  0  0  0  0
    9.9043   55.6556   18.8819 H   0  0  0  0  0  0
    8.6181   56.8795   18.8638 H   0  0  0  0  0  0
    2.7028   54.7277   29.2790 H   0  0  0  0  0  0
    3.4056   55.3571   27.8168 H   0  0  0  0  0  0
    4.6832   53.0520   27.6701 H   0  0  0  0  0  0
    5.5038   55.0397   29.8187 H   0  0  0  0  0  0
    5.7777   55.2335   28.0905 H   0  0  0  0  0  0
    6.5515   53.9185   28.9455 H   0  0  0  0  0  0
    3.9982   52.9799   30.6435 H   0  0  0  0  0  0
    3.3729   51.8701   29.4321 H   0  0  0  0  0  0
    5.0885   51.8936   29.7877 H   0  0  0  0  0  0
    1.9332   51.3461   27.7161 H   0  0  0  0  0  0
    0.2421   51.3869   28.2025 H   0  0  0  0  0  0
    0.9241   50.0409   27.2775 H   0  0  0  0  0  0
  1  2  1  0  0  0
  1 37  1  0  0  0
  1 38  1  0  0  0
  1 39  1  0  0  0
  2  3  1  0  0  0
  2 40  1  0  0  0
  2 41  1  0  0  0
  3  9  1  0  0  0
  3  4  1  0  0  0
  4  5  2  0  0  0
  4 36  1  0  0  0
  5  6  1  0  0  0
  5 29  1  0  0  0
  6  7  1  0  0  0
  6  8  1  0  0  0
  6 11  1  0  0  0
  8  9  1  0  0  0
  8 42  1  0  0  0
  9 10  2  0  0  0
 11 16  2  0  0  0
 11 12  1  0  0  0
 12 13  2  0  0  0
 12 43  1  0  0  0
 13 14  1  0  0  0
 13 44  1  0  0  0
 14 15  2  0  0  0
 14 17  1  0  0  0
 15 16  1  0  0  0
 15 45  1  0  0  0
 16 46  1  0  0  0
 17 18  1  0  0  0
 17 47  1  0  0  0
 18 19  2  0  0  0
 18 20  1  0  0  0
 20 21  1  0  0  0
 20 48  1  0  0  0
 21 26  2  0  0  0
 21 22  1  0  0  0
 22 23  2  0  0  0
 22 49  1  0  0  0
 23 24  1  0  0  0
 23 50  1  0  0  0
 24 25  2  0  0  0
 24 51  1  0  0  0
 25 26  1  0  0  0
 25 52  1  0  0  0
 26 27  1  0  0  0
 27 28  1  0  0  0
 28 53  1  0  0  0
 28 54  1  0  0  0
 28 55  1  0  0  0
 29 30  2  0  0  0
 29 31  1  0  0  0
 31 32  1  0  0  0
 32 33  1  0  0  0
 32 56  1  0  0  0
 32 57  1  0  0  0
 33 34  1  0  0  0
 33 35  1  0  0  0
 33 58  1  0  0  0
 34 59  1  0  0  0
 34 60  1  0  0  0
 34 61  1  0  0  0
 35 62  1  0  0  0
 35 63  1  0  0  0
 35 64  1  0  0  0
 36 65  1  0  0  0
 36 66  1  0  0  0
 36 67  1  0  0  0
M  END
> <i_i_glide_confnum>
21

> <i_i_glide_lignum>
2866

> <i_i_glide_posenum>
126

> <i_i_glide_rotatable_bonds>
11

> <i_m_Source_File_Index>
3308

> <b_m_subgroup_collapsed>
0

> <r_i_docking_score>
-4.801

> <r_i_glide_ecoul>
-5.42601

> <r_i_glide_eff_state_penalty>
0

> <r_i_glide_einternal>
8.55399

> <r_i_glide_emodel>
-58.8768

> <r_i_glide_energy>
-48.168

> <r_i_glide_erotb>
0.6615

> <r_i_glide_esite>
-0.237419

> <r_i_glide_evdw>
-42.742

> <r_i_glide_gscore>
-4.801

> <r_i_glide_hbond>
-0.300351

> <r_i_glide_ligand_efficiency>
-0.137171

> <r_i_glide_ligand_efficiency_ln>
-1.05393

> <r_i_glide_ligand_efficiency_sa>
-0.448696

> <r_i_glide_lipo>
-1.7136

> <r_i_glide_metal>
0

> <r_i_glide_rewards>
-0.26012

> <s_i_glide_gridfile>
wee1_glide-grid

> <s_m_Source_File>
wee1_decoys_glide_SP.sdf

> <s_m_Source_Path>
/Users/zhangxujun/Desktop

> <s_m_entry_id>
3583

> <s_m_entry_name>
wee1_decoys_glide_SP.3308

> <s_m_subgroup_title>
wee1_decoys_glide_SP

> <s_m_subgroupid>
wee1_decoys_glide_SP


$$$$
