@<TRIPOS>MOLECULE
ZINC12416365_6108
64   68    1
SMALL
USER_CHARGES


@<TRIPOS>ATOM
      1 C1          3.3333   53.0320   17.7664 C.3       1 UNK         0.0000 
      2 C2          4.4589   53.6944   18.5564 C.2       1 UNK         0.0000 
      3 C3          5.6555   54.1438   18.0834 C.2       1 UNK         0.0000 
      4 C4          6.6765   54.8493   19.0247 C.3       1 UNK         0.0000 
      5 H5          7.5742   54.2288   19.0382 H         1 UNK         0.0000 
      6 C6          6.1803   54.8650   20.5027 C.2       1 UNK         0.0000 
      7 C7          4.9335   54.4360   20.8353 C.2       1 UNK         0.0000 
      8 N8          4.1212   53.8751   19.8775 N.pl3     1 UNK         0.0000 
      9 C9          4.3923   54.3822   22.2672 C.3       1 UNK         0.0000 
     10 C10         5.5450   54.2706   23.2991 C.3       1 UNK         0.0000 
     11 H11         6.0083   53.2921   23.1525 H         1 UNK         0.0000 
     12 C12         6.6557   55.2969   23.0021 C.3       1 UNK         0.0000 
     13 C13         7.1314   55.3011   21.5470 C.2       1 UNK         0.0000 
     14 O14         8.2632   55.6966   21.2816 O.2       1 UNK         0.0000 
     15 C15         5.0952   54.3319   24.7562 C.2       1 UNK         0.0000 
     16 C16         3.8088   54.2821   25.3018 C.2       1 UNK         0.0000 
     17 C17         3.7611   54.3602   26.6969 C.2       1 UNK         0.0000 
     18 C18         5.0157   54.4767   27.2637 C.2       1 UNK         0.0000 
     19 S19         6.2554   54.4828   26.0608 S.3       1 UNK         0.0000 
     20 C20         7.1457   56.2361   18.5448 C.ar      1 UNK         0.0000 
     21 C21         6.1837   57.2311   18.3408 C.ar      1 UNK         0.0000 
     22 C22         6.5584   58.4967   17.9044 C.ar      1 UNK         0.0000 
     23 C23         7.9014   58.7949   17.6946 C.ar      1 UNK         0.0000 
     24 C24         8.8770   57.8222   17.9077 C.ar      1 UNK         0.0000 
     25 C25         8.5016   56.5251   18.2992 C.ar      1 UNK         0.0000 
     26 O26         9.4573   55.5543   18.4893 O.3       1 UNK         0.0000 
     27 C27        10.0085   55.0119   17.2981 C.3       1 UNK         0.0000 
     28 O28        10.1949   58.1591   17.7240 O.3       1 UNK         0.0000 
     29 C29        10.8868   58.4419   18.9329 C.3       1 UNK         0.0000 
     30 C30         6.0964   53.9435   16.7056 C.2       1 UNK         0.0000 
     31 O31         6.5888   54.8567   16.0416 O.2       1 UNK         0.0000 
     32 N32         5.9652   52.6833   16.2367 N.am      1 UNK         0.0000 
     33 C33         6.3363   52.2184   14.9639 C.ar      1 UNK         0.0000 
     34 C34         7.5314   52.6025   14.3396 C.ar      1 UNK         0.0000 
     35 C35         7.8691   52.0684   13.0987 C.ar      1 UNK         0.0000 
     36 C36         7.0172   51.1519   12.4863 C.ar      1 UNK         0.0000 
     37 C37         5.8301   50.7633   13.1035 C.ar      1 UNK         0.0000 
     38 C38         5.4909   51.2967   14.3444 C.ar      1 UNK         0.0000 
     39 H39         3.3145   51.9601   17.9715 H         1 UNK         0.0000 
     40 H40         2.3638   53.4501   18.0430 H         1 UNK         0.0000 
     41 H41         3.4305   53.1690   16.6903 H         1 UNK         0.0000 
     42 H42         3.1436   53.7700   20.1096 H         1 UNK         0.0000 
     43 H43         3.7053   55.2116   22.4354 H         1 UNK         0.0000 
     44 H44         3.8237   53.4580   22.3892 H         1 UNK         0.0000 
     45 H45         6.3048   56.2987   23.2180 H         1 UNK         0.0000 
     46 H46         7.5045   55.1499   23.6592 H         1 UNK         0.0000 
     47 H47         2.9190   54.1875   24.6971 H         1 UNK         0.0000 
     48 H48         2.8442   54.3327   27.2677 H         1 UNK         0.0000 
     49 H49         5.2723   54.5569   28.3102 H         1 UNK         0.0000 
     50 H50         5.1383   57.0173   18.5107 H         1 UNK         0.0000 
     51 H51         5.8098   59.2588   17.7360 H         1 UNK         0.0000 
     52 H52         8.1800   59.7871   17.3707 H         1 UNK         0.0000 
     53 H53        10.7040   54.2135   17.5581 H         1 UNK         0.0000 
     54 H54         9.2370   54.5833   16.6578 H         1 UNK         0.0000 
     55 H55        10.5604   55.7593   16.7272 H         1 UNK         0.0000 
     56 H56        11.9594   58.4677   18.7424 H         1 UNK         0.0000 
     57 H57        10.5917   59.4159   19.3247 H         1 UNK         0.0000 
     58 H58        10.7045   57.6967   19.7083 H         1 UNK         0.0000 
     59 H59         5.5039   52.0082   16.8375 H         1 UNK         0.0000 
     60 H60         8.2066   53.2977   14.8155 H         1 UNK         0.0000 
     61 H61         8.7920   52.3576   12.6181 H         1 UNK         0.0000 
     62 H62         7.2838   50.7350   11.5263 H         1 UNK         0.0000 
     63 H63         5.1783   50.0452   12.6285 H         1 UNK         0.0000 
     64 H64         4.5780   50.9774   14.8289 H         1 UNK         0.0000 
@<TRIPOS>BOND
     1    1    2 1    
     2    1   39 1    
     3    1   40 1    
     4    1   41 1    
     5    2    8 1    
     6    2    3 2    
     7    3    4 1    
     8    3   30 1    
     9    4    5 1    
    10    4    6 1    
    11    4   20 1    
    12    6   13 1    
    13    6    7 2    
    14    7    8 1    
    15    7    9 1    
    16    8   42 1    
    17    9   10 1    
    18    9   43 1    
    19    9   44 1    
    20   10   11 1    
    21   10   12 1    
    22   10   15 1    
    23   12   13 1    
    24   12   45 1    
    25   12   46 1    
    26   13   14 2    
    27   15   19 1    
    28   15   16 2    
    29   16   17 1    
    30   16   47 1    
    31   17   18 2    
    32   17   48 1    
    33   18   19 1    
    34   18   49 1    
    35   20   25 ar   
    36   20   21 ar   
    37   21   22 ar   
    38   21   50 1    
    39   22   23 ar   
    40   22   51 1    
    41   23   24 ar   
    42   23   52 1    
    43   24   25 ar   
    44   24   28 1    
    45   25   26 1    
    46   26   27 1    
    47   27   53 1    
    48   27   54 1    
    49   27   55 1    
    50   28   29 1    
    51   29   56 1    
    52   29   57 1    
    53   29   58 1    
    54   30   31 2    
    55   30   32 am   BACKBONE|DICT|INTERRES
    56   32   33 1    
    57   32   59 1    
    58   33   38 ar   
    59   33   34 ar   
    60   34   35 ar   
    61   34   60 1    
    62   35   36 ar   
    63   35   61 1    
    64   36   37 ar   
    65   36   62 1    
    66   37   38 ar   
    67   37   63 1    
    68   38   64 1    
@<TRIPOS>SUBSTRUCTURE
     1 UNK         1 GROUP             0       ****    0 ROOT    
