@<TRIPOS>MOLECULE
ZINC09292711_3443
62   66    1
SMALL
USER_CHARGES


@<TRIPOS>ATOM
      1 C1         -6.9810   49.6569   25.0416 C.3       1 UNK         0.0000 
      2 C2         -6.1119   49.8101   23.7843 C.3       1 UNK         0.0000 
      3 C3         -6.9412   50.2984   22.5802 C.3       1 UNK         0.0000 
      4 O4         -5.0921   50.7539   24.1112 O.3       1 UNK         0.0000 
      5 C5         -3.9706   50.8970   23.3151 C.ar      1 UNK         0.0000 
      6 C6         -3.6480   50.0737   22.2278 C.ar      1 UNK         0.0000 
      7 C7         -2.4984   50.3167   21.4858 C.ar      1 UNK         0.0000 
      8 C8         -1.6606   51.3870   21.8094 C.ar      1 UNK         0.0000 
      9 C9         -1.9746   52.1989   22.9024 C.ar      1 UNK         0.0000 
     10 C10        -3.1195   51.9478   23.6535 C.ar      1 UNK         0.0000 
     11 C11        -0.3825   51.6398   21.0033 C.3       1 UNK         0.0000 
     12 H12        -0.0742   52.6635   21.2206 H         1 UNK         0.0000 
     13 C13         0.7444   50.6914   21.4077 C.ar      1 UNK         0.0000 
     14 C14         1.2445   50.2425   22.6256 C.ar      1 UNK         0.0000 
     15 N15         2.1799   49.2965   22.2934 N.pl3     1 UNK         0.0000 
     16 H16         2.7041   48.7586   22.9764 H         1 UNK         0.0000 
     17 N17         2.3042   49.0885   20.9814 N.2       1 UNK         0.0000 
     18 C18         1.4449   49.9265   20.4626 C.ar      1 UNK         0.0000 
     19 O19         1.2651   49.9809   19.1034 O.3       1 UNK         0.0000 
     20 C20         0.2409   50.7729   18.6880 C.2       1 UNK         0.0000 
     21 C21        -0.5562   51.5423   19.4728 C.2       1 UNK         0.0000 
     22 C22        -1.6128   52.2942   18.8799 C.1       1 UNK         0.0000 
     23 N23        -2.4956   52.8963   18.4375 N.1       1 UNK         0.0000 
     24 N24         0.1824   50.6673   17.3255 N.pl3     1 UNK         0.0000 
     25 C25         0.9183   50.5766   24.0283 C.ar      1 UNK         0.0000 
     26 C26         0.9503   51.8966   24.4817 C.ar      1 UNK         0.0000 
     27 C27         0.6595   52.1780   25.8151 C.ar      1 UNK         0.0000 
     28 C28         0.3282   51.1396   26.7005 C.ar      1 UNK         0.0000 
     29 C29         0.2936   49.8291   26.2252 C.ar      1 UNK         0.0000 
     30 C30         0.5828   49.5432   24.8992 C.ar      1 UNK         0.0000 
     31 O31         0.0502   51.3100   28.0448 O.3       1 UNK         0.0000 
     32 C32         0.0256   52.6146   28.6251 C.3       1 UNK         0.0000 
     33 C33         1.4197   53.1951   28.8571 C.ar      1 UNK         0.0000 
     34 C34         2.5422   52.3659   28.9591 C.ar      1 UNK         0.0000 
     35 C35         3.8034   52.9196   29.1696 C.ar      1 UNK         0.0000 
     36 C36         3.9405   54.3023   29.2800 C.ar      1 UNK         0.0000 
     37 C37         2.8251   55.1342   29.1938 C.ar      1 UNK         0.0000 
     38 C38         1.5656   54.5799   28.9822 C.ar      1 UNK         0.0000 
     39 H39        -7.7798   48.9315   24.8870 H         1 UNK         0.0000 
     40 H40        -7.4386   50.6069   25.3239 H         1 UNK         0.0000 
     41 H41        -6.3829   49.3152   25.8890 H         1 UNK         0.0000 
     42 H42        -5.6750   48.8326   23.5753 H         1 UNK         0.0000 
     43 H43        -7.7478   49.6040   22.3463 H         1 UNK         0.0000 
     44 H44        -7.3859   51.2716   22.7853 H         1 UNK         0.0000 
     45 H45        -6.3349   50.4057   21.6821 H         1 UNK         0.0000 
     46 H46        -4.2758   49.2442   21.9416 H         1 UNK         0.0000 
     47 H47        -2.2572   49.6708   20.6547 H         1 UNK         0.0000 
     48 H48        -1.3315   53.0191   23.1842 H         1 UNK         0.0000 
     49 H49        -3.3524   52.5768   24.4994 H         1 UNK         0.0000 
     50 H50        -0.5287   51.1515   16.7986 H         1 UNK         0.0000 
     51 H51         0.9941   50.3326   16.8245 H         1 UNK         0.0000 
     52 H52         1.2110   52.6966   23.8068 H         1 UNK         0.0000 
     53 H53         0.7052   53.2021   26.1485 H         1 UNK         0.0000 
     54 H54         0.0223   49.0169   26.8812 H         1 UNK         0.0000 
     55 H55         0.5472   48.5169   24.5587 H         1 UNK         0.0000 
     56 H56        -0.5840   53.2887   28.0207 H         1 UNK         0.0000 
     57 H57        -0.4731   52.5365   29.5924 H         1 UNK         0.0000 
     58 H58         2.4410   51.2940   28.8661 H         1 UNK         0.0000 
     59 H59         4.6731   52.2830   29.2316 H         1 UNK         0.0000 
     60 H60         4.9189   54.7353   29.4328 H         1 UNK         0.0000 
     61 H61         2.9390   56.2052   29.2824 H         1 UNK         0.0000 
     62 H62         0.7048   55.2291   28.9099 H         1 UNK         0.0000 
@<TRIPOS>BOND
     1    1    2 1    
     2    1   39 1    
     3    1   40 1    
     4    1   41 1    
     5    2    3 1    
     6    2    4 1    
     7    2   42 1    
     8    3   43 1    
     9    3   44 1    
    10    3   45 1    
    11    4    5 1    
    12    5   10 ar   
    13    5    6 ar   
    14    6    7 ar   
    15    6   46 1    
    16    7    8 ar   
    17    7   47 1    
    18    8    9 ar   
    19    8   11 1    
    20    9   10 ar   
    21    9   48 1    
    22   10   49 1    
    23   11   12 1    
    24   11   21 1    
    25   11   13 1    
    26   13   18 ar   
    27   13   14 ar   
    28   14   15 ar   
    29   14   25 1    
    30   15   16 1    
    31   15   17 ar   
    32   17   18 ar   
    33   18   19 1    
    34   19   20 1    
    35   20   21 2    
    36   20   24 1    
    37   21   22 1    
    38   22   23 3    
    39   24   50 1    
    40   24   51 1    
    41   25   30 ar   
    42   25   26 ar   
    43   26   27 ar   
    44   26   52 1    
    45   27   28 ar   
    46   27   53 1    
    47   28   29 ar   
    48   28   31 1    
    49   29   30 ar   
    50   29   54 1    
    51   30   55 1    
    52   31   32 1    
    53   32   33 1    
    54   32   56 1    
    55   32   57 1    
    56   33   38 ar   
    57   33   34 ar   
    58   34   35 ar   
    59   34   58 1    
    60   35   36 ar   
    61   35   59 1    
    62   36   37 ar   
    63   36   60 1    
    64   37   38 ar   
    65   37   61 1    
    66   38   62 1    
@<TRIPOS>SUBSTRUCTURE
     1 UNK         1 GROUP             0       ****    0 ROOT    
