ZINC39946296_1111
                    3D
 Schrodinger Suite 2024-2.
 62 66  0  0  1  0            999 V2000
    0.5973   51.5148   22.0042 C   0  0  0  0  0  0
    1.8592   50.7899   22.0348 C   0  0  0  0  0  0
    2.5867   50.5686   20.9093 C   0  0  0  0  0  0
    2.1404   51.0338   19.6669 C   0  0  0  0  0  0
    2.7044   50.9287   18.4844 N   0  3  0  0  0  0
    1.8634   51.5533   17.4526 C   0  0  0  0  0  0
    0.7108   52.0735   18.2929 C   0  0  0  0  0  0
    0.9284   51.7292   19.5794 C   0  0  0  0  0  0
    0.1539   51.9620   20.8115 C   0  0  0  0  0  0
   -0.4201   52.7964   17.6950 C   0  0  0  0  0  0
   -1.5070   52.8973   18.2665 O   0  0  0  0  0  0
   -0.2602   53.4439   16.3073 C   0  0  0  0  0  0
    0.9113   54.2616   16.2291 O   0  0  0  0  0  0
    0.9026   55.5826   16.5697 C   0  0  0  0  0  0
   -0.1197   56.1998   16.8820 O   0  0  0  0  0  0
    2.2575   56.2134   16.4798 C   0  0  0  0  0  0
    2.3803   57.6110   16.4812 C   0  0  0  0  0  0
    3.6375   58.2158   16.4648 C   0  0  0  0  0  0
    4.7901   57.4354   16.4169 C   0  0  0  0  0  0
    4.6845   56.0426   16.3771 C   0  0  0  0  0  0
    3.4262   55.4390   16.4193 C   0  0  0  0  0  0
    6.1406   55.0124   16.2130 S   0  0  0  0  0  0
    5.7370   53.8863   15.3625 O   0  0  0  0  0  0
    7.2459   55.8995   15.8311 O   0  0  0  0  0  0
    6.4652   54.3796   17.8373 N   0  0  0  0  0  0
    5.6486   53.2985   18.4209 C   0  0  0  0  0  0
    4.7857   53.8120   19.5966 C   0  0  0  0  0  0
    5.5793   54.5744   20.5852 N   0  0  0  0  0  0
    6.3713   55.6558   19.9597 C   0  0  0  0  0  0
    7.2647   55.1330   18.8187 C   0  0  0  0  0  0
    5.3984   54.4893   21.9622 C   0  0  0  0  0  0
    4.1558   54.1358   22.5098 C   0  0  0  0  0  0
    3.9801   54.0953   23.8913 C   0  0  0  0  0  0
    5.0505   54.3829   24.7352 C   0  0  0  0  0  0
    6.2980   54.7033   24.2087 C   0  0  0  0  0  0
    6.4693   54.7583   22.8275 C   0  0  0  0  0  0
    4.8760   54.3498   26.0750 F   0  0  0  0  0  0
    0.0338   51.6818   22.9122 H   0  0  0  0  0  0
    2.2203   50.4047   22.9794 H   0  0  0  0  0  0
    3.5055   50.0104   20.9913 H   0  0  0  0  0  0
    2.4651   52.3221   16.9654 H   0  0  0  0  0  0
    1.5968   50.7762   16.7328 H   0  0  0  0  0  0
   -0.7849   52.4967   20.7914 H   0  0  0  0  0  0
   -0.1830   52.6582   15.5553 H   0  0  0  0  0  0
   -1.1575   54.0115   16.0512 H   0  0  0  0  0  0
    1.5045   58.2461   16.5006 H   0  0  0  0  0  0
    3.7186   59.2955   16.4800 H   0  0  0  0  0  0
    5.7558   57.9198   16.3850 H   0  0  0  0  0  0
    3.3742   54.3604   16.3971 H   0  0  0  0  0  0
    5.0093   52.8829   17.6425 H   0  0  0  0  0  0
    6.3072   52.4955   18.7434 H   0  0  0  0  0  0
    4.0754   54.5586   19.2352 H   0  0  0  0  0  0
    4.2229   52.9980   20.0528 H   0  0  0  0  0  0
    6.9356   56.2555   20.6730 H   0  0  0  0  0  0
    5.5981   56.3086   19.5470 H   0  0  0  0  0  0
    8.0760   54.5073   19.1913 H   0  0  0  0  0  0
    7.7239   55.9776   18.3046 H   0  0  0  0  0  0
    3.3084   53.9301   21.8722 H   0  0  0  0  0  0
    3.0173   53.8460   24.3105 H   0  0  0  0  0  0
    7.1293   54.9113   24.8658 H   0  0  0  0  0  0
    7.4511   54.9990   22.4427 H   0  0  0  0  0  0
    3.6151   50.4923   18.2823 H   0  0  0  0  0  0
  1  9  2  0  0  0
  1  2  1  0  0  0
  1 38  1  0  0  0
  2  3  2  0  0  0
  2 39  1  0  0  0
  3  4  1  0  0  0
  3 40  1  0  0  0
  4  8  1  0  0  0
  4  5  2  0  0  0
  5  6  1  0  0  0
  5 62  1  0  0  0
  6  7  1  0  0  0
  6 41  1  0  0  0
  6 42  1  0  0  0
  7  8  2  0  0  0
  7 10  1  0  0  0
  8  9  1  0  0  0
  9 43  1  0  0  0
 10 11  2  0  0  0
 10 12  1  0  0  0
 12 13  1  0  0  0
 12 44  1  0  0  0
 12 45  1  0  0  0
 13 14  1  0  0  0
 14 15  2  0  0  0
 14 16  1  0  0  0
 16 21  2  0  0  0
 16 17  1  0  0  0
 17 18  2  0  0  0
 17 46  1  0  0  0
 18 19  1  0  0  0
 18 47  1  0  0  0
 19 20  2  0  0  0
 19 48  1  0  0  0
 20 21  1  0  0  0
 20 22  1  0  0  0
 21 49  1  0  0  0
 22 23  2  0  0  0
 22 24  2  0  0  0
 22 25  1  0  0  0
 25 30  1  0  0  0
 25 26  1  0  0  0
 26 27  1  0  0  0
 26 50  1  0  0  0
 26 51  1  0  0  0
 27 28  1  0  0  0
 27 52  1  0  0  0
 27 53  1  0  0  0
 28 29  1  0  0  0
 28 31  1  0  0  0
 29 30  1  0  0  0
 29 54  1  0  0  0
 29 55  1  0  0  0
 30 56  1  0  0  0
 30 57  1  0  0  0
 31 36  2  0  0  0
 31 32  1  0  0  0
 32 33  2  0  0  0
 32 58  1  0  0  0
 33 34  1  0  0  0
 33 59  1  0  0  0
 34 35  2  0  0  0
 34 37  1  0  0  0
 35 36  1  0  0  0
 35 60  1  0  0  0
 36 61  1  0  0  0
M  CHG  1   5   1
M  END
> <i_i_glide_confnum>
244

> <i_i_glide_lignum>
1112

> <i_i_glide_posenum>
298

> <i_i_glide_rotatable_bonds>
8

> <i_m_Source_File_Index>
4455

> <b_m_subgroup_collapsed>
0

> <r_i_docking_score>
-5.10131

> <r_i_glide_ecoul>
-5.66957

> <r_i_glide_eff_state_penalty>
0

> <r_i_glide_einternal>
3.80447

> <r_i_glide_emodel>
-57.6394

> <r_i_glide_energy>
-42.8335

> <r_i_glide_erotb>
0.527149

> <r_i_glide_esite>
-0.121335

> <r_i_glide_evdw>
-37.1639

> <r_i_glide_gscore>
-5.10131

> <r_i_glide_hbond>
-0.28732

> <r_i_glide_ligand_efficiency>
-0.137873

> <r_i_glide_ligand_efficiency_ln>
-1.10636

> <r_i_glide_ligand_efficiency_sa>
-0.459425

> <r_i_glide_lipo>
-1.91871

> <r_i_glide_metal>
0

> <r_i_glide_rewards>
-0.592462

> <s_i_glide_gridfile>
wee1_glide-grid

> <s_m_Source_File>
wee1_decoys_glide_SP.sdf

> <s_m_Source_Path>
/Users/zhangxujun/Desktop

> <s_m_entry_id>
4730

> <s_m_entry_name>
wee1_decoys_glide_SP.4455

> <s_m_subgroup_title>
wee1_decoys_glide_SP

> <s_m_subgroupid>
wee1_decoys_glide_SP


$$$$
