ZINC08606761_542
                    3D
 Schrodinger Suite 2024-2.
 53 56  0  0  1  0            999 V2000
   -1.2592   51.3578   27.2066 C   0  0  0  0  0  0
    0.0223   52.0011   27.7177 C   0  0  0  0  0  0
    0.2221   52.0926   29.0970 C   0  0  0  0  0  0
    1.3989   52.6270   29.6104 C   0  0  0  0  0  0
    2.4011   53.0882   28.7490 C   0  0  0  0  0  0
    3.6796   53.6298   29.2792 C   0  0  0  0  0  0
    3.9043   53.6966   30.4817 O   0  0  0  0  0  0
    4.6170   54.0542   28.2577 C   0  0  0  0  0  0
    4.3408   53.9673   26.9358 C   0  0  0  0  0  0
    3.1451   53.4801   26.4776 O   0  0  0  0  0  0
    2.1902   53.0225   27.3666 C   0  0  0  0  0  0
    1.0082   52.4803   26.8357 C   0  0  0  0  0  0
    0.7967   52.4019   25.3235 C   0  0  0  0  0  0
    5.3019   54.3859   25.9178 C   0  0  0  0  0  0
    6.3803   54.9264   26.1873 O   0  0  0  0  0  0
    4.8714   54.1144   24.6666 N   0  0  0  0  0  0
    5.4391   54.3959   23.4162 C   0  0  0  0  0  0
    6.7025   54.9700   23.2203 C   0  0  0  0  0  0
    7.1149   55.2967   21.9337 C   0  0  0  0  0  0
    6.2933   55.0408   20.8353 C   0  0  0  0  0  0
    5.0577   54.4120   21.0294 C   0  0  0  0  0  0
    4.6339   54.0968   22.3157 C   0  0  0  0  0  0
    6.9073   55.5256   19.2078 S   0  0  0  0  0  0
    7.3925   56.8924   19.4402 O   0  0  0  0  0  0
    7.9022   54.4995   18.8817 O   0  0  0  0  0  0
    5.6169   55.4060   18.3326 N   0  5  0  0  0  0
    5.0005   56.4269   17.7217 C   0  0  0  0  0  0
    3.7550   56.5200   17.1112 C   0  0  0  0  0  0
    3.7192   57.8229   16.5974 C   0  0  0  0  0  0
    4.8062   58.4967   16.8756 N   0  0  0  0  0  0
    5.6160   57.6294   17.5935 O   0  0  0  0  0  0
    2.6242   58.5040   15.8116 C   0  0  0  0  0  0
    2.7180   55.4263   16.9389 C   0  0  0  0  0  0
   -1.8564   52.0798   26.6483 H   0  0  0  0  0  0
   -1.0230   50.5299   26.5350 H   0  0  0  0  0  0
   -1.8665   50.9485   28.0166 H   0  0  0  0  0  0
   -0.5275   51.7216   29.7828 H   0  0  0  0  0  0
    1.5251   52.6640   30.6847 H   0  0  0  0  0  0
    5.5715   54.4446   28.5842 H   0  0  0  0  0  0
    1.5855   52.8875   24.7477 H   0  0  0  0  0  0
    0.7362   51.3603   25.0054 H   0  0  0  0  0  0
   -0.1438   52.8807   25.0495 H   0  0  0  0  0  0
    3.9647   53.6720   24.6276 H   0  0  0  0  0  0
    7.3671   55.1974   24.0371 H   0  0  0  0  0  0
    8.0841   55.7551   21.7905 H   0  0  0  0  0  0
    4.4105   54.1824   20.1949 H   0  0  0  0  0  0
    3.6614   53.6430   22.4442 H   0  0  0  0  0  0
    1.7029   57.9222   15.7979 H   0  0  0  0  0  0
    2.3763   59.4803   16.2290 H   0  0  0  0  0  0
    2.9208   58.6669   14.7751 H   0  0  0  0  0  0
    2.2470   55.4738   15.9568 H   0  0  0  0  0  0
    3.1538   54.4291   17.0156 H   0  0  0  0  0  0
    1.9188   55.5066   17.6758 H   0  0  0  0  0  0
  1  2  1  0  0  0
  1 34  1  0  0  0
  1 35  1  0  0  0
  1 36  1  0  0  0
  2 12  2  0  0  0
  2  3  1  0  0  0
  3  4  2  0  0  0
  3 37  1  0  0  0
  4  5  1  0  0  0
  4 38  1  0  0  0
  5 11  2  0  0  0
  5  6  1  0  0  0
  6  7  2  0  0  0
  6  8  1  0  0  0
  8  9  2  0  0  0
  8 39  1  0  0  0
  9 10  1  0  0  0
  9 14  1  0  0  0
 10 11  1  0  0  0
 11 12  1  0  0  0
 12 13  1  0  0  0
 13 40  1  0  0  0
 13 41  1  0  0  0
 13 42  1  0  0  0
 14 15  2  0  0  0
 14 16  1  0  0  0
 16 17  1  0  0  0
 16 43  1  0  0  0
 17 22  2  0  0  0
 17 18  1  0  0  0
 18 19  2  0  0  0
 18 44  1  0  0  0
 19 20  1  0  0  0
 19 45  1  0  0  0
 20 21  2  0  0  0
 20 23  1  0  0  0
 21 22  1  0  0  0
 21 46  1  0  0  0
 22 47  1  0  0  0
 23 24  2  0  0  0
 23 25  2  0  0  0
 23 26  1  0  0  0
 26 27  1  0  0  0
 27 31  1  0  0  0
 27 28  2  0  0  0
 28 29  1  0  0  0
 28 33  1  0  0  0
 29 30  2  0  0  0
 29 32  1  0  0  0
 30 31  1  0  0  0
 32 48  1  0  0  0
 32 49  1  0  0  0
 32 50  1  0  0  0
 33 51  1  0  0  0
 33 52  1  0  0  0
 33 53  1  0  0  0
M  CHG  1  26  -1
M  END
> <i_i_glide_confnum>
5

> <i_i_glide_lignum>
543

> <i_i_glide_posenum>
22

> <i_i_glide_rotatable_bonds>
6

> <i_m_Source_File_Index>
1672

> <b_m_subgroup_collapsed>
0

> <r_i_docking_score>
-5.15012

> <r_i_glide_ecoul>
-8.00348

> <r_i_glide_eff_state_penalty>
0

> <r_i_glide_einternal>
6.88161

> <r_i_glide_emodel>
-63.7436

> <r_i_glide_energy>
-55.1807

> <r_i_glide_erotb>
0.556272

> <r_i_glide_esite>
-0.139987

> <r_i_glide_evdw>
-47.1772

> <r_i_glide_gscore>
-5.15012

> <r_i_glide_hbond>
-0.344497

> <r_i_glide_ligand_efficiency>
-0.156064

> <r_i_glide_ligand_efficiency_ln>
-1.14536

> <r_i_glide_ligand_efficiency_sa>
-0.500581

> <r_i_glide_lipo>
-2.60311

> <r_i_glide_metal>
0

> <r_i_glide_rewards>
0.940582

> <s_i_glide_gridfile>
wee1_glide-grid

> <s_m_Source_File>
wee1_decoys_glide_SP.sdf

> <s_m_Source_Path>
/Users/zhangxujun/Desktop

> <s_m_entry_id>
1947

> <s_m_entry_name>
wee1_decoys_glide_SP.1672

> <s_m_subgroup_title>
wee1_decoys_glide_SP

> <s_m_subgroupid>
wee1_decoys_glide_SP


$$$$
