@<TRIPOS>MOLECULE
ZINC67339785_1361
47   49    1
SMALL
USER_CHARGES


@<TRIPOS>ATOM
      1 C1          0.0908   50.7394   24.9267 C.3       1 UNK         0.0000 
      2 C2          0.7462   51.7202   25.8813 C.2       1 UNK         0.0000 
      3 C3          0.7350   51.5379   27.2727 C.2       1 UNK         0.0000 
      4 C4          1.3743   52.5457   27.9726 C.2       1 UNK         0.0000 
      5 S5          2.1029   53.6949   26.9178 S.3       1 UNK         0.0000 
      6 C6          1.5045   52.8591   25.5097 C.2       1 UNK         0.0000 
      7 C7          1.4998   53.4439   24.1739 C.2       1 UNK         0.0000 
      8 O8          0.3737   53.5266   23.6810 O.2       1 UNK         0.0000 
      9 N9          2.6343   53.6909   23.4205 N.am      1 UNK         0.0000 
     10 C10         2.4568   53.4356   21.9641 C.3       1 UNK         0.0000 
     11 C11         3.3967   52.2524   21.6123 C.3       1 UNK         0.0000 
     12 H12         3.1849   51.3913   22.2512 H         1 UNK         0.0000 
     13 C13         4.8680   52.6680   21.7940 C.3       1 UNK         0.0000 
     14 C14         5.0750   53.4626   23.0817 C.ar      1 UNK         0.0000 
     15 C15         3.9758   53.9023   23.8718 C.ar      1 UNK         0.0000 
     16 C16         4.2572   54.7769   24.9324 C.ar      1 UNK         0.0000 
     17 C17         5.5612   55.0579   25.3299 C.ar      1 UNK         0.0000 
     18 C18         6.6266   54.5480   24.6038 C.ar      1 UNK         0.0000 
     19 C19         6.3798   53.7790   23.4753 C.ar      1 UNK         0.0000 
     20 N20         3.2318   51.7830   20.1355 N.4       1 UNK         0.0000 
     21 C21         2.1343   50.7089   19.9807 C.3       1 UNK         0.0000 
     22 C22         3.0572   52.8925   19.0726 C.3       1 UNK         0.0000 
     23 S23         1.5048   52.6818   29.7624 S.o2      1 UNK         0.0000 
     24 O24         1.6401   54.1058   30.0832 O.2       1 UNK         0.0000 
     25 O25         2.5023   51.6977   30.1888 O.2       1 UNK         0.0000 
     26 N26        -0.0822   52.1391   30.2611 N.pl3     1 UNK         0.0000 
     27 H27        -0.8670   51.1120   24.5598 H         1 UNK         0.0000 
     28 H28         0.7141   50.5576   24.0508 H         1 UNK         0.0000 
     29 H29        -0.0752   49.7626   25.3831 H         1 UNK         0.0000 
     30 H30         0.2322   50.7070   27.7497 H         1 UNK         0.0000 
     31 H31         1.4379   53.2993   21.5965 H         1 UNK         0.0000 
     32 H32         2.8741   54.2881   21.4282 H         1 UNK         0.0000 
     33 H33         5.5063   51.7836   21.7894 H         1 UNK         0.0000 
     34 H34         5.2032   53.2985   20.9700 H         1 UNK         0.0000 
     35 H35         3.4651   55.2959   25.4400 H         1 UNK         0.0000 
     36 H36         5.7423   55.6967   26.1801 H         1 UNK         0.0000 
     37 H37         7.6421   54.7806   24.8820 H         1 UNK         0.0000 
     38 H38         7.2210   53.4343   22.8924 H         1 UNK         0.0000 
     39 H39         1.1754   51.1648   20.2334 H         1 UNK         0.0000 
     40 H40         2.1576   50.3663   18.9436 H         1 UNK         0.0000 
     41 H41         2.3777   49.8852   20.6540 H         1 UNK         0.0000 
     42 H42         2.0491   53.2964   19.1646 H         1 UNK         0.0000 
     43 H43         3.8120   53.6614   19.2348 H         1 UNK         0.0000 
     44 H44         3.2016   52.4192   18.0991 H         1 UNK         0.0000 
     45 H45        -0.1747   51.1208   30.2631 H         1 UNK         0.0000 
     46 H46        -0.3529   52.4974   31.1827 H         1 UNK         0.0000 
     47 H47         4.0965   51.3141   19.8815 H         1 UNK         0.0000 
@<TRIPOS>BOND
     1    1    2 1    
     2    1   27 1    
     3    1   28 1    
     4    1   29 1    
     5    2    6 2    
     6    2    3 1    
     7    3    4 2    
     8    3   30 1    
     9    4    5 1    
    10    4   23 1    
    11    5    6 1    
    12    6    7 1    
    13    7    8 2    
    14    7    9 am   BACKBONE|DICT|INTERRES
    15    9   15 1    
    16    9   10 1    
    17   10   11 1    
    18   10   31 1    
    19   10   32 1    
    20   11   12 1    
    21   11   13 1    
    22   11   20 1    
    23   13   14 1    
    24   13   33 1    
    25   13   34 1    
    26   14   19 ar   
    27   14   15 ar   
    28   15   16 ar   
    29   16   17 ar   
    30   16   35 1    
    31   17   18 ar   
    32   17   36 1    
    33   18   19 ar   
    34   18   37 1    
    35   19   38 1    
    36   20   21 1    
    37   20   22 1    
    38   20   47 1    
    39   21   39 1    
    40   21   40 1    
    41   21   41 1    
    42   22   42 1    
    43   22   43 1    
    44   22   44 1    
    45   23   24 2    
    46   23   25 2    
    47   23   26 1    
    48   26   45 1    
    49   26   46 1    
@<TRIPOS>SUBSTRUCTURE
     1 UNK         1 GROUP             0       ****    0 ROOT    
