ZINC44736970_5565
                    3D
 Schrodinger Suite 2024-2.
 65 69  0  0  1  0            999 V2000
   -6.7390   52.1642   28.2685 C   0  0  0  0  0  0
   -5.5996   51.9881   27.2825 C   0  0  0  0  0  0
   -5.5428   52.8107   26.1520 C   0  0  0  0  0  0
   -4.5103   52.7008   25.2189 C   0  0  0  0  0  0
   -3.5230   51.7316   25.4409 C   0  0  0  0  0  0
   -3.5908   50.9087   26.5922 C   0  0  0  0  0  0
   -4.6160   51.0229   27.5351 C   0  0  0  0  0  0
   -2.4866   50.0967   26.4817 N   0  0  0  0  0  0
   -1.8272   50.4459   25.3238 C   0  0  0  0  0  0
   -2.4287   51.4240   24.6793 N   0  0  0  0  0  0
   -0.5544   49.7292   24.8659 C   0  0  2  0  0  0
   -0.8332   48.7178   24.5567 H   0  0  0  0  0  0
    0.4686   49.5824   26.0089 C   0  0  0  0  0  0
    0.0702   50.4123   23.7252 N   0  0  0  0  0  0
   -0.1842   50.1812   22.4238 C   0  0  0  0  0  0
   -0.8668   49.2345   22.0334 O   0  0  0  0  0  0
    0.4961   51.1074   21.3797 C   0  0  1  0  0  0
   -0.0839   51.0089   20.4635 H   0  0  0  0  0  0
    0.5171   52.5850   21.7982 C   0  0  0  0  0  0
    1.8149   52.7496   22.4706 N   0  0  0  0  0  0
    2.7042   51.6144   22.2355 C   0  0  0  0  0  0
    1.9935   50.7756   21.1520 C   0  0  0  0  0  0
    2.4301   49.3003   21.2325 C   0  0  0  0  0  0
    1.8652   48.4439   20.0819 C   0  0  0  0  0  0
    2.3044   49.0570   18.7343 N   0  3  0  0  0  0
    1.9507   50.5481   18.5773 C   0  0  0  0  0  0
    2.5340   51.3036   19.7847 C   0  0  0  0  0  0
    1.9975   53.7210   23.3927 C   0  0  0  0  0  0
    1.1002   54.4967   23.6822 O   0  0  0  0  0  0
    3.3034   53.8850   24.1207 C   0  0  0  0  0  0
    4.5199   54.0213   23.4380 C   0  0  0  0  0  0
    5.6905   54.3058   24.1443 C   0  0  0  0  0  0
    5.6534   54.4608   25.5323 C   0  0  0  0  0  0
    4.4457   54.3187   26.2215 C   0  0  0  0  0  0
    3.2810   54.0419   25.5127 C   0  0  0  0  0  0
    4.3571   54.4964   27.9404 Cl  0  0  0  0  0  0
    7.1044   54.8447   26.3788 Cl  0  0  0  0  0  0
   -6.4912   51.7530   29.2481 H   0  0  0  0  0  0
   -6.9590   53.2222   28.4142 H   0  0  0  0  0  0
   -7.6411   51.6784   27.8968 H   0  0  0  0  0  0
   -6.3179   53.5459   25.9909 H   0  0  0  0  0  0
   -4.4779   53.3371   24.3475 H   0  0  0  0  0  0
   -4.6497   50.3874   28.4090 H   0  0  0  0  0  0
    0.0535   49.0475   26.8655 H   0  0  0  0  0  0
    1.3428   49.0177   25.6820 H   0  0  0  0  0  0
    0.8031   50.5554   26.3700 H   0  0  0  0  0  0
    0.5270   51.2845   23.9450 H   0  0  0  0  0  0
    0.5019   53.1769   20.8815 H   0  0  0  0  0  0
   -0.3603   52.8187   22.4069 H   0  0  0  0  0  0
    2.7044   51.0262   23.1547 H   0  0  0  0  0  0
    3.7501   51.8345   22.0192 H   0  0  0  0  0  0
    3.5044   49.2967   21.2295 H   0  0  0  0  0  0
    2.1655   48.8551   22.1925 H   0  0  0  0  0  0
    2.2555   47.4264   20.0967 H   0  0  0  0  0  0
    0.7743   48.4128   20.0704 H   0  0  0  0  0  0
    3.3098   48.9807   18.6180 H   0  0  0  0  0  0
    2.4147   50.8613   17.6389 H   0  0  0  0  0  0
    0.8675   50.6187   18.4831 H   0  0  0  0  0  0
    2.3214   52.3683   19.6692 H   0  0  0  0  0  0
    3.6246   51.2452   19.7454 H   0  0  0  0  0  0
    4.5609   53.9480   22.3598 H   0  0  0  0  0  0
    6.6247   54.4241   23.6140 H   0  0  0  0  0  0
    2.3485   53.9638   26.0549 H   0  0  0  0  0  0
    1.9210   48.5357   17.9565 H   0  0  0  0  0  0
   -2.1522   49.3805   27.1311 H   0  0  0  0  0  0
  1  2  1  0  0  0
  1 38  1  0  0  0
  1 39  1  0  0  0
  1 40  1  0  0  0
  2  7  2  0  0  0
  2  3  1  0  0  0
  3  4  2  0  0  0
  3 41  1  0  0  0
  4  5  1  0  0  0
  4 42  1  0  0  0
  5 10  1  0  0  0
  5  6  2  0  0  0
  6  7  1  0  0  0
  6  8  1  0  0  0
  7 43  1  0  0  0
  8  9  1  0  0  0
  8 65  1  0  0  0
  9 10  2  0  0  0
  9 11  1  0  0  0
 11 12  1  0  0  0
 11 13  1  0  0  0
 11 14  1  0  0  0
 13 44  1  0  0  0
 13 45  1  0  0  0
 13 46  1  0  0  0
 14 15  1  0  0  0
 14 47  1  0  0  0
 15 16  2  0  0  0
 15 17  1  0  0  0
 17 18  1  0  0  0
 17 22  1  0  0  0
 17 19  1  0  0  0
 19 20  1  0  0  0
 19 48  1  0  0  0
 19 49  1  0  0  0
 20 21  1  0  0  0
 20 28  1  0  0  0
 21 22  1  0  0  0
 21 50  1  0  0  0
 21 51  1  0  0  0
 22 27  1  0  0  0
 22 23  1  0  0  0
 23 24  1  0  0  0
 23 52  1  0  0  0
 23 53  1  0  0  0
 24 25  1  0  0  0
 24 54  1  0  0  0
 24 55  1  0  0  0
 25 26  1  0  0  0
 25 56  1  0  0  0
 25 64  1  0  0  0
 26 27  1  0  0  0
 26 57  1  0  0  0
 26 58  1  0  0  0
 27 59  1  0  0  0
 27 60  1  0  0  0
 28 29  2  0  0  0
 28 30  1  0  0  0
 30 35  2  0  0  0
 30 31  1  0  0  0
 31 32  2  0  0  0
 31 61  1  0  0  0
 32 33  1  0  0  0
 32 62  1  0  0  0
 33 34  2  0  0  0
 33 37  1  0  0  0
 34 35  1  0  0  0
 34 36  1  0  0  0
 35 63  1  0  0  0
M  CHG  1  25   1
M  END
> <i_i_glide_confnum>
178

> <i_i_glide_lignum>
5566

> <i_i_glide_posenum>
260

> <i_i_glide_rotatable_bonds>
6

> <i_m_Source_File_Index>
4327

> <b_m_subgroup_collapsed>
0

> <r_i_docking_score>
-5.68381

> <r_i_glide_ecoul>
-8.20758

> <r_i_glide_eff_state_penalty>
0

> <r_i_glide_einternal>
9.58455

> <r_i_glide_emodel>
-59.3035

> <r_i_glide_energy>
-44.5702

> <r_i_glide_erotb>
0.463374

> <r_i_glide_esite>
-0.235695

> <r_i_glide_evdw>
-36.3626

> <r_i_glide_gscore>
-5.68381

> <r_i_glide_hbond>
-0.218306

> <r_i_glide_ligand_efficiency>
-0.162395

> <r_i_glide_ligand_efficiency_ln>
-1.24772

> <r_i_glide_ligand_efficiency_sa>
-0.531203

> <r_i_glide_lipo>
-2.09274

> <r_i_glide_metal>
0

> <r_i_glide_rewards>
-0.551171

> <s_i_glide_gridfile>
wee1_glide-grid

> <s_m_Source_File>
wee1_decoys_glide_SP.sdf

> <s_m_Source_Path>
/Users/zhangxujun/Desktop

> <s_m_entry_id>
4602

> <s_m_entry_name>
wee1_decoys_glide_SP.4327

> <s_m_subgroup_title>
wee1_decoys_glide_SP

> <s_m_subgroupid>
wee1_decoys_glide_SP


$$$$
