@<TRIPOS>MOLECULE
ZINC22822589_5197
58   63    1
SMALL
USER_CHARGES


@<TRIPOS>ATOM
      1 C1          1.2875   48.6744   17.9679 C.3       1 UNK         0.0000 
      2 C2          1.0692   50.1761   17.9579 C.ar      1 UNK         0.0000 
      3 C3         -0.1852   50.7186   17.6681 C.ar      1 UNK         0.0000 
      4 C4         -0.3628   52.1019   17.6607 C.ar      1 UNK         0.0000 
      5 C5          0.7123   52.9452   17.9437 C.ar      1 UNK         0.0000 
      6 C6          1.9741   52.4156   18.2377 C.ar      1 UNK         0.0000 
      7 C7          2.1376   51.0262   18.2483 C.ar      1 UNK         0.0000 
      8 C8          3.1486   53.3426   18.5626 C.3       1 UNK         0.0000 
      9 H9          2.7856   54.3674   18.4805 H         1 UNK         0.0000 
     10 C10         3.6499   53.0738   20.0067 C.3       1 UNK         0.0000 
     11 C11         4.9120   53.8756   20.2707 C.2       1 UNK         0.0000 
     12 C12         5.7975   54.2796   19.3348 C.2       1 UNK         0.0000 
     13 C13         7.0546   55.1041   19.7457 C.3       1 UNK         0.0000 
     14 H14         7.9153   54.4927   19.4665 H         1 UNK         0.0000 
     15 N15         7.1815   55.3767   21.1968 N.2       1 UNK         0.0000 
     16 C16         6.3406   54.8964   22.0313 C.2       1 UNK         0.0000 
     17 N17         5.1692   54.2156   21.5925 N.pl3     1 UNK         0.0000 
     18 N18         6.6544   55.0280   23.4188 N.pl3     1 UNK         0.0000 
     19 C19         5.8970   54.6977   24.5346 C.2       1 UNK         0.0000 
     20 N20         6.3731   54.8105   25.7447 N.2       1 UNK         0.0000 
     21 C21         5.4429   54.4750   26.6841 C.ar      1 UNK         0.0000 
     22 C22         5.6479   54.4968   28.0701 C.ar      1 UNK         0.0000 
     23 C23         4.5817   54.1621   28.9080 C.ar      1 UNK         0.0000 
     24 C24         3.3415   53.7951   28.3929 C.ar      1 UNK         0.0000 
     25 C25         3.1116   53.7465   27.0215 C.ar      1 UNK         0.0000 
     26 C26         4.1716   54.0984   26.1749 C.ar      1 UNK         0.0000 
     27 S27         4.2175   54.1592   24.4314 S.3       1 UNK         0.0000 
     28 C28         7.2598   56.4148   18.9814 C.ar      1 UNK         0.0000 
     29 C29         8.5538   56.9006   18.7579 C.ar      1 UNK         0.0000 
     30 C30         8.7523   58.0743   18.0267 C.ar      1 UNK         0.0000 
     31 C31         7.6598   58.7526   17.4875 C.ar      1 UNK         0.0000 
     32 C32         6.3696   58.2685   17.6955 C.ar      1 UNK         0.0000 
     33 C33         6.1698   57.1230   18.4597 C.ar      1 UNK         0.0000 
     34 F34         5.3074   58.8960   17.1415 F         1 UNK         0.0000 
     35 F35        10.0048   58.5526   17.8392 F         1 UNK         0.0000 
     36 C36         5.6089   53.8883   17.9218 C.2       1 UNK         0.0000 
     37 O37         6.5113   54.0183   17.0962 O.2       1 UNK         0.0000 
     38 C38         4.3060   53.1528   17.5418 C.3       1 UNK         0.0000 
     39 H39         0.3505   48.1272   18.0876 H         1 UNK         0.0000 
     40 H40         1.9328   48.3938   18.8032 H         1 UNK         0.0000 
     41 H41         1.7822   48.3584   17.0469 H         1 UNK         0.0000 
     42 H42        -1.0210   50.0713   17.4448 H         1 UNK         0.0000 
     43 H43        -1.3296   52.5204   17.4310 H         1 UNK         0.0000 
     44 H44         0.5627   54.0156   17.9395 H         1 UNK         0.0000 
     45 H45         3.1039   50.5939   18.4691 H         1 UNK         0.0000 
     46 H46         2.8587   53.2984   20.7250 H         1 UNK         0.0000 
     47 H47         3.9344   52.0330   20.1475 H         1 UNK         0.0000 
     48 H48         4.5869   53.8452   22.3294 H         1 UNK         0.0000 
     49 H49         7.5814   55.3875   23.5983 H         1 UNK         0.0000 
     50 H50         6.6026   54.7839   28.4813 H         1 UNK         0.0000 
     51 H51         4.7048   54.1970   29.9806 H         1 UNK         0.0000 
     52 H52         2.5428   53.5363   29.0721 H         1 UNK         0.0000 
     53 H53         2.1489   53.4558   26.6264 H         1 UNK         0.0000 
     54 H54         9.4110   56.3769   19.1590 H         1 UNK         0.0000 
     55 H55         7.8024   59.6540   16.9097 H         1 UNK         0.0000 
     56 H56         5.1591   56.7716   18.6086 H         1 UNK         0.0000 
     57 H57         4.5455   52.0976   17.4629 H         1 UNK         0.0000 
     58 H58         4.0106   53.4856   16.5462 H         1 UNK         0.0000 
@<TRIPOS>BOND
     1    1    2 1    
     2    1   39 1    
     3    1   40 1    
     4    1   41 1    
     5    2    7 ar   
     6    2    3 ar   
     7    3    4 ar   
     8    3   42 1    
     9    4    5 ar   
    10    4   43 1    
    11    5    6 ar   
    12    5   44 1    
    13    6    7 ar   
    14    6    8 1    
    15    7   45 1    
    16    8    9 1    
    17    8   38 1    
    18    8   10 1    
    19   10   11 1    
    20   10   46 1    
    21   10   47 1    
    22   11   17 1    
    23   11   12 2    
    24   12   13 1    
    25   12   36 1    
    26   13   14 1    
    27   13   15 1    
    28   13   28 1    
    29   15   16 2    
    30   16   17 1    
    31   16   18 1    
    32   17   48 1    
    33   18   19 1    
    34   18   49 1    
    35   19   27 1    
    36   19   20 2    
    37   20   21 1    
    38   21   26 ar   
    39   21   22 ar   
    40   22   23 ar   
    41   22   50 1    
    42   23   24 ar   
    43   23   51 1    
    44   24   25 ar   
    45   24   52 1    
    46   25   26 ar   
    47   25   53 1    
    48   26   27 1    
    49   28   33 ar   
    50   28   29 ar   
    51   29   30 ar   
    52   29   54 1    
    53   30   31 ar   
    54   30   35 1    
    55   31   32 ar   
    56   31   55 1    
    57   32   33 ar   
    58   32   34 1    
    59   33   56 1    
    60   36   37 2    
    61   36   38 1    
    62   38   57 1    
    63   38   58 1    
@<TRIPOS>SUBSTRUCTURE
     1 UNK         1 GROUP             0       ****    0 ROOT    
