@<TRIPOS>MOLECULE
ZINC51168953_1863
39   41    1
SMALL
USER_CHARGES


@<TRIPOS>ATOM
      1 C1          1.7463   56.6151   29.7150 C.3       1 UNK         0.0000 
      2 O2          1.1460   55.6001   30.5070 O.3       1 UNK         0.0000 
      3 C3          0.8248   54.3812   29.9380 C.ar      1 UNK         0.0000 
      4 C4          1.0800   54.0562   28.5934 C.ar      1 UNK         0.0000 
      5 C5          0.6978   52.8224   28.0370 C.ar      1 UNK         0.0000 
      6 C6          0.0493   51.9080   28.8827 C.ar      1 UNK         0.0000 
      7 C7         -0.1981   52.2062   30.2197 C.ar      1 UNK         0.0000 
      8 C8          0.1912   53.4321   30.7511 C.ar      1 UNK         0.0000 
      9 O9         -0.0895   53.6959   32.0709 O.3       1 UNK         0.0000 
     10 C10         0.9570   52.4970   26.5908 C.ar      1 UNK         0.0000 
     11 N11         1.6925   53.3690   25.8534 N.ar      1 UNK         0.0000 
     12 C12         1.8790   53.0982   24.5342 C.ar      1 UNK         0.0000 
     13 C13         1.4345   51.8852   23.9583 C.ar      1 UNK         0.0000 
     14 C14         0.7036   51.0306   24.8060 C.ar      1 UNK         0.0000 
     15 N15         0.4279   51.3513   26.0984 N.ar      1 UNK         0.0000 
     16 N16         0.2415   49.7835   24.3528 N.pl3     1 UNK         0.0000 
     17 N17        -0.0966   48.7090   25.2796 N.3       1 UNK         0.0000 
     18 C18         1.8191   51.4988   22.5215 C.3       1 UNK         0.0000 
     19 C19         2.3588   52.6774   21.6877 C.3       1 UNK         0.0000 
     20 C20         3.3391   53.5378   22.4980 C.3       1 UNK         0.0000 
     21 C21         2.6098   54.1510   23.7039 C.3       1 UNK         0.0000 
     22 H22         1.1051   56.9057   28.8817 H         1 UNK         0.0000 
     23 H23         1.8994   57.4929   30.3412 H         1 UNK         0.0000 
     24 H24         2.7193   56.3066   29.3308 H         1 UNK         0.0000 
     25 H25         1.5681   54.7786   27.9586 H         1 UNK         0.0000 
     26 H26        -0.2756   50.9458   28.5094 H         1 UNK         0.0000 
     27 H27        -0.7107   51.4826   30.8397 H         1 UNK         0.0000 
     28 H28        -0.6095   52.9838   32.4818 H         1 UNK         0.0000 
     29 H29         0.5585   49.4352   23.4588 H         1 UNK         0.0000 
     30 H30        -0.9606   48.2588   25.0122 H         1 UNK         0.0000 
     31 H31         0.6702   48.0532   25.3846 H         1 UNK         0.0000 
     32 H32         2.5924   50.7310   22.5789 H         1 UNK         0.0000 
     33 H33         0.9739   51.0442   22.0038 H         1 UNK         0.0000 
     34 H34         2.8414   52.3041   20.7831 H         1 UNK         0.0000 
     35 H35         1.5261   53.2965   21.3499 H         1 UNK         0.0000 
     36 H36         4.1859   52.9342   22.8289 H         1 UNK         0.0000 
     37 H37         3.7483   54.3305   21.8696 H         1 UNK         0.0000 
     38 H38         1.8683   54.8658   23.3437 H         1 UNK         0.0000 
     39 H39         3.3056   54.7213   24.3210 H         1 UNK         0.0000 
@<TRIPOS>BOND
     1    1    2 1    
     2    1   22 1    
     3    1   23 1    
     4    1   24 1    
     5    2    3 1    
     6    3    8 ar   
     7    3    4 ar   
     8    4    5 ar   
     9    4   25 1    
    10    5    6 ar   
    11    5   10 1    
    12    6    7 ar   
    13    6   26 1    
    14    7    8 ar   
    15    7   27 1    
    16    8    9 1    
    17    9   28 1    
    18   10   15 ar   
    19   10   11 ar   
    20   11   12 ar   
    21   12   21 1    
    22   12   13 ar   
    23   13   14 ar   
    24   13   18 1    
    25   14   15 ar   
    26   14   16 1    
    27   16   17 1    
    28   16   29 1    
    29   17   30 1    
    30   17   31 1    
    31   18   19 1    
    32   18   32 1    
    33   18   33 1    
    34   19   20 1    
    35   19   34 1    
    36   19   35 1    
    37   20   21 1    
    38   20   36 1    
    39   20   37 1    
    40   21   38 1    
    41   21   39 1    
@<TRIPOS>SUBSTRUCTURE
     1 UNK         1 GROUP             0       ****    0 ROOT    
