@<TRIPOS>MOLECULE
ZINC63709806_406
68   72    1
SMALL
USER_CHARGES


@<TRIPOS>ATOM
      1 C1          5.0268   54.4979   29.2706 C.3       1 UNK         0.0000 
      2 O2          3.7916   54.0100   29.7824 O.3       1 UNK         0.0000 
      3 C3          2.8587   53.4792   28.9076 C.ar      1 UNK         0.0000 
      4 C4          3.0302   53.4621   27.5151 C.ar      1 UNK         0.0000 
      5 C5          2.0519   52.9212   26.6894 C.ar      1 UNK         0.0000 
      6 C6          0.8854   52.3581   27.2115 C.ar      1 UNK         0.0000 
      7 C7          0.7024   52.3917   28.6047 C.ar      1 UNK         0.0000 
      8 C8          1.6771   52.9544   29.4535 C.ar      1 UNK         0.0000 
      9 O9          1.5498   53.0301   30.8273 O.3       1 UNK         0.0000 
     10 C10         0.3025   52.7334   31.4414 C.3       1 UNK         0.0000 
     11 C11        -0.1513   51.7803   26.2282 C.3       1 UNK         0.0000 
     12 H12        -0.5531   52.6727   25.7527 H         1 UNK         0.0000 
     13 C13        -1.3235   50.9838   26.8754 C.3       1 UNK         0.0000 
     14 C14        -2.3556   50.4411   25.8497 C.3       1 UNK         0.0000 
     15 H15        -2.9881   49.7258   26.3785 H         1 UNK         0.0000 
     16 N16        -1.5640   49.6491   24.8961 N.3       1 UNK         0.0000 
     17 C17        -0.5010   50.4009   24.2424 C.3       1 UNK         0.0000 
     18 H18        -0.9587   51.2432   23.7221 H         1 UNK         0.0000 
     19 N19         0.4722   50.9489   25.1813 N.3       1 UNK         0.0000 
     20 C20         0.0658   49.3665   23.2398 C.3       1 UNK         0.0000 
     21 H21         1.0170   48.9197   23.5334 H         1 UNK         0.0000 
     22 C22        -1.0585   48.3068   23.2056 C.3       1 UNK         0.0000 
     23 N23        -2.2113   48.9391   23.8293 N.3       1 UNK         0.0000 
     24 C24         0.2084   50.0706   21.8684 C.2       1 UNK         0.0000 
     25 O25        -0.7528   50.6122   21.3185 O.2       1 UNK         0.0000 
     26 N26         1.4359   50.0605   21.3224 N.am      1 UNK         0.0000 
     27 C27         1.8027   50.7281   20.0715 C.3       1 UNK         0.0000 
     28 C28         1.8388   52.2724   20.1604 C.3       1 UNK         0.0000 
     29 C29         2.7460   52.8411   21.2405 C.2       1 UNK         0.0000 
     30 C30         3.9160   53.4992   21.1402 C.2       1 UNK         0.0000 
     31 C31         4.7080   53.8876   19.9616 C.2       1 UNK         0.0000 
     32 C32         5.8527   54.5870   20.1038 C.2       1 UNK         0.0000 
     33 C33         6.3039   54.8967   21.4560 C.2       1 UNK         0.0000 
     34 C34         5.6052   54.4974   22.5529 C.2       1 UNK         0.0000 
     35 C35         4.3720   53.8529   22.4104 C.2       1 UNK         0.0000 
     36 N36         3.5058   53.5070   23.3264 N.pl3     1 UNK         0.0000 
     37 C37         2.3661   52.8130   22.7070 C.3       1 UNK         0.0000 
     38 C38        -3.3026   51.5300   25.2519 C.3       1 UNK         0.0000 
     39 F39        -3.9974   52.1078   26.2350 F         1 UNK         0.0000 
     40 F40        -2.6783   52.5161   24.6027 F         1 UNK         0.0000 
     41 F41        -4.1990   51.0076   24.4138 F         1 UNK         0.0000 
     42 H42         5.6180   54.9165   30.0831 H         1 UNK         0.0000 
     43 H43         5.6109   53.6986   28.8148 H         1 UNK         0.0000 
     44 H44         4.8793   55.2875   28.5331 H         1 UNK         0.0000 
     45 H45         3.9179   53.8622   27.0513 H         1 UNK         0.0000 
     46 H46         2.2056   52.9187   25.6227 H         1 UNK         0.0000 
     47 H47        -0.1890   51.9707   29.0413 H         1 UNK         0.0000 
     48 H48         0.3825   52.8927   32.5152 H         1 UNK         0.0000 
     49 H49        -0.4940   53.3773   31.0763 H         1 UNK         0.0000 
     50 H50         0.0055   51.6969   31.2907 H         1 UNK         0.0000 
     51 H51        -1.8349   51.5531   27.6493 H         1 UNK         0.0000 
     52 H52        -0.8560   50.1280   27.3600 H         1 UNK         0.0000 
     53 H53         0.9004   50.1582   25.6395 H         1 UNK         0.0000 
     54 H54        -1.3323   47.9884   22.1986 H         1 UNK         0.0000 
     55 H55        -0.7690   47.4250   23.7809 H         1 UNK         0.0000 
     56 H56        -2.7350   48.2043   24.2866 H         1 UNK         0.0000 
     57 H57         2.1706   49.5506   21.7880 H         1 UNK         0.0000 
     58 H58         1.1312   50.4139   19.2691 H         1 UNK         0.0000 
     59 H59         2.7969   50.3711   19.7944 H         1 UNK         0.0000 
     60 H60         0.8302   52.6661   20.3168 H         1 UNK         0.0000 
     61 H61         2.1467   52.6732   19.1941 H         1 UNK         0.0000 
     62 H62         4.3903   53.6393   18.9562 H         1 UNK         0.0000 
     63 H63         6.4363   54.8810   19.2427 H         1 UNK         0.0000 
     64 H64         7.2483   55.4060   21.5905 H         1 UNK         0.0000 
     65 H65         6.0042   54.7292   23.5285 H         1 UNK         0.0000 
     66 H66         2.3124   51.8100   23.1330 H         1 UNK         0.0000 
     67 H67         1.4552   53.3669   22.9406 H         1 UNK         0.0000 
     68 H68         3.6099   53.6608   24.3250 H         1 UNK         0.0000 
@<TRIPOS>BOND
     1    1    2 1    
     2    1   42 1    
     3    1   43 1    
     4    1   44 1    
     5    2    3 1    
     6    3    8 ar   
     7    3    4 ar   
     8    4    5 ar   
     9    4   45 1    
    10    5    6 ar   
    11    5   46 1    
    12    6    7 ar   
    13    6   11 1    
    14    7    8 ar   
    15    7   47 1    
    16    8    9 1    
    17    9   10 1    
    18   10   48 1    
    19   10   49 1    
    20   10   50 1    
    21   11   12 1    
    22   11   19 1    
    23   11   13 1    
    24   13   14 1    
    25   13   51 1    
    26   13   52 1    
    27   14   15 1    
    28   14   16 1    
    29   14   38 1    
    30   16   23 1    
    31   16   17 1    
    32   17   18 1    
    33   17   19 1    
    34   17   20 1    
    35   19   53 1    
    36   20   21 1    
    37   20   22 1    
    38   20   24 1    
    39   22   23 1    
    40   22   54 1    
    41   22   55 1    
    42   23   56 1    
    43   24   25 2    
    44   24   26 am   BACKBONE|DICT|INTERRES
    45   26   27 1    
    46   26   57 1    
    47   27   28 1    
    48   27   58 1    
    49   27   59 1    
    50   28   29 1    
    51   28   60 1    
    52   28   61 1    
    53   29   37 1    
    54   29   30 2    
    55   30   35 1    
    56   30   31 1    
    57   31   32 2    
    58   31   62 1    
    59   32   33 1    
    60   32   63 1    
    61   33   34 2    
    62   33   64 1    
    63   34   35 1    
    64   34   65 1    
    65   35   36 2    
    66   36   37 1    
    67   36   68 1    
    68   37   66 1    
    69   37   67 1    
    70   38   39 1    
    71   38   40 1    
    72   38   41 1    
@<TRIPOS>SUBSTRUCTURE
     1 UNK         1 GROUP             0       ****    0 ROOT    
