ZINC33037212_3271
                    3D
 Schrodinger Suite 2024-2.
 62 66  0  0  1  0            999 V2000
    3.3842   53.7622   13.0250 C   0  0  0  0  0  0
    3.8707   54.0669   14.4298 C   0  0  0  0  0  0
    4.0064   55.3927   14.8470 C   0  0  0  0  0  0
    4.4642   55.6741   16.1319 C   0  0  0  0  0  0
    4.7916   54.6312   17.0022 C   0  0  0  0  0  0
    4.6598   53.3067   16.5776 C   0  0  0  0  0  0
    4.2020   53.0228   15.2949 C   0  0  0  0  0  0
    5.2728   54.9144   18.3862 C   0  0  0  0  0  0
    6.2180   55.8726   18.8004 C   0  0  0  0  0  0
    6.3854   55.8547   20.1019 N   0  0  0  0  0  0
    5.5755   54.8967   20.5812 N   0  0  0  0  0  0
    4.8777   54.2749   19.5587 C   0  0  0  0  0  0
    3.9042   53.2951   19.7022 N   0  0  0  0  0  0
    4.0850   52.1116   20.3192 C   0  0  0  0  0  0
    5.1044   51.7864   20.9254 O   0  0  0  0  0  0
    2.9221   51.1302   20.2450 C   0  0  0  0  0  0
    5.5090   54.7014   21.9804 C   0  0  0  0  0  0
    4.2712   54.4957   22.5951 C   0  0  0  0  0  0
    4.1956   54.3502   23.9744 C   0  0  0  0  0  0
    5.3537   54.4303   24.7684 C   0  0  0  0  0  0
    6.5897   54.6293   24.1393 C   0  0  0  0  0  0
    6.6706   54.7630   22.7586 C   0  0  0  0  0  0
    5.3010   54.2691   26.2731 C   0  0  0  0  0  0
    6.3401   54.2776   26.9388 O   0  0  0  0  0  0
    4.0643   54.1139   26.7950 N   0  0  0  0  0  0
    3.6921   53.6416   28.0598 C   0  0  0  0  0  0
    4.5482   52.8959   28.8849 C   0  0  0  0  0  0
    4.0791   52.3517   30.0802 C   0  0  0  0  0  0
    2.7618   52.5616   30.4649 C   0  0  0  0  0  0
    1.8969   53.3009   29.6437 C   0  0  0  0  0  0
    2.3634   53.8472   28.4491 C   0  0  0  0  0  0
    0.5848   53.5379   29.9954 O   0  0  0  0  0  0
    0.0650   52.5623   30.9044 C   0  0  0  0  0  0
    1.0475   52.3511   32.0816 C   0  0  0  0  0  0
    2.3479   51.9580   31.6316 O   0  0  0  0  0  0
    7.0227   56.8559   17.9790 C   0  0  0  0  0  0
    3.7569   52.7978   12.6777 H   0  0  0  0  0  0
    3.7476   54.5105   12.3196 H   0  0  0  0  0  0
    2.2946   53.7542   12.9908 H   0  0  0  0  0  0
    3.7547   56.2048   14.1806 H   0  0  0  0  0  0
    4.5545   56.7023   16.4512 H   0  0  0  0  0  0
    4.9213   52.4956   17.2413 H   0  0  0  0  0  0
    4.1074   51.9920   14.9831 H   0  0  0  0  0  0
    3.0530   53.4321   19.1774 H   0  0  0  0  0  0
    2.0140   51.6047   19.8736 H   0  0  0  0  0  0
    3.1789   50.3098   19.5733 H   0  0  0  0  0  0
    2.7158   50.7157   21.2315 H   0  0  0  0  0  0
    3.3596   54.4686   22.0151 H   0  0  0  0  0  0
    3.2166   54.1847   24.3981 H   0  0  0  0  0  0
    7.5044   54.6793   24.7120 H   0  0  0  0  0  0
    7.6377   54.9199   22.3016 H   0  0  0  0  0  0
    3.2956   54.2798   26.1673 H   0  0  0  0  0  0
    5.5661   52.6852   28.5949 H   0  0  0  0  0  0
    4.7333   51.7572   30.7002 H   0  0  0  0  0  0
    1.6822   54.4080   27.8257 H   0  0  0  0  0  0
   -0.0993   51.6242   30.3753 H   0  0  0  0  0  0
   -0.8957   52.8967   31.2817 H   0  0  0  0  0  0
    0.6941   51.5812   32.7651 H   0  0  0  0  0  0
    1.1044   53.2775   32.6522 H   0  0  0  0  0  0
    7.0117   56.6141   16.9168 H   0  0  0  0  0  0
    6.6397   57.8718   18.0818 H   0  0  0  0  0  0
    8.0712   56.8740   18.2795 H   0  0  0  0  0  0
  1  2  1  0  0  0
  1 37  1  0  0  0
  1 38  1  0  0  0
  1 39  1  0  0  0
  2  7  2  0  0  0
  2  3  1  0  0  0
  3  4  2  0  0  0
  3 40  1  0  0  0
  4  5  1  0  0  0
  4 41  1  0  0  0
  5  6  2  0  0  0
  5  8  1  0  0  0
  6  7  1  0  0  0
  6 42  1  0  0  0
  7 43  1  0  0  0
  8 12  2  0  0  0
  8  9  1  0  0  0
  9 10  2  0  0  0
  9 36  1  0  0  0
 10 11  1  0  0  0
 11 12  1  0  0  0
 11 17  1  0  0  0
 12 13  1  0  0  0
 13 14  1  0  0  0
 13 44  1  0  0  0
 14 15  2  0  0  0
 14 16  1  0  0  0
 16 45  1  0  0  0
 16 46  1  0  0  0
 16 47  1  0  0  0
 17 22  2  0  0  0
 17 18  1  0  0  0
 18 19  2  0  0  0
 18 48  1  0  0  0
 19 20  1  0  0  0
 19 49  1  0  0  0
 20 21  2  0  0  0
 20 23  1  0  0  0
 21 22  1  0  0  0
 21 50  1  0  0  0
 22 51  1  0  0  0
 23 24  2  0  0  0
 23 25  1  0  0  0
 25 26  1  0  0  0
 25 52  1  0  0  0
 26 31  2  0  0  0
 26 27  1  0  0  0
 27 28  2  0  0  0
 27 53  1  0  0  0
 28 29  1  0  0  0
 28 54  1  0  0  0
 29 35  1  0  0  0
 29 30  2  0  0  0
 30 31  1  0  0  0
 30 32  1  0  0  0
 31 55  1  0  0  0
 32 33  1  0  0  0
 33 34  1  0  0  0
 33 56  1  0  0  0
 33 57  1  0  0  0
 34 35  1  0  0  0
 34 58  1  0  0  0
 34 59  1  0  0  0
 36 60  1  0  0  0
 36 61  1  0  0  0
 36 62  1  0  0  0
M  END
> <i_i_glide_confnum>
171

> <i_i_glide_lignum>
3272

> <i_i_glide_posenum>
13

> <i_i_glide_rotatable_bonds>
7

> <i_m_Source_File_Index>
2354

> <b_m_subgroup_collapsed>
0

> <r_i_docking_score>
-6.48629

> <r_i_glide_ecoul>
-7.67433

> <r_i_glide_eff_state_penalty>
0

> <r_i_glide_einternal>
2.33087

> <r_i_glide_emodel>
-76.9294

> <r_i_glide_energy>
-56.0259

> <r_i_glide_erotb>
0.522967

> <r_i_glide_esite>
-0.0675624

> <r_i_glide_evdw>
-48.3516

> <r_i_glide_gscore>
-6.48629

> <r_i_glide_hbond>
-0.277656

> <r_i_glide_ligand_efficiency>
-0.180175

> <r_i_glide_ligand_efficiency_ln>
-1.41513

> <r_i_glide_ligand_efficiency_sa>
-0.594923

> <r_i_glide_lipo>
-2.35856

> <r_i_glide_metal>
0

> <r_i_glide_rewards>
-0.736751

> <s_i_glide_gridfile>
wee1_glide-grid

> <s_m_Source_File>
wee1_decoys_glide_SP.sdf

> <s_m_Source_Path>
/Users/zhangxujun/Desktop

> <s_m_entry_id>
2629

> <s_m_entry_name>
wee1_decoys_glide_SP.2354

> <s_m_subgroup_title>
wee1_decoys_glide_SP

> <s_m_subgroupid>
wee1_decoys_glide_SP


$$$$
