ZINC47042155_1551
                    3D
 Schrodinger Suite 2024-2.
 55 58  0  0  1  0            999 V2000
    3.6333   52.6895   20.6196 C   0  0  0  0  0  0
    3.5794   52.8957   21.9945 C   0  0  0  0  0  0
    4.4922   53.7471   22.6216 C   0  0  0  0  0  0
    5.4339   54.4340   21.8420 C   0  0  0  0  0  0
    5.4833   54.2535   20.4457 C   0  0  0  0  0  0
    4.5881   53.3510   19.8530 C   0  0  0  0  0  0
    6.4590   54.8960   19.6427 N   0  0  0  0  0  0
    6.8775   54.3989   18.3350 C   0  0  0  0  0  0
    8.0040   55.3146   17.9626 C   0  0  0  0  0  0
    7.7119   56.4419   18.8075 N   0  0  0  0  0  0
    6.9628   56.1403   19.8808 C   0  0  0  0  0  0
    6.7044   56.9071   20.8067 O   0  0  0  0  0  0
    4.4093   53.7996   24.0225 N   0  0  0  0  0  0
    5.2124   54.3751   24.9450 C   0  0  0  0  0  0
    6.1805   55.0935   24.6937 O   0  0  0  0  0  0
    4.8598   54.0144   26.4079 C   0  0  1  0  0  0
    4.9490   52.9265   26.4397 H   0  0  0  0  0  0
    5.8447   54.5971   27.4539 C   0  0  0  0  0  0
    5.3308   54.3116   28.8815 C   0  0  0  0  0  0
    3.8383   54.6473   29.0840 C   0  0  0  0  0  0
    3.0612   53.8972   28.0844 N   0  0  0  0  0  0
    3.3782   54.3599   26.7164 C   0  0  0  0  0  0
    2.5001   52.7045   28.4595 C   0  0  0  0  0  0
    2.8441   52.1548   29.5149 O   0  0  0  0  0  0
    1.4571   52.1779   27.7575 N   0  0  0  0  0  0
    1.0779   52.4069   26.3559 C   0  0  0  0  0  0
   -0.1972   51.5910   26.1834 C   0  0  0  0  0  0
   -0.8382   51.6971   27.5477 C   0  0  0  0  0  0
    0.3439   51.5620   28.5014 C   0  0  0  0  0  0
    2.9414   52.0096   20.1445 H   0  0  0  0  0  0
    2.8388   52.3581   22.5690 H   0  0  0  0  0  0
    6.1545   55.0780   22.3180 H   0  0  0  0  0  0
    4.6093   53.1544   18.7909 H   0  0  0  0  0  0
    6.0560   54.4627   17.6199 H   0  0  0  0  0  0
    7.2024   53.3598   18.4049 H   0  0  0  0  0  0
    8.9766   54.8869   18.2167 H   0  0  0  0  0  0
    8.0089   55.6024   16.9103 H   0  0  0  0  0  0
    8.4123   57.1648   18.8798 H   0  0  0  0  0  0
    3.6558   53.2496   24.4016 H   0  0  0  0  0  0
    6.8365   54.1497   27.3656 H   0  0  0  0  0  0
    5.9045   55.6850   27.3734 H   0  0  0  0  0  0
    5.5035   53.2641   29.1355 H   0  0  0  0  0  0
    5.9045   54.8967   29.5996 H   0  0  0  0  0  0
    3.4679   54.5052   30.0986 H   0  0  0  0  0  0
    3.6544   55.6999   28.8916 H   0  0  0  0  0  0
    3.2584   55.4419   26.7177 H   0  0  0  0  0  0
    2.6771   54.0697   25.9473 H   0  0  0  0  0  0
    0.8271   53.4568   26.2191 H   0  0  0  0  0  0
    1.8590   52.1032   25.6582 H   0  0  0  0  0  0
   -0.8284   51.9600   25.3739 H   0  0  0  0  0  0
    0.0439   50.5491   25.9597 H   0  0  0  0  0  0
   -1.6088   50.9458   27.7305 H   0  0  0  0  0  0
   -1.2957   52.6790   27.6674 H   0  0  0  0  0  0
    0.5225   50.4970   28.6297 H   0  0  0  0  0  0
    0.1028   52.0710   29.4366 H   0  0  0  0  0  0
  1  6  2  0  0  0
  1  2  1  0  0  0
  1 30  1  0  0  0
  2  3  2  0  0  0
  2 31  1  0  0  0
  3  4  1  0  0  0
  3 13  1  0  0  0
  4  5  2  0  0  0
  4 32  1  0  0  0
  5  6  1  0  0  0
  5  7  1  0  0  0
  6 33  1  0  0  0
  7 11  1  0  0  0
  7  8  1  0  0  0
  8  9  1  0  0  0
  8 34  1  0  0  0
  8 35  1  0  0  0
  9 10  1  0  0  0
  9 36  1  0  0  0
  9 37  1  0  0  0
 10 11  1  0  0  0
 10 38  1  0  0  0
 11 12  2  0  0  0
 13 14  1  0  0  0
 13 39  1  0  0  0
 14 15  2  0  0  0
 14 16  1  0  0  0
 16 17  1  0  0  0
 16 22  1  0  0  0
 16 18  1  0  0  0
 18 19  1  0  0  0
 18 40  1  0  0  0
 18 41  1  0  0  0
 19 20  1  0  0  0
 19 42  1  0  0  0
 19 43  1  0  0  0
 20 21  1  0  0  0
 20 44  1  0  0  0
 20 45  1  0  0  0
 21 22  1  0  0  0
 21 23  1  0  0  0
 22 46  1  0  0  0
 22 47  1  0  0  0
 23 24  2  0  0  0
 23 25  1  0  0  0
 25 29  1  0  0  0
 25 26  1  0  0  0
 26 27  1  0  0  0
 26 48  1  0  0  0
 26 49  1  0  0  0
 27 28  1  0  0  0
 27 50  1  0  0  0
 27 51  1  0  0  0
 28 29  1  0  0  0
 28 52  1  0  0  0
 28 53  1  0  0  0
 29 54  1  0  0  0
 29 55  1  0  0  0
M  END
> <i_i_glide_confnum>
313

> <i_i_glide_lignum>
1552

> <i_i_glide_posenum>
394

> <i_i_glide_rotatable_bonds>
6

> <i_m_Source_File_Index>
817

> <b_m_subgroup_collapsed>
0

> <r_i_docking_score>
-6.96508

> <r_i_glide_ecoul>
-8.1961

> <r_i_glide_eff_state_penalty>
0

> <r_i_glide_einternal>
4.14097

> <r_i_glide_emodel>
-70.8111

> <r_i_glide_energy>
-51.3669

> <r_i_glide_erotb>
0.785569

> <r_i_glide_esite>
0

> <r_i_glide_evdw>
-43.1708

> <r_i_glide_gscore>
-6.96508

> <r_i_glide_hbond>
-0.372243

> <r_i_glide_ligand_efficiency>
-0.248753

> <r_i_glide_ligand_efficiency_ln>
-1.60775

> <r_i_glide_ligand_efficiency_sa>
-0.75536

> <r_i_glide_lipo>
-1.86605

> <r_i_glide_metal>
0

> <r_i_glide_rewards>
-2.1244

> <s_i_glide_gridfile>
wee1_glide-grid

> <s_m_Source_File>
wee1_decoys_glide_SP.sdf

> <s_m_Source_Path>
/Users/zhangxujun/Desktop

> <s_m_entry_id>
1092

> <s_m_entry_name>
wee1_decoys_glide_SP.817

> <s_m_subgroup_title>
wee1_decoys_glide_SP

> <s_m_subgroupid>
wee1_decoys_glide_SP


$$$$
