ZINC09382677_4819
                    3D
 Schrodinger Suite 2024-2.
 62 65  0  0  1  0            999 V2000
    2.2828   51.4707   17.8410 C   0  0  0  0  0  0
    2.4441   50.5557   19.0709 C   0  0  1  0  0  0
    3.5043   50.5871   19.2924 H   0  0  0  0  0  0
    1.7279   51.0157   20.3917 C   0  0  2  0  0  0
    2.0182   50.3181   21.1819 H   0  0  0  0  0  0
    0.2050   51.1438   20.3090 C   0  0  0  0  0  0
   -0.6012   51.8181   19.3878 C   0  0  0  0  0  0
   -1.9740   51.6937   19.6116 C   0  0  0  0  0  0
   -2.2585   50.9522   20.7424 C   0  0  0  0  0  0
   -0.8147   50.3958   21.5152 S   0  0  0  0  0  0
    1.7513   52.7353   22.3259 C   0  0  0  0  0  0
    2.2930   54.1057   22.7794 C   0  0  0  0  0  0
    3.7612   54.1801   22.7796 N   0  0  0  0  0  0
    4.2792   53.8579   21.4393 C   0  0  0  0  0  0
    3.8255   52.4835   20.9183 C   0  0  0  0  0  0
    4.5560   54.2671   23.9220 C   0  0  0  0  0  0
    4.0342   54.0260   25.2019 C   0  0  0  0  0  0
    4.8440   54.0986   26.3323 C   0  0  0  0  0  0
    6.1957   54.4394   26.2078 C   0  0  0  0  0  0
    6.7045   54.7390   24.9534 C   0  0  0  0  0  0
    5.9040   54.6434   23.8233 C   0  0  0  0  0  0
    7.0831   54.4973   27.2600 O   0  0  0  0  0  0
    6.7998   53.6968   28.3951 C   0  0  0  0  0  0
    2.3032   49.1230   18.7075 N   0  0  0  0  0  0
    0.7318   48.3591   18.4821 S   0  0  0  0  0  0
   -0.0834   49.2127   17.6105 O   0  0  0  0  0  0
    0.2433   47.9487   19.8037 O   0  0  0  0  0  0
    1.0582   46.8724   17.5475 C   0  0  0  0  0  0
    0.4694   45.6651   17.9304 C   0  0  0  0  0  0
    0.7148   44.5137   17.1881 C   0  0  0  0  0  0
    1.5633   44.5707   16.0815 C   0  0  0  0  0  0
    2.1434   45.7786   15.6949 C   0  0  0  0  0  0
    1.8807   46.9351   16.4220 C   0  0  0  0  0  0
    1.8966   43.1367   15.1880 Cl  0  0  0  0  0  0
    2.3284   52.5247   18.1112 H   0  0  0  0  0  0
    3.0893   51.2969   17.1255 H   0  0  0  0  0  0
    1.3456   51.2990   17.3148 H   0  0  0  0  0  0
   -0.2058   52.3808   18.5562 H   0  0  0  0  0  0
   -2.7240   52.1204   18.9641 H   0  0  0  0  0  0
   -3.2251   50.6912   21.1488 H   0  0  0  0  0  0
    0.6656   52.8159   22.2479 H   0  0  0  0  0  0
    2.0202   51.9217   23.0064 H   0  0  0  0  0  0
    1.9678   54.8930   22.0961 H   0  0  0  0  0  0
    1.8619   54.3754   23.7429 H   0  0  0  0  0  0
    5.3652   53.8889   21.3872 H   0  0  0  0  0  0
    3.9188   54.6479   20.7767 H   0  0  0  0  0  0
    4.2187   51.6500   21.5012 H   0  0  0  0  0  0
    4.1591   52.4279   19.8827 H   0  0  0  0  0  0
    3.0073   53.7352   25.3439 H   0  0  0  0  0  0
    4.4088   53.8731   27.2939 H   0  0  0  0  0  0
    7.7388   55.0205   24.8517 H   0  0  0  0  0  0
    6.3556   54.8927   22.8761 H   0  0  0  0  0  0
    7.6570   53.6978   29.0724 H   0  0  0  0  0  0
    5.9389   54.0783   28.9528 H   0  0  0  0  0  0
    6.6096   52.6627   28.0852 H   0  0  0  0  0  0
    2.9500   48.9175   17.9270 H   0  0  0  0  0  0
   -0.1798   45.6248   18.7925 H   0  0  0  0  0  0
    0.2596   43.5802   17.4783 H   0  0  0  0  0  0
    2.7939   45.8240   14.8351 H   0  0  0  0  0  0
    2.3078   47.8766   16.1093 H   0  0  0  0  0  0
    2.2785   52.3890   20.9104 N   0  3  0  0  0  0
    1.9415   53.1195   20.2939 H   0  0  0  0  0  0
  1  2  1  0  0  0
  1 35  1  0  0  0
  1 36  1  0  0  0
  1 37  1  0  0  0
  2  3  1  0  0  0
  2  4  1  0  0  0
  2 24  1  0  0  0
  4  5  1  0  0  0
  4  6  1  0  0  0
  4 61  1  0  0  0
  6 10  1  0  0  0
  6  7  2  0  0  0
  7  8  1  0  0  0
  7 38  1  0  0  0
  8  9  2  0  0  0
  8 39  1  0  0  0
  9 10  1  0  0  0
  9 40  1  0  0  0
 11 12  1  0  0  0
 11 41  1  0  0  0
 11 42  1  0  0  0
 11 61  1  0  0  0
 12 13  1  0  0  0
 12 43  1  0  0  0
 12 44  1  0  0  0
 13 14  1  0  0  0
 13 16  1  0  0  0
 14 15  1  0  0  0
 14 45  1  0  0  0
 14 46  1  0  0  0
 15 47  1  0  0  0
 15 48  1  0  0  0
 15 61  1  0  0  0
 16 21  2  0  0  0
 16 17  1  0  0  0
 17 18  2  0  0  0
 17 49  1  0  0  0
 18 19  1  0  0  0
 18 50  1  0  0  0
 19 20  2  0  0  0
 19 22  1  0  0  0
 20 21  1  0  0  0
 20 51  1  0  0  0
 21 52  1  0  0  0
 22 23  1  0  0  0
 23 53  1  0  0  0
 23 54  1  0  0  0
 23 55  1  0  0  0
 24 25  1  0  0  0
 24 56  1  0  0  0
 25 26  2  0  0  0
 25 27  2  0  0  0
 25 28  1  0  0  0
 28 33  2  0  0  0
 28 29  1  0  0  0
 29 30  2  0  0  0
 29 57  1  0  0  0
 30 31  1  0  0  0
 30 58  1  0  0  0
 31 32  2  0  0  0
 31 34  1  0  0  0
 32 33  1  0  0  0
 32 59  1  0  0  0
 33 60  1  0  0  0
 61 62  1  0  0  0
M  CHG  1  61   1
M  END
> <i_i_glide_confnum>
82

> <i_i_glide_lignum>
4820

> <i_i_glide_posenum>
106

> <i_i_glide_rotatable_bonds>
8

> <i_m_Source_File_Index>
4706

> <b_m_subgroup_collapsed>
0

> <r_i_docking_score>
-1.84195

> <r_i_glide_ecoul>
-4.34814

> <r_i_glide_eff_state_penalty>
0

> <r_i_glide_einternal>
13.1514

> <r_i_glide_emodel>
-33.5283

> <r_i_glide_energy>
-43.0836

> <r_i_glide_erotb>
0.477506

> <r_i_glide_esite>
-0.161981

> <r_i_glide_evdw>
-38.7355

> <r_i_glide_gscore>
-1.84195

> <r_i_glide_hbond>
-0.245266

> <r_i_glide_ligand_efficiency>
-0.0558166

> <r_i_glide_ligand_efficiency_ln>
-0.40964

> <r_i_glide_ligand_efficiency_sa>
-0.179034

> <r_i_glide_lipo>
-2.10685

> <r_i_glide_metal>
0

> <r_i_glide_rewards>
2.78363

> <s_i_glide_gridfile>
wee1_glide-grid

> <s_m_Source_File>
wee1_decoys_glide_SP.sdf

> <s_m_Source_Path>
/Users/zhangxujun/Desktop

> <s_m_entry_id>
4981

> <s_m_entry_name>
wee1_decoys_glide_SP.4706

> <s_m_subgroup_title>
wee1_decoys_glide_SP

> <s_m_subgroupid>
wee1_decoys_glide_SP


$$$$
