@<TRIPOS>MOLECULE
ZINC17958529_3721
57   59    1
SMALL
USER_CHARGES


@<TRIPOS>ATOM
      1 C1          1.0562   49.3825   22.7066 C.3       1 UNK         0.0000 
      2 C2         -0.1086   49.7634   21.7719 C.3       1 UNK         0.0000 
      3 C3          0.2050   50.7635   20.6225 C.3       1 UNK         0.0000 
      4 C4          1.2652   50.1366   19.6593 C.3       1 UNK         0.0000 
      5 C5          2.7355   50.5703   19.8429 C.3       1 UNK         0.0000 
      6 C6          2.8883   52.0949   20.0303 C.3       1 UNK         0.0000 
      7 C7          2.1239   52.4389   21.3333 C.3       1 UNK         0.0000 
      8 C8          0.6143   52.1460   21.2262 C.3       1 UNK         0.0000 
      9 C9          4.3400   52.4956   20.2225 C.2       1 UNK         0.0000 
     10 O10         5.1044   52.0095   21.0582 O.2       1 UNK         0.0000 
     11 N11         4.5379   53.5715   19.4185 N.am      1 UNK         0.0000 
     12 C12         3.5298   53.7404   18.5202 C.2       1 UNK         0.0000 
     13 O13         3.5582   54.3775   17.4688 O.2       1 UNK         0.0000 
     14 N14         2.5593   52.8968   18.8877 N.am      1 UNK         0.0000 
     15 C15         5.7248   54.4842   19.3991 C.3       1 UNK         0.0000 
     16 C16         6.1054   55.1684   20.7410 C.2       1 UNK         0.0000 
     17 O17         6.6356   56.2797   20.7230 O.2       1 UNK         0.0000 
     18 N18         5.9042   54.4965   21.8808 N.am      1 UNK         0.0000 
     19 C19         6.2477   54.9117   23.2368 C.3       1 UNK         0.0000 
     20 C20         5.1173   54.4835   24.1909 C.2       1 UNK         0.0000 
     21 O21         4.0279   54.0967   23.7562 O.2       1 UNK         0.0000 
     22 N22         5.4260   54.5491   25.5008 N.am      1 UNK         0.0000 
     23 C23         4.6545   54.1160   26.5960 C.ar      1 UNK         0.0000 
     24 C24         3.2486   54.0971   26.5764 C.ar      1 UNK         0.0000 
     25 C25         2.5270   53.6276   27.6720 C.ar      1 UNK         0.0000 
     26 C26         3.2008   53.1598   28.7956 C.ar      1 UNK         0.0000 
     27 C27         4.5920   53.1777   28.8247 C.ar      1 UNK         0.0000 
     28 C28         5.3297   53.6735   27.7476 C.ar      1 UNK         0.0000 
     29 C29         6.8513   53.6970   27.8553 C.3       1 UNK         0.0000 
     30 Br30        2.2276   52.4968   30.2899 Br        1 UNK         0.0000 
     31 H31         0.7193   48.6832   23.4731 H         1 UNK         0.0000 
     32 H32         1.8706   48.8980   22.1677 H         1 UNK         0.0000 
     33 H33         1.4609   50.2499   23.2269 H         1 UNK         0.0000 
     34 H34        -0.9204   50.1663   22.3803 H         1 UNK         0.0000 
     35 H35        -0.5169   48.8477   21.3403 H         1 UNK         0.0000 
     36 H36        -0.7073   50.9193   20.0430 H         1 UNK         0.0000 
     37 H37         0.9886   50.4753   18.6588 H         1 UNK         0.0000 
     38 H38         1.1547   49.0543   19.5724 H         1 UNK         0.0000 
     39 H39         3.2444   50.2730   18.9244 H         1 UNK         0.0000 
     40 H40         3.2480   50.0116   20.6270 H         1 UNK         0.0000 
     41 H41         2.5826   51.9752   22.2085 H         1 UNK         0.0000 
     42 H42         2.2087   53.5095   21.5364 H         1 UNK         0.0000 
     43 H43         0.2233   52.8966   20.5385 H         1 UNK         0.0000 
     44 H44         0.0762   52.3678   22.1488 H         1 UNK         0.0000 
     45 H45         1.5964   53.0376   18.6242 H         1 UNK         0.0000 
     46 H46         5.5101   55.3069   18.7144 H         1 UNK         0.0000 
     47 H47         6.5927   53.9652   18.9922 H         1 UNK         0.0000 
     48 H48         5.4810   53.5745   21.8109 H         1 UNK         0.0000 
     49 H49         6.4007   55.9885   23.3020 H         1 UNK         0.0000 
     50 H50         7.1794   54.4165   23.5130 H         1 UNK         0.0000 
     51 H51         6.3706   54.8108   25.7288 H         1 UNK         0.0000 
     52 H52         2.6969   54.4524   25.7204 H         1 UNK         0.0000 
     53 H53         1.4474   53.6162   27.6445 H         1 UNK         0.0000 
     54 H54         5.1043   52.7812   29.6814 H         1 UNK         0.0000 
     55 H55         7.2930   52.9573   27.1866 H         1 UNK         0.0000 
     56 H56         7.2379   54.6780   27.5776 H         1 UNK         0.0000 
     57 H57         7.1953   53.5047   28.8725 H         1 UNK         0.0000 
@<TRIPOS>BOND
     1    1    2 1    
     2    1   31 1    
     3    1   32 1    
     4    1   33 1    
     5    2    3 1    
     6    2   34 1    
     7    2   35 1    
     8    3    8 1    
     9    3    4 1    
    10    3   36 1    
    11    4    5 1    
    12    4   37 1    
    13    4   38 1    
    14    5    6 1    
    15    5   39 1    
    16    5   40 1    
    17    6   14 1    
    18    6    7 1    
    19    6    9 1    
    20    7    8 1    
    21    7   41 1    
    22    7   42 1    
    23    8   43 1    
    24    8   44 1    
    25    9   10 2    
    26    9   11 am   BACKBONE|DICT|INTERRES
    27   11   12 am   BACKBONE|DICT|INTERRES
    28   11   15 1    
    29   12   13 2    
    30   12   14 am   BACKBONE|DICT|INTERRES
    31   14   45 1    
    32   15   16 1    
    33   15   46 1    
    34   15   47 1    
    35   16   17 2    
    36   16   18 am   BACKBONE|DICT|INTERRES
    37   18   19 1    
    38   18   48 1    
    39   19   20 1    
    40   19   49 1    
    41   19   50 1    
    42   20   21 2    
    43   20   22 am   BACKBONE|DICT|INTERRES
    44   22   23 1    
    45   22   51 1    
    46   23   28 ar   
    47   23   24 ar   
    48   24   25 ar   
    49   24   52 1    
    50   25   26 ar   
    51   25   53 1    
    52   26   27 ar   
    53   26   30 1    
    54   27   28 ar   
    55   27   54 1    
    56   28   29 1    
    57   29   55 1    
    58   29   56 1    
    59   29   57 1    
@<TRIPOS>SUBSTRUCTURE
     1 UNK         1 GROUP             0       ****    0 ROOT    
