@<TRIPOS>MOLECULE
ZINC02725359_5827
40   42    1
SMALL
USER_CHARGES


@<TRIPOS>ATOM
      1 C1          1.9041   48.2116   18.1252 C.3       1 UNK         0.0000 
      2 C2          0.9099   48.2054   19.2818 C.ar      1 UNK         0.0000 
      3 C3         -0.2529   47.4432   19.1597 C.ar      1 UNK         0.0000 
      4 C4         -1.1953   47.4206   20.1824 C.ar      1 UNK         0.0000 
      5 C5         -0.9701   48.1410   21.3509 C.ar      1 UNK         0.0000 
      6 C6          0.1934   48.9003   21.5108 C.ar      1 UNK         0.0000 
      7 C7          1.1296   48.9625   20.4497 C.ar      1 UNK         0.0000 
      8 N8          2.3050   49.7362   20.5162 N.am      1 UNK         0.0000 
      9 C9          2.3615   51.0598   20.7537 C.2       1 UNK         0.0000 
     10 O10         1.3737   51.7623   20.9746 O.2       1 UNK         0.0000 
     11 N11         3.6266   51.5252   20.7141 N.am      1 UNK         0.0000 
     12 C12         4.0311   52.9150   20.7910 C.3       1 UNK         0.0000 
     13 O13         3.2035   53.6416   21.6832 O.3       1 UNK         0.0000 
     14 C14         3.9467   53.9186   22.7866 C.ar      1 UNK         0.0000 
     15 C15         3.5520   54.4947   23.9895 C.ar      1 UNK         0.0000 
     16 C16         4.5442   54.7267   24.9534 C.ar      1 UNK         0.0000 
     17 C17         5.8879   54.4124   24.6908 C.ar      1 UNK         0.0000 
     18 C18         6.2529   53.8173   23.4761 C.ar      1 UNK         0.0000 
     19 C19         5.2416   53.5638   22.5536 C.ar      1 UNK         0.0000 
     20 O20         5.3275   52.9657   21.3369 O.3       1 UNK         0.0000 
     21 Cl21        7.0958   54.7566   25.8747 Cl        1 UNK         0.0000 
     22 C22         4.0870   53.5879   19.3972 C.3       1 UNK         0.0000 
     23 F23         5.0868   53.0769   18.6804 F         1 UNK         0.0000 
     24 F24         2.9540   53.3918   18.7192 F         1 UNK         0.0000 
     25 F25         4.3050   54.8965   19.5193 F         1 UNK         0.0000 
     26 C26         0.4330   49.5534   22.8690 C.3       1 UNK         0.0000 
     27 H27         2.8973   47.9214   18.4745 H         1 UNK         0.0000 
     28 H28         1.6208   47.5313   17.3192 H         1 UNK         0.0000 
     29 H29         1.9890   49.2164   17.7083 H         1 UNK         0.0000 
     30 H30        -0.4361   46.8691   18.2634 H         1 UNK         0.0000 
     31 H31        -2.0966   46.8365   20.0745 H         1 UNK         0.0000 
     32 H32        -1.6957   48.0911   22.1496 H         1 UNK         0.0000 
     33 H33         3.1373   49.2833   20.1737 H         1 UNK         0.0000 
     34 H34         4.3028   50.9105   20.2860 H         1 UNK         0.0000 
     35 H35         2.5238   54.7678   24.1761 H         1 UNK         0.0000 
     36 H36         4.2751   55.1756   25.8988 H         1 UNK         0.0000 
     37 H37         7.2836   53.5563   23.2823 H         1 UNK         0.0000 
     38 H38         1.4960   49.5816   23.1133 H         1 UNK         0.0000 
     39 H39         0.0377   50.5698   22.8861 H         1 UNK         0.0000 
     40 H40        -0.0438   48.9873   23.6701 H         1 UNK         0.0000 
@<TRIPOS>BOND
     1    1    2 1    
     2    1   27 1    
     3    1   28 1    
     4    1   29 1    
     5    2    7 ar   
     6    2    3 ar   
     7    3    4 ar   
     8    3   30 1    
     9    4    5 ar   
    10    4   31 1    
    11    5    6 ar   
    12    5   32 1    
    13    6    7 ar   
    14    6   26 1    
    15    7    8 1    
    16    8    9 am   BACKBONE|DICT|INTERRES
    17    8   33 1    
    18    9   10 2    
    19    9   11 am   BACKBONE|DICT|INTERRES
    20   11   12 1    
    21   11   34 1    
    22   12   20 1    
    23   12   13 1    
    24   12   22 1    
    25   13   14 1    
    26   14   19 ar   
    27   14   15 ar   
    28   15   16 ar   
    29   15   35 1    
    30   16   17 ar   
    31   16   36 1    
    32   17   18 ar   
    33   17   21 1    
    34   18   19 ar   
    35   18   37 1    
    36   19   20 1    
    37   22   23 1    
    38   22   24 1    
    39   22   25 1    
    40   26   38 1    
    41   26   39 1    
    42   26   40 1    
@<TRIPOS>SUBSTRUCTURE
     1 UNK         1 GROUP             0       ****    0 ROOT    
