ZINC00711715_3636
                    3D
 Schrodinger Suite 2024-2.
 45 48  0  0  1  0            999 V2000
    5.6746   53.9451   28.1990 C   0  0  0  0  0  0
    4.6886   53.4687   27.3388 C   0  0  0  0  0  0
    3.4550   53.8701   27.8433 C   0  0  0  0  0  0
    3.6661   54.5831   28.9825 O   0  0  0  0  0  0
    5.0052   54.6269   29.1948 C   0  0  0  0  0  0
    2.0030   53.7358   27.3880 C   0  0  1  0  0  0
    1.5708   54.7345   27.4538 H   0  0  0  0  0  0
    1.8023   53.2960   25.9215 C   0  0  0  0  0  0
    2.6153   53.7529   24.8753 C   0  0  0  0  0  0
    2.4124   53.3754   23.5377 C   0  0  0  0  0  0
    1.3287   52.5298   23.2414 C   0  0  0  0  0  0
    0.4987   52.0692   24.2604 C   0  0  0  0  0  0
    0.7379   52.4443   25.5784 C   0  0  0  0  0  0
   -0.1309   51.9299   26.5165 O   0  0  0  0  0  0
    0.1655   52.0781   27.8299 C   0  0  0  0  0  0
    1.1494   52.8595   28.3202 C   0  0  0  0  0  0
    1.3627   52.9034   29.7333 C   0  0  0  0  0  0
    1.5290   52.8963   30.8787 N   0  0  0  0  0  0
   -0.7012   51.2967   28.5403 N   0  0  0  0  0  0
    1.0560   52.1185   21.9599 O   0  0  0  0  0  0
    3.3273   53.8598   22.4975 C   0  0  0  0  0  0
    4.5781   53.9978   22.7034 N   0  0  0  0  0  0
    5.4663   54.4956   21.7342 C   0  0  0  0  0  0
    5.3627   54.1940   20.3624 C   0  0  0  0  0  0
    6.3026   54.6522   19.4318 C   0  0  0  0  0  0
    7.3872   55.4077   19.8828 C   0  0  0  0  0  0
    7.5249   55.6964   21.2369 C   0  0  0  0  0  0
    6.5714   55.2580   22.1521 C   0  0  0  0  0  0
    6.7808   55.6896   23.8210 Cl  0  0  0  0  0  0
    6.1736   54.3158   17.9466 C   0  0  0  0  0  0
    4.9477   53.8985   17.6265 F   0  0  0  0  0  0
    6.4489   55.3905   17.2043 F   0  0  0  0  0  0
    7.0416   53.3531   17.6431 F   0  0  0  0  0  0
    6.7433   53.8195   28.1061 H   0  0  0  0  0  0
    4.8554   52.8978   26.4378 H   0  0  0  0  0  0
    5.3382   55.1719   30.0656 H   0  0  0  0  0  0
    3.4255   54.4297   25.1095 H   0  0  0  0  0  0
   -0.3295   51.4113   24.0415 H   0  0  0  0  0  0
   -0.7198   51.3307   29.5489 H   0  0  0  0  0  0
   -1.1027   50.4657   28.1176 H   0  0  0  0  0  0
    0.3439   51.4798   21.9161 H   0  0  0  0  0  0
    2.8639   54.0963   21.5467 H   0  0  0  0  0  0
    4.5451   53.5786   20.0142 H   0  0  0  0  0  0
    8.1398   55.7495   19.1863 H   0  0  0  0  0  0
    8.3829   56.2534   21.5820 H   0  0  0  0  0  0
  1  5  2  0  0  0
  1  2  1  0  0  0
  1 34  1  0  0  0
  2  3  2  0  0  0
  2 35  1  0  0  0
  3  4  1  0  0  0
  3  6  1  0  0  0
  4  5  1  0  0  0
  5 36  1  0  0  0
  6  7  1  0  0  0
  6 16  1  0  0  0
  6  8  1  0  0  0
  8 13  2  0  0  0
  8  9  1  0  0  0
  9 10  2  0  0  0
  9 37  1  0  0  0
 10 11  1  0  0  0
 10 21  1  0  0  0
 11 12  2  0  0  0
 11 20  1  0  0  0
 12 13  1  0  0  0
 12 38  1  0  0  0
 13 14  1  0  0  0
 14 15  1  0  0  0
 15 16  2  0  0  0
 15 19  1  0  0  0
 16 17  1  0  0  0
 17 18  3  0  0  0
 19 39  1  0  0  0
 19 40  1  0  0  0
 20 41  1  0  0  0
 21 22  2  0  0  0
 21 42  1  0  0  0
 22 23  1  0  0  0
 23 28  2  0  0  0
 23 24  1  0  0  0
 24 25  2  0  0  0
 24 43  1  0  0  0
 25 26  1  0  0  0
 25 30  1  0  0  0
 26 27  2  0  0  0
 26 44  1  0  0  0
 27 28  1  0  0  0
 27 45  1  0  0  0
 28 29  1  0  0  0
 30 31  1  0  0  0
 30 32  1  0  0  0
 30 33  1  0  0  0
M  END
> <i_i_glide_confnum>
3

> <i_i_glide_lignum>
3637

> <i_i_glide_posenum>
191

> <i_i_glide_rotatable_bonds>
6

> <i_m_Source_File_Index>
5517

> <b_m_subgroup_collapsed>
0

> <r_i_docking_score>
-6.46061

> <r_i_glide_ecoul>
-4.10445

> <r_i_glide_eff_state_penalty>
0

> <r_i_glide_einternal>
3.99661

> <r_i_glide_emodel>
-64.8233

> <r_i_glide_energy>
-47.7091

> <r_i_glide_erotb>
0.285547

> <r_i_glide_esite>
-0.127561

> <r_i_glide_evdw>
-43.6046

> <r_i_glide_gscore>
-6.46061

> <r_i_glide_hbond>
-0.135979

> <r_i_glide_ligand_efficiency>
-0.201894

> <r_i_glide_ligand_efficiency_ln>
-1.44671

> <r_i_glide_ligand_efficiency_sa>
-0.640974

> <r_i_glide_lipo>
-2.96759

> <r_i_glide_metal>
0

> <r_i_glide_rewards>
-0.719132

> <s_i_glide_gridfile>
wee1_glide-grid

> <s_m_Source_File>
wee1_decoys_glide_SP.sdf

> <s_m_Source_Path>
/Users/zhangxujun/Desktop

> <s_m_entry_id>
5792

> <s_m_entry_name>
wee1_decoys_glide_SP.5517

> <s_m_subgroup_title>
wee1_decoys_glide_SP

> <s_m_subgroupid>
wee1_decoys_glide_SP


$$$$
