@<TRIPOS>MOLECULE
ZINC14457445_4271
58   61    1
SMALL
USER_CHARGES


@<TRIPOS>ATOM
      1 C1         -7.9264   53.2487   26.8228 C.3       1 UNK         0.0000 
      2 C2         -6.4958   53.5580   27.3005 C.3       1 UNK         0.0000 
      3 C3         -5.3637   52.8894   26.4845 C.3       1 UNK         0.0000 
      4 H4         -4.4135   53.2482   26.8818 H         1 UNK         0.0000 
      5 C5         -5.3884   53.2463   24.9879 C.3       1 UNK         0.0000 
      6 N6         -5.3857   51.4192   26.6476 N.pl3     1 UNK         0.0000 
      7 S7         -4.4196   50.6643   27.9178 S.o2      1 UNK         0.0000 
      8 O8         -4.7803   51.2965   29.1925 O.2       1 UNK         0.0000 
      9 O9         -4.5334   49.2162   27.7254 O.2       1 UNK         0.0000 
     10 C10        -2.7238   51.1169   27.5604 C.ar      1 UNK         0.0000 
     11 C11        -2.3037   51.2217   26.2369 C.ar      1 UNK         0.0000 
     12 C12        -1.0242   51.6813   25.9531 C.ar      1 UNK         0.0000 
     13 C13        -0.1636   52.0475   26.9875 C.ar      1 UNK         0.0000 
     14 C14        -0.5324   51.8782   28.3369 C.ar      1 UNK         0.0000 
     15 C15        -1.8211   51.3838   28.5966 C.ar      1 UNK         0.0000 
     16 C16         0.4456   52.2261   29.4695 C.3       1 UNK         0.0000 
     17 H17         0.7736   51.2967   29.9191 H         1 UNK         0.0000 
     18 C18        -0.0955   53.1794   30.5159 C.2       1 UNK         0.0000 
     19 C19         0.3783   54.4265   30.3417 C.2       1 UNK         0.0000 
     20 C20         1.3414   54.4823   29.1763 C.3       1 UNK         0.0000 
     21 C21         1.6723   52.9992   28.9859 C.3       1 UNK         0.0000 
     22 H22         2.4696   52.7772   29.6982 H         1 UNK         0.0000 
     23 C23         2.1928   52.5516   27.5987 C.3       1 UNK         0.0000 
     24 H24         2.5325   51.5198   27.6922 H         1 UNK         0.0000 
     25 N25         1.1040   52.5194   26.6198 N.pl3     1 UNK         0.0000 
     26 C26         3.4384   53.3294   27.1601 C.ar      1 UNK         0.0000 
     27 C27         3.4888   53.9944   25.9295 C.ar      1 UNK         0.0000 
     28 C28         4.6445   54.6468   25.5243 C.ar      1 UNK         0.0000 
     29 C29         5.7763   54.6900   26.3541 C.ar      1 UNK         0.0000 
     30 C30         5.7121   54.0568   27.6032 C.ar      1 UNK         0.0000 
     31 C31         4.5672   53.3622   27.9858 C.ar      1 UNK         0.0000 
     32 O32         6.7625   54.0963   28.4809 O.3       1 UNK         0.0000 
     33 O33         6.9499   55.3267   25.9979 O.3       1 UNK         0.0000 
     34 C34         7.0770   55.8054   24.6627 C.3       1 UNK         0.0000 
     35 H35        -8.6630   53.7143   27.4787 H         1 UNK         0.0000 
     36 H36        -8.1211   52.1755   26.8210 H         1 UNK         0.0000 
     37 H37        -8.1055   53.6246   25.8148 H         1 UNK         0.0000 
     38 H38        -6.3452   54.6385   27.3014 H         1 UNK         0.0000 
     39 H39        -6.4166   53.2536   28.3451 H         1 UNK         0.0000 
     40 H40        -5.3899   54.3260   24.8396 H         1 UNK         0.0000 
     41 H41        -4.5095   52.8540   24.4753 H         1 UNK         0.0000 
     42 H42        -6.2683   52.8430   24.4845 H         1 UNK         0.0000 
     43 H43        -5.3439   50.9067   25.7645 H         1 UNK         0.0000 
     44 H44        -2.9709   50.9715   25.4259 H         1 UNK         0.0000 
     45 H45        -0.7146   51.7753   24.9224 H         1 UNK         0.0000 
     46 H46        -2.1342   51.2389   29.6213 H         1 UNK         0.0000 
     47 H47        -0.7990   52.8586   31.2730 H         1 UNK         0.0000 
     48 H48         0.1326   55.2969   30.9318 H         1 UNK         0.0000 
     49 H49         2.2391   55.0556   29.4111 H         1 UNK         0.0000 
     50 H50         0.8919   54.9281   28.2875 H         1 UNK         0.0000 
     51 H51         1.4044   52.4282   25.6613 H         1 UNK         0.0000 
     52 H52         2.6435   53.9992   25.2583 H         1 UNK         0.0000 
     53 H53         4.6292   55.1141   24.5529 H         1 UNK         0.0000 
     54 H54         4.5664   52.8508   28.9363 H         1 UNK         0.0000 
     55 H55         7.1280   54.9829   28.6151 H         1 UNK         0.0000 
     56 H56         7.9899   56.3790   24.5584 H         1 UNK         0.0000 
     57 H57         7.1007   54.9873   23.9411 H         1 UNK         0.0000 
     58 H58         6.2793   56.4965   24.4025 H         1 UNK         0.0000 
@<TRIPOS>BOND
     1    1    2 1    
     2    1   35 1    
     3    1   36 1    
     4    1   37 1    
     5    2    3 1    
     6    2   38 1    
     7    2   39 1    
     8    3    4 1    
     9    3    5 1    
    10    3    6 1    
    11    5   40 1    
    12    5   41 1    
    13    5   42 1    
    14    6    7 1    
    15    6   43 1    
    16    7    8 2    
    17    7    9 2    
    18    7   10 1    
    19   10   15 ar   
    20   10   11 ar   
    21   11   12 ar   
    22   11   44 1    
    23   12   13 ar   
    24   12   45 1    
    25   13   25 1    
    26   13   14 ar   
    27   14   15 ar   
    28   14   16 1    
    29   15   46 1    
    30   16   17 1    
    31   16   21 1    
    32   16   18 1    
    33   18   19 2    
    34   18   47 1    
    35   19   20 1    
    36   19   48 1    
    37   20   21 1    
    38   20   49 1    
    39   20   50 1    
    40   21   22 1    
    41   21   23 1    
    42   23   24 1    
    43   23   25 1    
    44   23   26 1    
    45   25   51 1    
    46   26   31 ar   
    47   26   27 ar   
    48   27   28 ar   
    49   27   52 1    
    50   28   29 ar   
    51   28   53 1    
    52   29   30 ar   
    53   29   33 1    
    54   30   31 ar   
    55   30   32 1    
    56   31   54 1    
    57   32   55 1    
    58   33   34 1    
    59   34   56 1    
    60   34   57 1    
    61   34   58 1    
@<TRIPOS>SUBSTRUCTURE
     1 UNK         1 GROUP             0       ****    0 ROOT    
