@<TRIPOS>MOLECULE
ZINC15218244_3569
55   58    1
SMALL
USER_CHARGES


@<TRIPOS>ATOM
      1 C1          2.6589   52.4071   29.4277 C.3       1 UNK         0.0000 
      2 C2          1.8167   53.5987   28.8995 C.3       1 UNK         0.0000 
      3 C3          0.3998   53.4846   29.5209 C.3       1 UNK         0.0000 
      4 C4          2.4472   54.9226   29.4056 C.3       1 UNK         0.0000 
      5 C5          1.7365   53.6286   27.3284 C.3       1 UNK         0.0000 
      6 H6          1.1225   54.4886   27.0837 H         1 UNK         0.0000 
      7 C7          3.1018   53.9087   26.6464 C.3       1 UNK         0.0000 
      8 C8          3.0627   53.6946   25.1422 C.2       1 UNK         0.0000 
      9 C9          2.0761   53.0828   24.4411 C.2       1 UNK         0.0000 
     10 C10         0.8220   52.5415   25.1508 C.3       1 UNK         0.0000 
     11 H11         0.0500   53.2969   25.0039 H         1 UNK         0.0000 
     12 C12         1.0700   52.3902   26.6787 C.3       1 UNK         0.0000 
     13 C13         0.3207   51.2230   24.4742 C.3       1 UNK         0.0000 
     14 H14         1.0946   50.4782   24.6729 H         1 UNK         0.0000 
     15 C15         0.1908   51.3556   22.9132 C.3       1 UNK         0.0000 
     16 C16         1.3256   52.1737   22.2737 C.2       1 UNK         0.0000 
     17 C17         2.1811   52.9378   22.9885 C.2       1 UNK         0.0000 
     18 C18         3.2299   53.6236   22.2903 C.1       1 UNK         0.0000 
     19 N19         4.1009   54.1464   21.7367 N.1       1 UNK         0.0000 
     20 N20         1.3840   52.0970   20.8965 N.pl3     1 UNK         0.0000 
     21 C21        -1.0863   51.9975   22.5679 C.1       1 UNK         0.0000 
     22 N22        -2.0968   52.4927   22.2999 N.1       1 UNK         0.0000 
     23 C23         0.1635   50.0160   22.2906 C.1       1 UNK         0.0000 
     24 N24         0.1401   48.9729   21.7892 N.1       1 UNK         0.0000 
     25 C25        -0.9894   50.7079   25.0901 C.ar      1 UNK         0.0000 
     26 C26        -2.0096   51.4574   25.6617 C.ar      1 UNK         0.0000 
     27 N27        -3.0646   50.6572   26.0106 N.pl3     1 UNK         0.0000 
     28 H28        -3.9120   51.0130   26.4283 H         1 UNK         0.0000 
     29 C29        -2.7850   49.3535   25.6812 C.ar      1 UNK         0.0000 
     30 C30        -1.4631   49.3415   25.1332 C.ar      1 UNK         0.0000 
     31 C31        -0.9226   48.1050   24.7395 C.ar      1 UNK         0.0000 
     32 C32        -1.6973   46.9516   24.8612 C.ar      1 UNK         0.0000 
     33 C33        -2.9863   47.0009   25.3825 C.ar      1 UNK         0.0000 
     34 C34        -3.5608   48.1966   25.8079 C.ar      1 UNK         0.0000 
     35 H35         2.6937   52.4050   30.5180 H         1 UNK         0.0000 
     36 H36         3.6922   52.4372   29.0827 H         1 UNK         0.0000 
     37 H37         2.2389   51.4483   29.1235 H         1 UNK         0.0000 
     38 H38        -0.2793   54.2254   29.1020 H         1 UNK         0.0000 
     39 H39        -0.0469   52.5023   29.3613 H         1 UNK         0.0000 
     40 H40         0.4189   53.6386   30.6005 H         1 UNK         0.0000 
     41 H41         1.9680   55.7955   28.9586 H         1 UNK         0.0000 
     42 H42         2.3440   55.0333   30.4810 H         1 UNK         0.0000 
     43 H43         3.5135   54.9839   29.1834 H         1 UNK         0.0000 
     44 H44         3.4049   54.9403   26.8296 H         1 UNK         0.0000 
     45 H45         3.8924   53.2816   27.0526 H         1 UNK         0.0000 
     46 H46         3.9315   54.0537   24.6081 H         1 UNK         0.0000 
     47 H47         1.6348   51.4868   26.8946 H         1 UNK         0.0000 
     48 H48         0.1115   52.2115   27.1605 H         1 UNK         0.0000 
     49 H49         0.7720   51.4924   20.3657 H         1 UNK         0.0000 
     50 H50         2.0300   52.6722   20.3725 H         1 UNK         0.0000 
     51 H51        -2.0816   52.5229   25.8290 H         1 UNK         0.0000 
     52 H52         0.0802   48.0446   24.3442 H         1 UNK         0.0000 
     53 H53        -1.2933   46.0036   24.5467 H         1 UNK         0.0000 
     54 H54        -3.5574   46.0901   25.4719 H         1 UNK         0.0000 
     55 H55        -4.5557   48.2194   26.2254 H         1 UNK         0.0000 
@<TRIPOS>BOND
     1    1    2 1    
     2    1   35 1    
     3    1   36 1    
     4    1   37 1    
     5    2    3 1    
     6    2    4 1    
     7    2    5 1    
     8    3   38 1    
     9    3   39 1    
    10    3   40 1    
    11    4   41 1    
    12    4   42 1    
    13    4   43 1    
    14    5    6 1    
    15    5   12 1    
    16    5    7 1    
    17    7    8 1    
    18    7   44 1    
    19    7   45 1    
    20    8    9 2    
    21    8   46 1    
    22    9   17 1    
    23    9   10 1    
    24   10   11 1    
    25   10   12 1    
    26   10   13 1    
    27   12   47 1    
    28   12   48 1    
    29   13   14 1    
    30   13   15 1    
    31   13   25 1    
    32   15   16 1    
    33   15   21 1    
    34   15   23 1    
    35   16   17 2    
    36   16   20 1    
    37   17   18 1    
    38   18   19 3    
    39   20   49 1    
    40   20   50 1    
    41   21   22 3    
    42   23   24 3    
    43   25   30 ar   
    44   25   26 ar   
    45   26   27 ar   
    46   26   51 1    
    47   27   28 1    
    48   27   29 ar   
    49   29   34 ar   
    50   29   30 ar   
    51   30   31 ar   
    52   31   32 ar   
    53   31   52 1    
    54   32   33 ar   
    55   32   53 1    
    56   33   34 ar   
    57   33   54 1    
    58   34   55 1    
@<TRIPOS>SUBSTRUCTURE
     1 UNK         1 GROUP             0       ****    0 ROOT    
