@<TRIPOS>MOLECULE
ZINC65920996_4713
35   36    1
SMALL
USER_CHARGES


@<TRIPOS>ATOM
      1 C1          4.6979   54.4966   19.7788 C.ar      1 UNK         0.0000 
      2 C2          5.7412   54.7509   20.6865 C.ar      1 UNK         0.0000 
      3 C3          6.9345   55.3270   20.1798 C.ar      1 UNK         0.0000 
      4 C4          7.0430   55.6284   18.8200 C.ar      1 UNK         0.0000 
      5 C5          5.9901   55.3760   17.9462 C.ar      1 UNK         0.0000 
      6 C6          4.8144   54.8089   18.4264 C.ar      1 UNK         0.0000 
      7 F7          3.7824   54.5655   17.5866 F         1 UNK         0.0000 
      8 F8          6.1167   55.6819   16.6342 F         1 UNK         0.0000 
      9 Cl9         8.3227   55.6989   21.1476 Cl        1 UNK         0.0000 
     10 C10         5.5082   54.4011   22.1467 C.2       1 UNK         0.0000 
     11 O11         4.3579   54.3473   22.5913 O.2       1 UNK         0.0000 
     12 N12         6.6019   54.0945   22.8819 N.am      1 UNK         0.0000 
     13 N13         6.4762   53.6970   24.2136 N.am      1 UNK         0.0000 
     14 C14         6.2657   54.6040   25.1858 C.2       1 UNK         0.0000 
     15 O15         6.3326   55.8238   25.0359 O.2       1 UNK         0.0000 
     16 N16         5.9578   54.0110   26.3504 N.am      1 UNK         0.0000 
     17 C17         5.1973   54.6520   27.4233 C.3       1 UNK         0.0000 
     18 C18         3.6796   54.4957   27.2485 C.3       1 UNK         0.0000 
     19 C19         3.2921   53.2415   28.0424 C.3       1 UNK         0.0000 
     20 C20         4.4848   52.9120   28.9576 C.3       1 UNK         0.0000 
     21 C21         5.4986   54.0473   28.7852 C.3       1 UNK         0.0000 
     22 H22         3.7706   54.0550   20.1150 H         1 UNK         0.0000 
     23 H23         7.9531   56.0645   18.4349 H         1 UNK         0.0000 
     24 H24         7.5302   54.4331   22.6699 H         1 UNK         0.0000 
     25 H25         6.3171   52.7050   24.3193 H         1 UNK         0.0000 
     26 H26         6.0358   53.0064   26.4152 H         1 UNK         0.0000 
     27 H27         5.5062   55.6965   27.4133 H         1 UNK         0.0000 
     28 H28         3.1757   55.3438   27.7084 H         1 UNK         0.0000 
     29 H29         3.3582   54.4827   26.2056 H         1 UNK         0.0000 
     30 H30         2.3824   53.4076   28.6229 H         1 UNK         0.0000 
     31 H31         3.0876   52.4105   27.3649 H         1 UNK         0.0000 
     32 H32         4.1839   52.7959   30.0008 H         1 UNK         0.0000 
     33 H33         4.9455   51.9738   28.6539 H         1 UNK         0.0000 
     34 H34         6.5406   53.7386   28.8844 H         1 UNK         0.0000 
     35 H35         5.3314   54.8050   29.5525 H         1 UNK         0.0000 
@<TRIPOS>BOND
     1    1    6 ar   
     2    1    2 ar   
     3    1   22 1    
     4    2    3 ar   
     5    2   10 1    
     6    3    4 ar   
     7    3    9 1    
     8    4    5 ar   
     9    4   23 1    
    10    5    6 ar   
    11    5    8 1    
    12    6    7 1    
    13   10   11 2    
    14   10   12 am   BACKBONE|DICT|INTERRES
    15   12   13 1    
    16   12   24 1    
    17   13   14 am   BACKBONE|DICT|INTERRES
    18   13   25 1    
    19   14   15 2    
    20   14   16 am   BACKBONE|DICT|INTERRES
    21   16   17 1    
    22   16   26 1    
    23   17   21 1    
    24   17   18 1    
    25   17   27 1    
    26   18   19 1    
    27   18   28 1    
    28   18   29 1    
    29   19   20 1    
    30   19   30 1    
    31   19   31 1    
    32   20   21 1    
    33   20   32 1    
    34   20   33 1    
    35   21   34 1    
    36   21   35 1    
@<TRIPOS>SUBSTRUCTURE
     1 UNK         1 GROUP             0       ****    0 ROOT    
