@<TRIPOS>MOLECULE
ZINC38547534_5101
62   65    1
SMALL
USER_CHARGES


@<TRIPOS>ATOM
      1 C1         -3.5690   49.4660   26.6723 C.3       1 UNK         0.0000 
      2 C2         -2.5781   48.8240   25.7096 C.2       1 UNK         0.0000 
      3 C3         -2.9156   47.6809   24.9689 C.2       1 UNK         0.0000 
      4 S4         -1.6951   47.3126   23.8108 S.3       1 UNK         0.0000 
      5 C5         -0.7850   48.7180   24.2641 C.2       1 UNK         0.0000 
      6 C6         -1.2652   49.3198   25.4342 C.2       1 UNK         0.0000 
      7 C7         -0.4966   50.4432   26.1912 C.3       1 UNK         0.0000 
      8 H8          0.4553   50.0144   26.5109 H         1 UNK         0.0000 
      9 C9         -0.1696   51.6208   25.3008 C.ar      1 UNK         0.0000 
     10 C10         1.1381   52.1291   25.2738 C.ar      1 UNK         0.0000 
     11 C11         1.4689   53.2167   24.4683 C.ar      1 UNK         0.0000 
     12 C12         0.4728   53.7613   23.6818 C.ar      1 UNK         0.0000 
     13 C13        -0.8418   53.2971   23.7560 C.ar      1 UNK         0.0000 
     14 C14        -1.1877   52.2294   24.5644 C.ar      1 UNK         0.0000 
     15 O15        -2.4873   51.7811   24.7100 O.3       1 UNK         0.0000 
     16 C16        -3.5213   52.2919   23.8795 C.3       1 UNK         0.0000 
     17 O17         2.7173   53.7957   24.4005 O.3       1 UNK         0.0000 
     18 C18         3.4855   53.8707   25.5953 C.3       1 UNK         0.0000 
     19 N19        -1.0734   50.8967   27.4728 N.pl3     1 UNK         0.0000 
     20 C20        -0.4919   51.8173   28.3854 C.ar      1 UNK         0.0000 
     21 C21        -0.7723   51.6988   29.7448 C.ar      1 UNK         0.0000 
     22 C22        -0.2117   52.6148   30.6385 C.ar      1 UNK         0.0000 
     23 C23         0.6088   53.6457   30.1731 C.ar      1 UNK         0.0000 
     24 C24         0.8684   53.7325   28.8055 C.ar      1 UNK         0.0000 
     25 N25         0.3131   52.8220   27.9801 N.pl3     1 UNK         0.0000 
     26 N26         0.2934   49.1456   23.4971 N.am      1 UNK         0.0000 
     27 C27         0.2355   49.2988   22.1499 C.2       1 UNK         0.0000 
     28 O28        -0.7246   48.9449   21.4581 O.2       1 UNK         0.0000 
     29 C29         1.4287   49.9397   21.4787 C.ar      1 UNK         0.0000 
     30 C30         1.6195   49.7755   20.0983 C.ar      1 UNK         0.0000 
     31 C31         2.6464   50.4457   19.4422 C.ar      1 UNK         0.0000 
     32 C32         3.4893   51.2891   20.1579 C.ar      1 UNK         0.0000 
     33 C33         3.3299   51.4490   21.5278 C.ar      1 UNK         0.0000 
     34 C34         2.3121   50.7660   22.1881 C.ar      1 UNK         0.0000 
     35 C35        -4.1557   46.8138   25.0323 C.3       1 UNK         0.0000 
     36 H36        -3.5449   50.5528   26.6155 H         1 UNK         0.0000 
     37 H37        -4.6061   49.2081   26.4556 H         1 UNK         0.0000 
     38 H38        -3.3675   49.2083   27.7093 H         1 UNK         0.0000 
     39 H39         1.8999   51.7000   25.8984 H         1 UNK         0.0000 
     40 H40         0.7124   54.6222   23.0776 H         1 UNK         0.0000 
     41 H41        -1.6331   53.8442   23.2816 H         1 UNK         0.0000 
     42 H42        -4.4446   51.7499   24.0837 H         1 UNK         0.0000 
     43 H43        -3.7095   53.3486   24.0703 H         1 UNK         0.0000 
     44 H44        -3.2851   52.1487   22.8258 H         1 UNK         0.0000 
     45 H45         4.3803   54.4623   25.4055 H         1 UNK         0.0000 
     46 H46         2.9308   54.3646   26.3934 H         1 UNK         0.0000 
     47 H47         3.8121   52.8963   25.9501 H         1 UNK         0.0000 
     48 H48        -1.7168   50.2183   27.8691 H         1 UNK         0.0000 
     49 H49        -1.4112   50.9061   30.1175 H         1 UNK         0.0000 
     50 H50        -0.4615   52.5414   31.6821 H         1 UNK         0.0000 
     51 H51         1.0197   54.3680   30.8640 H         1 UNK         0.0000 
     52 H52         1.4804   54.4970   28.3454 H         1 UNK         0.0000 
     53 H53         1.0289   49.6347   23.9816 H         1 UNK         0.0000 
     54 H54         0.9648   49.1421   19.5166 H         1 UNK         0.0000 
     55 H55         2.7960   50.3133   18.3793 H         1 UNK         0.0000 
     56 H56         4.2875   51.8039   19.6435 H         1 UNK         0.0000 
     57 H57         3.9933   52.1031   22.0744 H         1 UNK         0.0000 
     58 H58         2.2150   50.9099   23.2501 H         1 UNK         0.0000 
     59 H59        -4.7690   47.0177   25.9092 H         1 UNK         0.0000 
     60 H60        -4.7894   46.9590   24.1573 H         1 UNK         0.0000 
     61 H61        -3.9038   45.7563   25.0750 H         1 UNK         0.0000 
     62 H62         0.4878   52.8887   26.9863 H         1 UNK         0.0000 
@<TRIPOS>BOND
     1    1    2 1    
     2    1   36 1    
     3    1   37 1    
     4    1   38 1    
     5    2    6 1    
     6    2    3 2    
     7    3    4 1    
     8    3   35 1    
     9    4    5 1    
    10    5    6 2    
    11    5   26 am   BACKBONE|DICT|INTERRES
    12    6    7 1    
    13    7    8 1    
    14    7    9 1    
    15    7   19 1    
    16    9   14 ar   
    17    9   10 ar   
    18   10   11 ar   
    19   10   39 1    
    20   11   12 ar   
    21   11   17 1    
    22   12   13 ar   
    23   12   40 1    
    24   13   14 ar   
    25   13   41 1    
    26   14   15 1    
    27   15   16 1    
    28   16   42 1    
    29   16   43 1    
    30   16   44 1    
    31   17   18 1    
    32   18   45 1    
    33   18   46 1    
    34   18   47 1    
    35   19   20 1    
    36   19   48 1    
    37   20   25 ar   
    38   20   21 ar   
    39   21   22 ar   
    40   21   49 1    
    41   22   23 ar   
    42   22   50 1    
    43   23   24 ar   
    44   23   51 1    
    45   24   25 ar   
    46   24   52 1    
    47   25   62 1    
    48   26   27 am   BACKBONE|DICT|INTERRES
    49   26   53 1    
    50   27   28 2    
    51   27   29 1    
    52   29   34 ar   
    53   29   30 ar   
    54   30   31 ar   
    55   30   54 1    
    56   31   32 ar   
    57   31   55 1    
    58   32   33 ar   
    59   32   56 1    
    60   33   34 ar   
    61   33   57 1    
    62   34   58 1    
    63   35   59 1    
    64   35   60 1    
    65   35   61 1    
@<TRIPOS>SUBSTRUCTURE
     1 UNK         1 GROUP             0       ****    0 ROOT    
