ZINC35397563_3293
                    3D
 Schrodinger Suite 2024-2.
 59 62  0  0  1  0            999 V2000
   -3.2410   46.3106   19.3377 C   0  0  0  0  0  0
   -3.7503   45.4986   20.3512 C   0  0  0  0  0  0
   -2.9622   44.4860   20.8997 C   0  0  0  0  0  0
   -1.6611   44.2841   20.4363 C   0  0  0  0  0  0
   -1.1519   45.0969   19.4260 C   0  0  0  0  0  0
   -1.9375   46.1151   18.8725 C   0  0  0  0  0  0
   -1.2853   47.1244   17.5353 S   0  0  0  0  0  0
   -1.1415   46.1665   16.4351 O   0  0  0  0  0  0
   -2.2513   48.2119   17.3506 O   0  0  0  0  0  0
    0.0937   47.5427   18.1585 N   0  5  0  0  0  0
    0.2843   48.4937   19.1277 C   0  0  0  0  0  0
   -0.6175   49.5008   19.5288 C   0  0  0  0  0  0
   -0.3245   50.3749   20.5926 C   0  0  0  0  0  0
    0.9276   50.2324   21.2421 C   0  0  0  0  0  0
    1.7748   49.2746   20.8157 N   0  3  0  0  0  0
    1.5045   48.4356   19.8035 C   0  0  0  0  0  0
    1.4009   51.0698   22.2922 N   0  0  0  0  0  0
    1.7796   52.4762   22.0552 C   0  0  0  0  0  0
    1.1046   53.4136   23.0705 C   0  0  0  0  0  0
    1.3027   53.0422   24.5510 C   0  0  0  0  0  0
    0.8824   51.5591   24.7161 C   0  0  0  0  0  0
    1.5043   50.5779   23.6819 C   0  0  0  0  0  0
    2.7788   53.2247   25.0291 N   0  3  0  0  0  0
    2.7847   53.4288   26.5730 C   0  0  0  0  0  0
    4.2329   53.4771   27.0992 C   0  0  0  0  0  0
    5.0787   54.5412   26.3854 C   0  0  0  0  0  0
    5.0126   54.3897   24.8600 C   0  0  0  0  0  0
    3.5655   54.3697   24.3391 C   0  0  0  0  0  0
   -1.3437   51.4049   20.9886 C   0  0  0  0  0  0
   -1.5407   51.5913   22.2107 O   0  0  0  0  0  0
   -1.9555   52.0124   20.0809 O   0  5  0  0  0  0
   -0.8948   43.2968   20.9572 F   0  0  0  0  0  0
   -3.4653   43.6956   21.8749 F   0  0  0  0  0  0
   -3.8642   47.0874   18.9156 H   0  0  0  0  0  0
   -4.7605   45.6507   20.7090 H   0  0  0  0  0  0
   -0.1495   44.9350   19.0595 H   0  0  0  0  0  0
   -1.5678   49.6113   19.0322 H   0  0  0  0  0  0
    2.2838   47.7224   19.5670 H   0  0  0  0  0  0
    2.8670   52.5338   22.0323 H   0  0  0  0  0  0
    1.4393   52.7491   21.0534 H   0  0  0  0  0  0
    1.3866   54.4438   22.8533 H   0  0  0  0  0  0
    0.0368   53.3152   22.8830 H   0  0  0  0  0  0
    0.6977   53.6964   25.1732 H   0  0  0  0  0  0
   -0.2002   51.4984   24.5908 H   0  0  0  0  0  0
    1.0988   51.1847   25.7155 H   0  0  0  0  0  0
    0.9561   49.6349   23.7375 H   0  0  0  0  0  0
    2.5457   50.3284   23.8710 H   0  0  0  0  0  0
    2.2367   54.3460   26.7942 H   0  0  0  0  0  0
    2.2680   52.5810   27.0230 H   0  0  0  0  0  0
    4.2220   53.6799   28.1712 H   0  0  0  0  0  0
    4.7023   52.4981   26.9913 H   0  0  0  0  0  0
    6.1143   54.4864   26.7257 H   0  0  0  0  0  0
    4.7207   55.5337   26.6593 H   0  0  0  0  0  0
    5.5224   53.4731   24.5566 H   0  0  0  0  0  0
    5.5618   55.2036   24.3854 H   0  0  0  0  0  0
    3.5996   54.1729   23.2697 H   0  0  0  0  0  0
    3.0228   55.2964   24.5257 H   0  0  0  0  0  0
    2.6767   49.2003   21.2669 H   0  0  0  0  0  0
    3.2600   52.3577   24.8343 H   0  0  0  0  0  0
  1  6  2  0  0  0
  1  2  1  0  0  0
  1 34  1  0  0  0
  2  3  2  0  0  0
  2 35  1  0  0  0
  3  4  1  0  0  0
  3 33  1  0  0  0
  4  5  2  0  0  0
  4 32  1  0  0  0
  5  6  1  0  0  0
  5 36  1  0  0  0
  6  7  1  0  0  0
  7  8  2  0  0  0
  7  9  2  0  0  0
  7 10  1  0  0  0
 10 11  1  0  0  0
 11 16  2  0  0  0
 11 12  1  0  0  0
 12 13  2  0  0  0
 12 37  1  0  0  0
 13 14  1  0  0  0
 13 29  1  0  0  0
 14 15  2  0  0  0
 14 17  1  0  0  0
 15 16  1  0  0  0
 15 58  1  0  0  0
 16 38  1  0  0  0
 17 22  1  0  0  0
 17 18  1  0  0  0
 18 19  1  0  0  0
 18 39  1  0  0  0
 18 40  1  0  0  0
 19 20  1  0  0  0
 19 41  1  0  0  0
 19 42  1  0  0  0
 20 21  1  0  0  0
 20 23  1  0  0  0
 20 43  1  0  0  0
 21 22  1  0  0  0
 21 44  1  0  0  0
 21 45  1  0  0  0
 22 46  1  0  0  0
 22 47  1  0  0  0
 23 28  1  0  0  0
 23 24  1  0  0  0
 23 59  1  0  0  0
 24 25  1  0  0  0
 24 48  1  0  0  0
 24 49  1  0  0  0
 25 26  1  0  0  0
 25 50  1  0  0  0
 25 51  1  0  0  0
 26 27  1  0  0  0
 26 52  1  0  0  0
 26 53  1  0  0  0
 27 28  1  0  0  0
 27 54  1  0  0  0
 27 55  1  0  0  0
 28 56  1  0  0  0
 28 57  1  0  0  0
 29 30  2  0  0  0
 29 31  1  0  0  0
M  CHG  4  10  -1  15   1  23   1  31  -1
M  END
> <i_i_glide_confnum>
376

> <i_i_glide_lignum>
3294

> <i_i_glide_posenum>
269

> <i_i_glide_rotatable_bonds>
6

> <i_m_Source_File_Index>
2530

> <b_m_subgroup_collapsed>
0

> <r_i_docking_score>
-2.80024

> <r_i_glide_ecoul>
-3.71169

> <r_i_glide_eff_state_penalty>
0

> <r_i_glide_einternal>
9.36573

> <r_i_glide_emodel>
-28.0844

> <r_i_glide_energy>
-29.1579

> <r_i_glide_erotb>
0.439129

> <r_i_glide_esite>
-0.173176

> <r_i_glide_evdw>
-25.4462

> <r_i_glide_gscore>
-2.80024

> <r_i_glide_hbond>
-0.121803

> <r_i_glide_ligand_efficiency>
-0.0848558

> <r_i_glide_ligand_efficiency_ln>
-0.622759

> <r_i_glide_ligand_efficiency_sa>
-0.272178

> <r_i_glide_lipo>
-1.56511

> <r_i_glide_metal>
0

> <r_i_glide_rewards>
0.449784

> <s_i_glide_gridfile>
wee1_glide-grid

> <s_m_Source_File>
wee1_decoys_glide_SP.sdf

> <s_m_Source_Path>
/Users/zhangxujun/Desktop

> <s_m_entry_id>
2805

> <s_m_entry_name>
wee1_decoys_glide_SP.2530

> <s_m_subgroup_title>
wee1_decoys_glide_SP

> <s_m_subgroupid>
wee1_decoys_glide_SP


$$$$
