@<TRIPOS>MOLECULE
ZINC35056780_3387
64   68    1
SMALL
USER_CHARGES


@<TRIPOS>ATOM
      1 C1         -5.2448   52.4985   24.3800 C.3       1 UNK         0.0000 
      2 C2         -4.0272   52.9254   25.1868 C.2       1 UNK         0.0000 
      3 O3         -4.1459   53.7593   26.0827 O.2       1 UNK         0.0000 
      4 N4         -2.8826   52.2849   24.9024 N.am      1 UNK         0.0000 
      5 C5         -1.6978   52.2239   25.7673 C.3       1 UNK         0.0000 
      6 H6         -1.7886   53.0079   26.5233 H         1 UNK         0.0000 
      7 C7         -1.6504   50.8613   26.4878 C.3       1 UNK         0.0000 
      8 H8         -2.6569   50.6060   26.8278 H         1 UNK         0.0000 
      9 C9         -1.1806   49.7475   25.5270 C.3       1 UNK         0.0000 
     10 H10        -0.9781   48.8409   26.0982 H         1 UNK         0.0000 
     11 C11         0.0920   50.1671   24.7586 C.3       1 UNK         0.0000 
     12 H12         0.9298   50.1693   25.4535 H         1 UNK         0.0000 
     13 C13         0.3471   49.1270   23.6499 C.3       1 UNK         0.0000 
     14 O14        -0.8297   48.8278   22.9043 O.3       1 UNK         0.0000 
     15 C15        -1.8971   48.4275   23.7242 C.3       1 UNK         0.0000 
     16 H16        -1.6034   47.5523   24.3219 H         1 UNK         0.0000 
     17 O17        -2.2379   49.4693   24.5986 O.3       1 UNK         0.0000 
     18 C18        -3.0712   48.1627   22.8500 C.2       1 UNK         0.0000 
     19 C19        -4.3681   48.6564   22.8227 C.2       1 UNK         0.0000 
     20 C20        -5.0117   48.0426   21.7516 C.2       1 UNK         0.0000 
     21 C21        -4.0830   47.1810   21.1865 C.2       1 UNK         0.0000 
     22 O22        -2.9035   47.2532   21.8550 O.3       1 UNK         0.0000 
     23 O23        -0.0728   51.4518   24.1353 O.3       1 UNK         0.0000 
     24 C24        -0.3644   52.4975   25.0338 C.3       1 UNK         0.0000 
     25 H25        -0.4611   53.3838   24.4183 H         1 UNK         0.0000 
     26 O26         0.6353   52.6658   26.0084 O.3       1 UNK         0.0000 
     27 C27         1.8426   53.2784   25.7203 C.ar      1 UNK         0.0000 
     28 C28         2.1681   53.8579   24.4917 C.ar      1 UNK         0.0000 
     29 C29         3.4191   54.4377   24.3072 C.ar      1 UNK         0.0000 
     30 C30         4.3992   54.3872   25.3114 C.ar      1 UNK         0.0000 
     31 C31         4.0467   53.8487   26.5547 C.ar      1 UNK         0.0000 
     32 C32         2.7796   53.3013   26.7529 C.ar      1 UNK         0.0000 
     33 C33         5.7998   54.9280   25.1167 C.2       1 UNK         0.0000 
     34 O34         6.5614   55.0865   26.0716 O.2       1 UNK         0.0000 
     35 C35         6.3129   55.2691   23.7896 C.2       1 UNK         0.0000 
     36 C36         5.9877   54.6184   22.6525 C.2       1 UNK         0.0000 
     37 C37         6.4314   54.9756   21.2980 C.ar      1 UNK         0.0000 
     38 C38         5.6322   54.6012   20.2167 C.ar      1 UNK         0.0000 
     39 C39         6.0207   54.9135   18.9171 C.ar      1 UNK         0.0000 
     40 C40         7.2078   55.6092   18.6999 C.ar      1 UNK         0.0000 
     41 C41         8.0063   56.0016   19.7699 C.ar      1 UNK         0.0000 
     42 C42         7.6104   55.6912   21.0672 C.ar      1 UNK         0.0000 
     43 O43        -0.9268   50.8965   27.6992 O.3       1 UNK         0.0000 
     44 H44        -4.9537   52.0956   23.3990 H         1 UNK         0.0000 
     45 H45        -5.7991   51.7276   24.9190 H         1 UNK         0.0000 
     46 H46        -5.9030   53.3518   24.2100 H         1 UNK         0.0000 
     47 H47        -2.8822   51.6166   24.1375 H         1 UNK         0.0000 
     48 H48         1.1196   49.4663   22.9606 H         1 UNK         0.0000 
     49 H49         0.7048   48.1896   24.0829 H         1 UNK         0.0000 
     50 H50        -4.7843   49.3831   23.5010 H         1 UNK         0.0000 
     51 H51        -6.0355   48.1893   21.4369 H         1 UNK         0.0000 
     52 H52        -4.1217   46.5026   20.3487 H         1 UNK         0.0000 
     53 H53         1.4753   53.8783   23.6646 H         1 UNK         0.0000 
     54 H54         3.5903   54.8968   23.3439 H         1 UNK         0.0000 
     55 H55         4.7560   53.8071   27.3683 H         1 UNK         0.0000 
     56 H56         2.5305   52.8576   27.7062 H         1 UNK         0.0000 
     57 H57         7.0071   56.0970   23.7764 H         1 UNK         0.0000 
     58 H58         5.3519   53.7445   22.7004 H         1 UNK         0.0000 
     59 H59         4.7121   54.0538   20.3735 H         1 UNK         0.0000 
     60 H60         5.3998   54.6188   18.0837 H         1 UNK         0.0000 
     61 H61         7.5074   55.8467   17.6893 H         1 UNK         0.0000 
     62 H62         8.9274   56.5389   19.5971 H         1 UNK         0.0000 
     63 H63         8.2406   55.9968   21.8855 H         1 UNK         0.0000 
     64 H64        -1.0097   50.0001   28.0823 H         1 UNK         0.0000 
@<TRIPOS>BOND
     1    1    2 1    
     2    1   44 1    
     3    1   45 1    
     4    1   46 1    
     5    2    3 2    
     6    2    4 am   BACKBONE|DICT|INTERRES
     7    4    5 1    
     8    4   47 1    
     9    5    6 1    
    10    5   24 1    
    11    5    7 1    
    12    7    8 1    
    13    7    9 1    
    14    7   43 1    
    15    9   10 1    
    16    9   17 1    
    17    9   11 1    
    18   11   12 1    
    19   11   13 1    
    20   11   23 1    
    21   13   14 1    
    22   13   48 1    
    23   13   49 1    
    24   14   15 1    
    25   15   16 1    
    26   15   17 1    
    27   15   18 1    
    28   18   22 1    
    29   18   19 2    
    30   19   20 1    
    31   19   50 1    
    32   20   21 2    
    33   20   51 1    
    34   21   22 1    
    35   21   52 1    
    36   23   24 1    
    37   24   25 1    
    38   24   26 1    
    39   26   27 1    
    40   27   32 ar   
    41   27   28 ar   
    42   28   29 ar   
    43   28   53 1    
    44   29   30 ar   
    45   29   54 1    
    46   30   31 ar   
    47   30   33 1    
    48   31   32 ar   
    49   31   55 1    
    50   32   56 1    
    51   33   34 2    
    52   33   35 1    
    53   35   36 2    
    54   35   57 1    
    55   36   37 1    
    56   36   58 1    
    57   37   42 ar   
    58   37   38 ar   
    59   38   39 ar   
    60   38   59 1    
    61   39   40 ar   
    62   39   60 1    
    63   40   41 ar   
    64   40   61 1    
    65   41   42 ar   
    66   41   62 1    
    67   42   63 1    
    68   43   64 1    
@<TRIPOS>SUBSTRUCTURE
     1 UNK         1 GROUP             0       ****    0 ROOT    
