@<TRIPOS>MOLECULE
ZINC08919164_3455
62   65    1
SMALL
USER_CHARGES


@<TRIPOS>ATOM
      1 C1          6.6340   56.4093   17.0670 C.3       1 UNK         0.0000 
      2 C2          5.9683   55.9494   18.3777 C.3       1 UNK         0.0000 
      3 H3          5.2471   56.7257   18.6454 H         1 UNK         0.0000 
      4 C4          5.2694   54.5908   18.2037 C.3       1 UNK         0.0000 
      5 C5          4.3934   54.2376   19.4229 C.3       1 UNK         0.0000 
      6 C6          5.1639   54.4713   20.7382 C.2       1 UNK         0.0000 
      7 C7          6.3589   55.2148   20.7319 C.2       1 UNK         0.0000 
      8 S8          7.0942   55.2972   22.2863 S.3       1 UNK         0.0000 
      9 C9          5.7699   54.4244   23.0084 C.2       1 UNK         0.0000 
     10 C10         4.8172   54.0069   22.0498 C.2       1 UNK         0.0000 
     11 C11         3.5910   53.3018   22.4285 C.2       1 UNK         0.0000 
     12 O12         3.1205   53.4219   23.5636 O.2       1 UNK         0.0000 
     13 N13         3.0880   52.4752   21.4872 N.am      1 UNK         0.0000 
     14 C14         2.0633   51.5177   21.6071 C.ar      1 UNK         0.0000 
     15 C15         1.6394   50.9696   22.8314 C.ar      1 UNK         0.0000 
     16 C16         0.6317   50.0035   22.8614 C.ar      1 UNK         0.0000 
     17 C17         0.0370   49.5778   21.6737 C.ar      1 UNK         0.0000 
     18 C18         0.4492   50.1188   20.4567 C.ar      1 UNK         0.0000 
     19 C19         1.4593   51.0811   20.4189 C.ar      1 UNK         0.0000 
     20 F20         1.8430   51.5888   19.2224 F         1 UNK         0.0000 
     21 N21         5.7621   54.0968   24.3645 N.am      1 UNK         0.0000 
     22 C22         6.4294   54.6734   25.3847 C.2       1 UNK         0.0000 
     23 O23         7.1021   55.6966   25.2893 O.2       1 UNK         0.0000 
     24 C24         6.3559   53.9842   26.7556 C.3       1 UNK         0.0000 
     25 C25         3.8788   53.3884   27.0200 C.3       1 UNK         0.0000 
     26 C26         2.5476   54.1491   27.1480 C.3       1 UNK         0.0000 
     27 C27         1.7562   53.8305   28.4064 C.ar      1 UNK         0.0000 
     28 C28         1.1894   52.5613   28.5572 C.ar      1 UNK         0.0000 
     29 C29         0.4211   52.2717   29.6809 C.ar      1 UNK         0.0000 
     30 C30         0.2262   53.2488   30.6546 C.ar      1 UNK         0.0000 
     31 C31         0.7778   54.5190   30.5033 C.ar      1 UNK         0.0000 
     32 C32         1.5492   54.8126   29.3805 C.ar      1 UNK         0.0000 
     33 C33         7.0207   55.8327   19.5032 C.3       1 UNK         0.0000 
     34 H34         7.3786   55.6908   16.7179 H         1 UNK         0.0000 
     35 H35         5.8970   56.5304   16.2705 H         1 UNK         0.0000 
     36 H36         7.1329   57.3726   17.1902 H         1 UNK         0.0000 
     37 H37         4.6272   54.6225   17.3209 H         1 UNK         0.0000 
     38 H38         5.9959   53.8075   17.9787 H         1 UNK         0.0000 
     39 H39         4.0714   53.2052   19.2847 H         1 UNK         0.0000 
     40 H40         3.5040   54.8617   19.4161 H         1 UNK         0.0000 
     41 H41         3.4943   52.5395   20.5660 H         1 UNK         0.0000 
     42 H42         2.0898   51.2566   23.7692 H         1 UNK         0.0000 
     43 H43         0.3184   49.5813   23.8042 H         1 UNK         0.0000 
     44 H44        -0.7433   48.8326   21.6971 H         1 UNK         0.0000 
     45 H45        -0.0076   49.7906   19.5340 H         1 UNK         0.0000 
     46 H46         5.1371   53.3384   24.5988 H         1 UNK         0.0000 
     47 H47         7.1175   54.3735   27.4356 H         1 UNK         0.0000 
     48 H48         6.4323   52.8979   26.7080 H         1 UNK         0.0000 
     49 H49         3.9601   52.4977   27.6480 H         1 UNK         0.0000 
     50 H50         4.0382   53.1032   25.9857 H         1 UNK         0.0000 
     51 H51         1.9077   53.8832   26.3037 H         1 UNK         0.0000 
     52 H52         2.7048   55.2245   27.0608 H         1 UNK         0.0000 
     53 H53         1.3292   51.8028   27.8006 H         1 UNK         0.0000 
     54 H54        -0.0343   51.2966   29.7919 H         1 UNK         0.0000 
     55 H55        -0.3659   53.0132   31.5302 H         1 UNK         0.0000 
     56 H56         0.6145   55.2719   31.2599 H         1 UNK         0.0000 
     57 H57         1.9657   55.8041   29.2649 H         1 UNK         0.0000 
     58 H58         7.4447   56.8113   19.7301 H         1 UNK         0.0000 
     59 H59         7.8470   55.1974   19.1793 H         1 UNK         0.0000 
     60 N60         5.0501   54.3197   27.4080 N.4       1 UNK         0.0000 
     61 H61         4.8011   55.2775   27.1909 H         1 UNK         0.0000 
     62 H62         5.1486   54.2721   28.4157 H         1 UNK         0.0000 
@<TRIPOS>BOND
     1    1    2 1    
     2    1   34 1    
     3    1   35 1    
     4    1   36 1    
     5    2    3 1    
     6    2   33 1    
     7    2    4 1    
     8    4    5 1    
     9    4   37 1    
    10    4   38 1    
    11    5    6 1    
    12    5   39 1    
    13    5   40 1    
    14    6   10 1    
    15    6    7 2    
    16    7    8 1    
    17    7   33 1    
    18    8    9 1    
    19    9   10 2    
    20    9   21 am   BACKBONE|DICT|INTERRES
    21   10   11 1    
    22   11   12 2    
    23   11   13 am   BACKBONE|DICT|INTERRES
    24   13   14 1    
    25   13   41 1    
    26   14   19 ar   
    27   14   15 ar   
    28   15   16 ar   
    29   15   42 1    
    30   16   17 ar   
    31   16   43 1    
    32   17   18 ar   
    33   17   44 1    
    34   18   19 ar   
    35   18   45 1    
    36   19   20 1    
    37   21   22 am   BACKBONE|DICT|INTERRES
    38   21   46 1    
    39   22   23 2    
    40   22   24 1    
    41   24   47 1    
    42   24   48 1    
    43   24   60 1    
    44   25   26 1    
    45   25   49 1    
    46   25   50 1    
    47   25   60 1    
    48   26   27 1    
    49   26   51 1    
    50   26   52 1    
    51   27   32 ar   
    52   27   28 ar   
    53   28   29 ar   
    54   28   53 1    
    55   29   30 ar   
    56   29   54 1    
    57   30   31 ar   
    58   30   55 1    
    59   31   32 ar   
    60   31   56 1    
    61   32   57 1    
    62   33   58 1    
    63   33   59 1    
    64   60   61 1    
    65   60   62 1    
@<TRIPOS>SUBSTRUCTURE
     1 UNK         1 GROUP             0       ****    0 ROOT    
