@<TRIPOS>MOLECULE
ZINC16608985_2965
61   63    1
SMALL
USER_CHARGES


@<TRIPOS>ATOM
      1 C1          6.0696   56.8247   19.8178 C.3       1 UNK         0.0000 
      2 C2          5.5046   55.3868   19.7513 C.2       1 UNK         0.0000 
      3 C3          5.5652   54.4982   20.8002 C.2       1 UNK         0.0000 
      4 C4          4.8336   53.1266   20.7139 C.3       1 UNK         0.0000 
      5 H5          5.5045   52.3371   21.0558 H         1 UNK         0.0000 
      6 N6          4.5048   52.8962   19.2956 N.pl3     1 UNK         0.0000 
      7 C7          4.2720   53.8331   18.3396 C.2       1 UNK         0.0000 
      8 S8          3.3153   53.3249   17.0655 S.2       1 UNK         0.0000 
      9 N9          4.8883   55.0627   18.5383 N.pl3     1 UNK         0.0000 
     10 C10         4.8973   55.9892   17.3677 C.3       1 UNK         0.0000 
     11 C11         3.6068   52.9180   21.6157 C.ar      1 UNK         0.0000 
     12 C12         3.0375   53.9565   22.3602 C.ar      1 UNK         0.0000 
     13 C13         1.9190   53.7238   23.1534 C.ar      1 UNK         0.0000 
     14 C14         1.3556   52.4494   23.2126 C.ar      1 UNK         0.0000 
     15 C15         1.9202   51.4063   22.4661 C.ar      1 UNK         0.0000 
     16 C16         3.0433   51.6430   21.6817 C.ar      1 UNK         0.0000 
     17 N17         0.2020   52.3175   23.9982 N.am      1 UNK         0.0000 
     18 C18        -0.3877   51.1962   24.4573 C.2       1 UNK         0.0000 
     19 O19         0.0975   50.0676   24.3782 O.2       1 UNK         0.0000 
     20 C20        -1.7210   51.4035   25.1346 C.ar      1 UNK         0.0000 
     21 C21        -2.1196   50.5338   26.1573 C.ar      1 UNK         0.0000 
     22 C22        -3.3502   50.6949   26.7862 C.ar      1 UNK         0.0000 
     23 C23        -4.2150   51.7214   26.3925 C.ar      1 UNK         0.0000 
     24 C24        -3.8245   52.5918   25.3710 C.ar      1 UNK         0.0000 
     25 C25        -2.5886   52.4351   24.7464 C.ar      1 UNK         0.0000 
     26 C26        -5.5691   51.8870   27.0806 C.3       1 UNK         0.0000 
     27 F27        -6.4200   50.9871   26.5887 F         1 UNK         0.0000 
     28 F28        -5.4578   51.6869   28.3964 F         1 UNK         0.0000 
     29 F29        -6.0803   53.1047   26.8868 F         1 UNK         0.0000 
     30 C30         6.3046   54.7790   22.0724 C.2       1 UNK         0.0000 
     31 O31         7.1064   55.7013   22.1918 O.2       1 UNK         0.0000 
     32 O32         6.1052   53.8701   23.0702 O.3       1 UNK         0.0000 
     33 C33         6.8058   53.9709   24.3179 C.3       1 UNK         0.0000 
     34 C34         5.8389   54.1158   25.5081 C.3       1 UNK         0.0000 
     35 C35         6.5988   54.1051   26.8468 C.3       1 UNK         0.0000 
     36 C36         4.9540   55.3611   25.3860 C.3       1 UNK         0.0000 
     37 H37         6.0157   57.2496   20.8156 H         1 UNK         0.0000 
     38 H38         7.1096   56.8402   19.4798 H         1 UNK         0.0000 
     39 H39         5.5051   57.5452   19.2273 H         1 UNK         0.0000 
     40 H40         4.2852   51.9557   18.9886 H         1 UNK         0.0000 
     41 H41         4.8640   55.4897   16.3991 H         1 UNK         0.0000 
     42 H42         4.0520   56.6776   17.4202 H         1 UNK         0.0000 
     43 H43         5.8139   56.5788   17.3224 H         1 UNK         0.0000 
     44 H44         3.4362   54.9566   22.3104 H         1 UNK         0.0000 
     45 H45         1.4938   54.5452   23.7136 H         1 UNK         0.0000 
     46 H46         1.4954   50.4140   22.4592 H         1 UNK         0.0000 
     47 H47         3.4633   50.8336   21.1053 H         1 UNK         0.0000 
     48 H48        -0.2445   53.1856   24.2452 H         1 UNK         0.0000 
     49 H49        -1.4795   49.7223   26.4812 H         1 UNK         0.0000 
     50 H50        -3.6259   50.0078   27.5761 H         1 UNK         0.0000 
     51 H51        -4.4777   53.3894   25.0453 H         1 UNK         0.0000 
     52 H52        -2.3304   53.1153   23.9448 H         1 UNK         0.0000 
     53 H53         7.5064   54.8051   24.3394 H         1 UNK         0.0000 
     54 H54         7.4196   53.0785   24.4313 H         1 UNK         0.0000 
     55 H55         5.1677   53.2631   25.5117 H         1 UNK         0.0000 
     56 H56         7.2663   54.9632   26.9397 H         1 UNK         0.0000 
     57 H57         7.2035   53.2038   26.9549 H         1 UNK         0.0000 
     58 H58         5.9121   54.1352   27.6932 H         1 UNK         0.0000 
     59 H59         5.5495   56.2662   25.2816 H         1 UNK         0.0000 
     60 H60         4.3076   55.2952   24.5148 H         1 UNK         0.0000 
     61 H61         4.3038   55.4714   26.2523 H         1 UNK         0.0000 
@<TRIPOS>BOND
     1    1    2 1    
     2    1   37 1    
     3    1   38 1    
     4    1   39 1    
     5    2    9 1    
     6    2    3 2    
     7    3    4 1    
     8    3   30 1    
     9    4    5 1    
    10    4    6 1    
    11    4   11 1    
    12    6    7 1    
    13    6   40 1    
    14    7    8 2    
    15    7    9 1    
    16    9   10 1    
    17   10   41 1    
    18   10   42 1    
    19   10   43 1    
    20   11   16 ar   
    21   11   12 ar   
    22   12   13 ar   
    23   12   44 1    
    24   13   14 ar   
    25   13   45 1    
    26   14   15 ar   
    27   14   17 1    
    28   15   16 ar   
    29   15   46 1    
    30   16   47 1    
    31   17   18 am   BACKBONE|DICT|INTERRES
    32   17   48 1    
    33   18   19 2    
    34   18   20 1    
    35   20   25 ar   
    36   20   21 ar   
    37   21   22 ar   
    38   21   49 1    
    39   22   23 ar   
    40   22   50 1    
    41   23   24 ar   
    42   23   26 1    
    43   24   25 ar   
    44   24   51 1    
    45   25   52 1    
    46   26   27 1    
    47   26   28 1    
    48   26   29 1    
    49   30   31 2    
    50   30   32 1    
    51   32   33 1    
    52   33   34 1    
    53   33   53 1    
    54   33   54 1    
    55   34   35 1    
    56   34   36 1    
    57   34   55 1    
    58   35   56 1    
    59   35   57 1    
    60   35   58 1    
    61   36   59 1    
    62   36   60 1    
    63   36   61 1    
@<TRIPOS>SUBSTRUCTURE
     1 UNK         1 GROUP             0       ****    0 ROOT    
