@<TRIPOS>MOLECULE
ZINC36014205_2215
64   67    1
SMALL
USER_CHARGES


@<TRIPOS>ATOM
      1 C1          6.4871   54.3072   13.6502 C.3       1 UNK         0.0000 
      2 C2          5.7589   53.9658   14.9387 C.ar      1 UNK         0.0000 
      3 C3          6.4373   53.9967   16.1579 C.ar      1 UNK         0.0000 
      4 C4          5.7700   53.6636   17.3348 C.ar      1 UNK         0.0000 
      5 C5          4.4132   53.3050   17.2986 C.ar      1 UNK         0.0000 
      6 C6          3.7395   53.2949   16.0742 C.ar      1 UNK         0.0000 
      7 C7          4.4079   53.6264   14.8992 C.ar      1 UNK         0.0000 
      8 N8          3.6450   52.9183   18.4143 N.am      1 UNK         0.0000 
      9 C9          3.9813   52.8117   19.7227 C.2       1 UNK         0.0000 
     10 O10         5.0945   53.1137   20.1603 O.2       1 UNK         0.0000 
     11 N11         3.0082   52.2809   20.5240 N.am      1 UNK         0.0000 
     12 C12         3.3553   52.0416   21.9433 C.3       1 UNK         0.0000 
     13 C13         2.5338   50.8548   22.4970 C.3       1 UNK         0.0000 
     14 C14         1.0262   50.9537   22.2553 C.3       1 UNK         0.0000 
     15 C15         0.8171   51.1591   20.7408 C.3       1 UNK         0.0000 
     16 C16         1.5601   52.3965   20.1931 C.3       1 UNK         0.0000 
     17 N17         0.4229   49.6134   22.6502 N.4       1 UNK         0.0000 
     18 C18        -0.8700   49.8742   23.3475 C.3       1 UNK         0.0000 
     19 H19        -1.6550   49.6514   22.6239 H         1 UNK         0.0000 
     20 C20        -0.8158   51.3840   23.6598 C.2       1 UNK         0.0000 
     21 O21        -1.6614   51.9677   24.3367 O.2       1 UNK         0.0000 
     22 N22         0.3022   51.9104   23.1111 N.am      1 UNK         0.0000 
     23 C23         0.7097   53.2944   23.4456 C.3       1 UNK         0.0000 
     24 C24         1.6701   53.4755   24.6255 C.ar      1 UNK         0.0000 
     25 C25         2.8111   54.2709   24.4792 C.ar      1 UNK         0.0000 
     26 C26         3.6835   54.4548   25.5459 C.ar      1 UNK         0.0000 
     27 C27         3.3977   53.8722   26.7761 C.ar      1 UNK         0.0000 
     28 C28         2.2513   53.1026   26.9433 C.ar      1 UNK         0.0000 
     29 C29         1.3905   52.8973   25.8679 C.ar      1 UNK         0.0000 
     30 F30         4.2305   54.0724   27.8222 F         1 UNK         0.0000 
     31 C31        -0.9177   48.9185   24.5819 C.3       1 UNK         0.0000 
     32 C32         0.1533   49.1982   25.6586 C.3       1 UNK         0.0000 
     33 C33        -2.3049   48.9033   25.2419 C.3       1 UNK         0.0000 
     34 H34         7.2894   55.0253   13.8247 H         1 UNK         0.0000 
     35 H35         6.9115   53.4063   13.2050 H         1 UNK         0.0000 
     36 H36         5.8086   54.7647   12.9289 H         1 UNK         0.0000 
     37 H37         7.4832   54.2662   16.1954 H         1 UNK         0.0000 
     38 H38         6.3367   53.6764   18.2513 H         1 UNK         0.0000 
     39 H39         2.6969   53.0209   16.0200 H         1 UNK         0.0000 
     40 H40         3.8775   53.6086   13.9583 H         1 UNK         0.0000 
     41 H41         2.7070   52.6401   18.1821 H         1 UNK         0.0000 
     42 H42         3.1415   52.9506   22.4779 H         1 UNK         0.0000 
     43 H43         4.4085   51.7805   22.0671 H         1 UNK         0.0000 
     44 H44         2.6714   50.7456   23.5719 H         1 UNK         0.0000 
     45 H45         2.9445   49.9447   22.0546 H         1 UNK         0.0000 
     46 H46         1.1547   50.2820   20.1821 H         1 UNK         0.0000 
     47 H47        -0.2466   51.2556   20.5197 H         1 UNK         0.0000 
     48 H48         1.1501   53.2946   20.6457 H         1 UNK         0.0000 
     49 H49         1.3679   52.4101   19.1215 H         1 UNK         0.0000 
     50 H50         1.0676   49.1491   23.2756 H         1 UNK         0.0000 
     51 H51        -0.1730   53.8895   23.6843 H         1 UNK         0.0000 
     52 H52         1.1286   53.7721   22.5651 H         1 UNK         0.0000 
     53 H53         3.0359   54.7503   23.5355 H         1 UNK         0.0000 
     54 H54         4.5665   55.0661   25.4286 H         1 UNK         0.0000 
     55 H55         2.0306   52.6649   27.9055 H         1 UNK         0.0000 
     56 H56         0.4884   52.3281   26.0167 H         1 UNK         0.0000 
     57 H57        -0.7470   47.8993   24.2292 H         1 UNK         0.0000 
     58 H58         0.0318   50.1849   26.0991 H         1 UNK         0.0000 
     59 H59         0.0705   48.4936   26.4822 H         1 UNK         0.0000 
     60 H60         1.1680   49.1199   25.2721 H         1 UNK         0.0000 
     61 H61        -2.5733   49.8805   25.6401 H         1 UNK         0.0000 
     62 H62        -3.0791   48.6047   24.5370 H         1 UNK         0.0000 
     63 H63        -2.3307   48.2033   26.0773 H         1 UNK         0.0000 
     64 H64         0.3243   49.0188   21.8401 H         1 UNK         0.0000 
@<TRIPOS>BOND
     1    1    2 1    
     2    1   34 1    
     3    1   35 1    
     4    1   36 1    
     5    2    7 ar   
     6    2    3 ar   
     7    3    4 ar   
     8    3   37 1    
     9    4    5 ar   
    10    4   38 1    
    11    5    6 ar   
    12    5    8 1    
    13    6    7 ar   
    14    6   39 1    
    15    7   40 1    
    16    8    9 am   BACKBONE|DICT|INTERRES
    17    8   41 1    
    18    9   10 2    
    19    9   11 am   BACKBONE|DICT|INTERRES
    20   11   16 1    
    21   11   12 1    
    22   12   13 1    
    23   12   42 1    
    24   12   43 1    
    25   13   14 1    
    26   13   44 1    
    27   13   45 1    
    28   14   22 1    
    29   14   15 1    
    30   14   17 1    
    31   15   16 1    
    32   15   46 1    
    33   15   47 1    
    34   16   48 1    
    35   16   49 1    
    36   17   18 1    
    37   17   50 1    
    38   17   64 1    
    39   18   19 1    
    40   18   20 1    
    41   18   31 1    
    42   20   21 2    
    43   20   22 am   BACKBONE|DICT|INTERRES
    44   22   23 1    
    45   23   24 1    
    46   23   51 1    
    47   23   52 1    
    48   24   29 ar   
    49   24   25 ar   
    50   25   26 ar   
    51   25   53 1    
    52   26   27 ar   
    53   26   54 1    
    54   27   28 ar   
    55   27   30 1    
    56   28   29 ar   
    57   28   55 1    
    58   29   56 1    
    59   31   32 1    
    60   31   33 1    
    61   31   57 1    
    62   32   58 1    
    63   32   59 1    
    64   32   60 1    
    65   33   61 1    
    66   33   62 1    
    67   33   63 1    
@<TRIPOS>SUBSTRUCTURE
     1 UNK         1 GROUP             0       ****    0 ROOT    
