@<TRIPOS>MOLECULE
ZINC36311939_1188
62   66    1
SMALL
USER_CHARGES


@<TRIPOS>ATOM
      1 C1         -1.2352   48.4783   23.9924 C.ar      1 UNK         0.0000 
      2 C2         -0.4955   48.6824   22.8265 C.ar      1 UNK         0.0000 
      3 C3          0.6145   49.5416   22.8239 C.ar      1 UNK         0.0000 
      4 C4          0.9543   50.1990   24.0180 C.ar      1 UNK         0.0000 
      5 C5          0.2130   49.9967   25.1830 C.ar      1 UNK         0.0000 
      6 C6         -0.8781   49.1305   25.1720 C.ar      1 UNK         0.0000 
      7 Br7         0.7033   50.8888   26.7934 Br        1 UNK         0.0000 
      8 C8          1.4795   49.6762   21.5849 C.2       1 UNK         0.0000 
      9 O9          1.6801   48.6837   20.8814 O.2       1 UNK         0.0000 
     10 N10         2.0515   50.8806   21.3204 N.am      1 UNK         0.0000 
     11 C11         3.2169   50.9791   20.4215 C.3       1 UNK         0.0000 
     12 C12         4.2263   51.9525   21.0747 C.3       1 UNK         0.0000 
     13 N13         3.5391   53.3247   21.2798 N.4       1 UNK         0.0000 
     14 C14         2.2458   53.1782   22.1243 C.3       1 UNK         0.0000 
     15 C15         1.3009   52.1362   21.5006 C.3       1 UNK         0.0000 
     16 C16         4.4731   54.4773   21.7719 C.3       1 UNK         0.0000 
     17 H17         3.7619   55.2966   21.8685 H         1 UNK         0.0000 
     18 C18         5.5183   54.8461   20.6737 C.3       1 UNK         0.0000 
     19 C19         4.9535   55.0102   19.2510 C.3       1 UNK         0.0000 
     20 C20         5.9852   55.8494   18.4921 C.3       1 UNK         0.0000 
     21 C21         6.7290   56.6783   19.5491 C.3       1 UNK         0.0000 
     22 C22         6.2374   56.1836   20.9164 C.3       1 UNK         0.0000 
     23 C23         5.0681   54.1777   23.1760 C.2       1 UNK         0.0000 
     24 O24         6.1880   53.6808   23.2831 O.2       1 UNK         0.0000 
     25 N25         4.2621   54.4950   24.2130 N.am      1 UNK         0.0000 
     26 C26         4.4170   54.2086   25.5754 C.ar      1 UNK         0.0000 
     27 C27         5.6646   54.0971   26.2314 C.ar      1 UNK         0.0000 
     28 C28         5.7273   53.7518   27.5923 C.ar      1 UNK         0.0000 
     29 C29         4.5248   53.5194   28.2551 C.ar      1 UNK         0.0000 
     30 C30         3.3201   53.6582   27.6274 C.ar      1 UNK         0.0000 
     31 C31         3.2251   54.0172   26.2914 C.ar      1 UNK         0.0000 
     32 O32         2.3180   53.3915   28.5043 O.3       1 UNK         0.0000 
     33 C33         2.9514   52.7787   29.5901 C.3       1 UNK         0.0000 
     34 O34         4.3041   53.1463   29.5451 O.3       1 UNK         0.0000 
     35 H35        -2.0789   47.8043   23.9870 H         1 UNK         0.0000 
     36 H36        -0.7766   48.1488   21.9289 H         1 UNK         0.0000 
     37 H37         1.8223   50.8392   24.0664 H         1 UNK         0.0000 
     38 H38        -1.4381   48.9553   26.0811 H         1 UNK         0.0000 
     39 H39         2.9084   51.3584   19.4454 H         1 UNK         0.0000 
     40 H40         3.6712   50.0100   20.2211 H         1 UNK         0.0000 
     41 H41         5.0502   52.1135   20.3778 H         1 UNK         0.0000 
     42 H42         4.6207   51.6029   22.0334 H         1 UNK         0.0000 
     43 H43         2.4971   52.9284   23.1546 H         1 UNK         0.0000 
     44 H44         1.7560   54.1514   22.0878 H         1 UNK         0.0000 
     45 H45         0.4003   52.0127   22.1050 H         1 UNK         0.0000 
     46 H46         0.9647   52.4997   20.5273 H         1 UNK         0.0000 
     47 H47         6.3041   54.0970   20.6003 H         1 UNK         0.0000 
     48 H48         4.7181   54.0604   18.7679 H         1 UNK         0.0000 
     49 H49         4.0213   55.5755   19.2815 H         1 UNK         0.0000 
     50 H50         6.6859   55.1924   17.9730 H         1 UNK         0.0000 
     51 H51         5.5174   56.4785   17.7328 H         1 UNK         0.0000 
     52 H52         7.8066   56.5367   19.4496 H         1 UNK         0.0000 
     53 H53         6.5316   57.7439   19.4202 H         1 UNK         0.0000 
     54 H54         5.5095   56.9084   21.2789 H         1 UNK         0.0000 
     55 H55         7.0178   56.1123   21.6760 H         1 UNK         0.0000 
     56 H56         3.3663   54.8902   23.9757 H         1 UNK         0.0000 
     57 H57         6.5863   54.2590   25.6931 H         1 UNK         0.0000 
     58 H58         6.6780   53.6524   28.0939 H         1 UNK         0.0000 
     59 H59         2.2577   54.0968   25.8172 H         1 UNK         0.0000 
     60 H60         2.4780   53.0586   30.5311 H         1 UNK         0.0000 
     61 H61         2.8641   51.6952   29.4819 H         1 UNK         0.0000 
     62 H62         3.2342   53.6135   20.3582 H         1 UNK         0.0000 
@<TRIPOS>BOND
     1    1    6 ar   
     2    1    2 ar   
     3    1   35 1    
     4    2    3 ar   
     5    2   36 1    
     6    3    4 ar   
     7    3    8 1    
     8    4    5 ar   
     9    4   37 1    
    10    5    6 ar   
    11    5    7 1    
    12    6   38 1    
    13    8    9 2    
    14    8   10 am   BACKBONE|DICT|INTERRES
    15   10   15 1    
    16   10   11 1    
    17   11   12 1    
    18   11   39 1    
    19   11   40 1    
    20   12   13 1    
    21   12   41 1    
    22   12   42 1    
    23   13   14 1    
    24   13   16 1    
    25   13   62 1    
    26   14   15 1    
    27   14   43 1    
    28   14   44 1    
    29   15   45 1    
    30   15   46 1    
    31   16   17 1    
    32   16   18 1    
    33   16   23 1    
    34   18   22 1    
    35   18   19 1    
    36   18   47 1    
    37   19   20 1    
    38   19   48 1    
    39   19   49 1    
    40   20   21 1    
    41   20   50 1    
    42   20   51 1    
    43   21   22 1    
    44   21   52 1    
    45   21   53 1    
    46   22   54 1    
    47   22   55 1    
    48   23   24 2    
    49   23   25 am   BACKBONE|DICT|INTERRES
    50   25   26 1    
    51   25   56 1    
    52   26   31 ar   
    53   26   27 ar   
    54   27   28 ar   
    55   27   57 1    
    56   28   29 ar   
    57   28   58 1    
    58   29   34 1    
    59   29   30 ar   
    60   30   31 ar   
    61   30   32 1    
    62   31   59 1    
    63   32   33 1    
    64   33   34 1    
    65   33   60 1    
    66   33   61 1    
@<TRIPOS>SUBSTRUCTURE
     1 UNK         1 GROUP             0       ****    0 ROOT    
