ZINC38685016_2985
                    3D
 Schrodinger Suite 2024-2.
 64 68  0  0  1  0            999 V2000
   -2.6536   51.0754   28.7280 C   0  0  0  0  0  0
   -1.9845   51.0773   27.3530 C   0  0  0  0  0  0
   -0.9738   52.0836   27.2760 O   0  0  0  0  0  0
   -0.0791   52.0251   26.2230 C   0  0  0  0  0  0
   -0.2125   51.1569   25.1288 C   0  0  0  0  0  0
    0.7353   51.1436   24.1132 C   0  0  0  0  0  0
    1.8249   52.0062   24.1733 C   0  0  0  0  0  0
    1.9909   52.8973   25.2486 C   0  0  0  0  0  0
    1.0187   52.8919   26.2601 C   0  0  0  0  0  0
    3.1796   53.8886   25.3239 C   0  0  2  0  0  0
    2.7045   54.8529   25.4890 H   0  0  0  0  0  0
    3.9650   54.0965   24.0113 C   0  0  0  0  0  0
    3.3147   54.2521   22.7785 C   0  0  0  0  0  0
    4.0287   54.3694   21.5948 C   0  0  0  0  0  0
    5.4179   54.3955   21.6056 C   0  0  0  0  0  0
    6.0958   54.2895   22.8283 C   0  0  0  0  0  0
    5.3720   54.1522   24.0134 C   0  0  0  0  0  0
    6.1143   54.0954   25.1757 O   0  0  0  0  0  0
    5.4835   53.8562   26.3491 C   0  0  0  0  0  0
    4.1516   53.7091   26.5073 C   0  0  0  0  0  0
    3.6406   53.4503   27.8187 C   0  0  0  0  0  0
    3.2711   53.2578   28.8993 N   0  0  0  0  0  0
    6.4419   53.7514   27.3218 N   0  0  0  0  0  0
    6.0509   54.5363   20.3926 O   0  0  0  0  0  0
    6.7578   55.6669   20.1341 C   0  0  0  0  0  0
    7.1046   56.4967   20.9750 O   0  0  0  0  0  0
    7.0685   55.9046   18.6429 C   0  0  0  0  0  0
    7.7526   54.6890   17.9959 C   0  0  0  0  0  0
    9.1486   54.6921   17.8862 C   0  0  0  0  0  0
    9.8098   53.6276   17.2817 C   0  0  0  0  0  0
    9.0779   52.5528   16.7843 C   0  0  0  0  0  0
    7.6891   52.5362   16.8841 C   0  0  0  0  0  0
    7.0269   53.6001   17.4930 C   0  0  0  0  0  0
    5.8419   56.4940   17.9196 C   0  0  0  0  0  0
    4.5918   55.8567   17.9186 C   0  0  0  0  0  0
    3.5047   56.4480   17.2815 C   0  0  0  0  0  0
    3.6566   57.6814   16.6544 C   0  0  0  0  0  0
    4.8879   58.3288   16.6551 C   0  0  0  0  0  0
    5.9769   57.7358   17.2863 C   0  0  0  0  0  0
   -3.3005   50.2031   28.8344 H   0  0  0  0  0  0
   -3.2709   51.9565   28.8687 H   0  0  0  0  0  0
   -1.9152   51.0278   29.5308 H   0  0  0  0  0  0
   -1.5402   50.0980   27.1870 H   0  0  0  0  0  0
   -2.7330   51.2361   26.5751 H   0  0  0  0  0  0
   -1.0458   50.4747   25.0472 H   0  0  0  0  0  0
    0.6358   50.4570   23.2867 H   0  0  0  0  0  0
    2.5497   51.9363   23.3781 H   0  0  0  0  0  0
    1.1044   53.5705   27.0963 H   0  0  0  0  0  0
    2.2341   54.2654   22.7288 H   0  0  0  0  0  0
    3.5043   54.4693   20.6563 H   0  0  0  0  0  0
    7.1769   54.3289   22.8592 H   0  0  0  0  0  0
    6.1771   53.6359   28.2900 H   0  0  0  0  0  0
    7.3942   53.5218   27.0723 H   0  0  0  0  0  0
    7.8158   56.6973   18.6432 H   0  0  0  0  0  0
    9.7275   55.5178   18.2745 H   0  0  0  0  0  0
   10.8884   53.6302   17.2079 H   0  0  0  0  0  0
    9.5921   51.7212   16.3257 H   0  0  0  0  0  0
    7.1219   51.6970   16.5070 H   0  0  0  0  0  0
    5.9517   53.5553   17.5721 H   0  0  0  0  0  0
    4.4453   54.9103   18.4136 H   0  0  0  0  0  0
    2.5440   55.9572   17.2863 H   0  0  0  0  0  0
    2.8099   58.1499   16.1703 H   0  0  0  0  0  0
    4.9945   59.2960   16.1843 H   0  0  0  0  0  0
    6.9244   58.2553   17.2873 H   0  0  0  0  0  0
  1  2  1  0  0  0
  1 40  1  0  0  0
  1 41  1  0  0  0
  1 42  1  0  0  0
  2  3  1  0  0  0
  2 43  1  0  0  0
  2 44  1  0  0  0
  3  4  1  0  0  0
  4  9  2  0  0  0
  4  5  1  0  0  0
  5  6  2  0  0  0
  5 45  1  0  0  0
  6  7  1  0  0  0
  6 46  1  0  0  0
  7  8  2  0  0  0
  7 47  1  0  0  0
  8  9  1  0  0  0
  8 10  1  0  0  0
  9 48  1  0  0  0
 10 11  1  0  0  0
 10 20  1  0  0  0
 10 12  1  0  0  0
 12 17  2  0  0  0
 12 13  1  0  0  0
 13 14  2  0  0  0
 13 49  1  0  0  0
 14 15  1  0  0  0
 14 50  1  0  0  0
 15 16  2  0  0  0
 15 24  1  0  0  0
 16 17  1  0  0  0
 16 51  1  0  0  0
 17 18  1  0  0  0
 18 19  1  0  0  0
 19 20  2  0  0  0
 19 23  1  0  0  0
 20 21  1  0  0  0
 21 22  3  0  0  0
 23 52  1  0  0  0
 23 53  1  0  0  0
 24 25  1  0  0  0
 25 26  2  0  0  0
 25 27  1  0  0  0
 27 28  1  0  0  0
 27 34  1  0  0  0
 27 54  1  0  0  0
 28 33  2  0  0  0
 28 29  1  0  0  0
 29 30  2  0  0  0
 29 55  1  0  0  0
 30 31  1  0  0  0
 30 56  1  0  0  0
 31 32  2  0  0  0
 31 57  1  0  0  0
 32 33  1  0  0  0
 32 58  1  0  0  0
 33 59  1  0  0  0
 34 39  2  0  0  0
 34 35  1  0  0  0
 35 36  2  0  0  0
 35 60  1  0  0  0
 36 37  1  0  0  0
 36 61  1  0  0  0
 37 38  2  0  0  0
 37 62  1  0  0  0
 38 39  1  0  0  0
 38 63  1  0  0  0
 39 64  1  0  0  0
M  END
> <i_i_glide_confnum>
183

> <i_i_glide_lignum>
2986

> <i_i_glide_posenum>
157

> <i_i_glide_rotatable_bonds>
9

> <i_m_Source_File_Index>
4240

> <b_m_subgroup_collapsed>
0

> <r_i_docking_score>
-4.7174

> <r_i_glide_ecoul>
-7.08653

> <r_i_glide_eff_state_penalty>
0

> <r_i_glide_einternal>
7.89451

> <r_i_glide_emodel>
-58.8559

> <r_i_glide_energy>
-50.6471

> <r_i_glide_erotb>
0.566339

> <r_i_glide_esite>
0

> <r_i_glide_evdw>
-43.5606

> <r_i_glide_gscore>
-4.7174

> <r_i_glide_hbond>
-0.260118

> <r_i_glide_ligand_efficiency>
-0.124142

> <r_i_glide_ligand_efficiency_ln>
-1.01721

> <r_i_glide_ligand_efficiency_sa>
-0.417363

> <r_i_glide_lipo>
-2.84417

> <r_i_glide_metal>
0

> <r_i_glide_rewards>
1.06155

> <s_i_glide_gridfile>
wee1_glide-grid

> <s_m_Source_File>
wee1_decoys_glide_SP.sdf

> <s_m_Source_Path>
/Users/zhangxujun/Desktop

> <s_m_entry_id>
4515

> <s_m_entry_name>
wee1_decoys_glide_SP.4240

> <s_m_subgroup_title>
wee1_decoys_glide_SP

> <s_m_subgroupid>
wee1_decoys_glide_SP


$$$$
