@<TRIPOS>MOLECULE
ZINC39227318_1143
71   75    1
SMALL
USER_CHARGES


@<TRIPOS>ATOM
      1 C1          9.8035   53.0525   15.0765 C.3       1 UNK         0.0000 
      2 C2          9.6705   54.1368   16.1284 C.ar      1 UNK         0.0000 
      3 C3         10.5860   55.1931   16.1735 C.ar      1 UNK         0.0000 
      4 C4         10.4676   56.1879   17.1465 C.ar      1 UNK         0.0000 
      5 C5          9.4349   56.1196   18.0858 C.ar      1 UNK         0.0000 
      6 C6          8.5245   55.0518   18.0614 C.ar      1 UNK         0.0000 
      7 C7          8.6440   54.0725   17.0724 C.ar      1 UNK         0.0000 
      8 N8          7.4643   54.8911   18.9675 N.am      1 UNK         0.0000 
      9 C9          7.3459   55.3699   20.2233 C.2       1 UNK         0.0000 
     10 O10         8.1730   56.0938   20.7693 O.2       1 UNK         0.0000 
     11 C11         6.1391   54.8968   20.9999 C.ar      1 UNK         0.0000 
     12 C12         4.9946   54.4142   20.3556 C.ar      1 UNK         0.0000 
     13 C13         3.9069   53.9617   21.0931 C.ar      1 UNK         0.0000 
     14 C14         3.9053   53.9857   22.4981 C.ar      1 UNK         0.0000 
     15 C15         5.0750   54.4411   23.1310 C.ar      1 UNK         0.0000 
     16 C16         6.1714   54.8954   22.3974 C.ar      1 UNK         0.0000 
     17 C17         2.6888   53.5481   23.2803 C.ar      1 UNK         0.0000 
     18 C18         1.4834   53.2264   22.6280 C.ar      1 UNK         0.0000 
     19 C19         0.3575   52.8057   23.3258 C.ar      1 UNK         0.0000 
     20 C20         0.3997   52.7104   24.7073 C.ar      1 UNK         0.0000 
     21 C21         1.5623   53.0508   25.4147 C.ar      1 UNK         0.0000 
     22 C22         2.6966   53.4417   24.6864 C.ar      1 UNK         0.0000 
     23 C23         1.6010   52.8583   26.8927 C.2       1 UNK         0.0000 
     24 O24         2.6408   52.9219   27.5476 O.2       1 UNK         0.0000 
     25 C25         0.2304   52.5592   27.5015 C.3       1 UNK         0.0000 
     26 C26        -0.5705   51.6009   26.5795 C.3       1 UNK         0.0000 
     27 O27        -0.7617   52.2754   25.3236 O.3       1 UNK         0.0000 
     28 C28         0.0665   50.2024   26.3359 C.3       1 UNK         0.0000 
     29 C29        -0.7823   49.3072   25.4197 C.3       1 UNK         0.0000 
     30 N30        -2.1746   49.1495   26.0807 N.4       1 UNK         0.0000 
     31 C31        -2.8830   50.5093   26.2661 C.3       1 UNK         0.0000 
     32 C32        -1.9831   51.3802   27.1576 C.3       1 UNK         0.0000 
     33 C33        -3.0817   48.0895   25.4024 C.3       1 UNK         0.0000 
     34 C34        -3.2756   48.3675   23.8951 C.3       1 UNK         0.0000 
     35 C35        -2.5355   46.6817   25.7046 C.3       1 UNK         0.0000 
     36 C36        11.4671   57.3278   17.2098 C.3       1 UNK         0.0000 
     37 H37        10.8498   52.8868   14.8143 H         1 UNK         0.0000 
     38 H38         9.4205   52.1005   15.4481 H         1 UNK         0.0000 
     39 H39         9.2535   53.3254   14.1750 H         1 UNK         0.0000 
     40 H40        11.3891   55.2417   15.4478 H         1 UNK         0.0000 
     41 H41         9.3605   56.9006   18.8283 H         1 UNK         0.0000 
     42 H42         7.9484   53.2436   17.0387 H         1 UNK         0.0000 
     43 H43         6.7546   54.2434   18.6684 H         1 UNK         0.0000 
     44 H44         4.9184   54.3853   19.2775 H         1 UNK         0.0000 
     45 H45         3.0676   53.6035   20.5198 H         1 UNK         0.0000 
     46 H46         5.1629   54.4825   24.2033 H         1 UNK         0.0000 
     47 H47         7.0486   55.2432   22.9291 H         1 UNK         0.0000 
     48 H48         1.3767   53.2962   21.5590 H         1 UNK         0.0000 
     49 H49        -0.5474   52.5466   22.7949 H         1 UNK         0.0000 
     50 H50         3.5985   53.6497   25.2399 H         1 UNK         0.0000 
     51 H51        -0.3127   53.4997   27.5525 H         1 UNK         0.0000 
     52 H52         0.3507   52.1069   28.4848 H         1 UNK         0.0000 
     53 H53         0.2185   49.6974   27.2817 H         1 UNK         0.0000 
     54 H54         1.0587   50.2882   25.8978 H         1 UNK         0.0000 
     55 H55        -0.3210   48.3224   25.3764 H         1 UNK         0.0000 
     56 H56        -0.9083   49.7185   24.4185 H         1 UNK         0.0000 
     57 H57        -3.0746   50.9436   25.2825 H         1 UNK         0.0000 
     58 H58        -3.8227   50.3106   26.7844 H         1 UNK         0.0000 
     59 H59        -2.4660   52.3466   27.2824 H         1 UNK         0.0000 
     60 H60        -1.9186   50.9423   28.1551 H         1 UNK         0.0000 
     61 H61        -4.0358   48.1896   25.9226 H         1 UNK         0.0000 
     62 H62        -3.9799   47.6574   23.4573 H         1 UNK         0.0000 
     63 H63        -2.3429   48.2768   23.3368 H         1 UNK         0.0000 
     64 H64        -3.6786   49.3643   23.7159 H         1 UNK         0.0000 
     65 H65        -3.2341   45.9172   25.3618 H         1 UNK         0.0000 
     66 H66        -1.5759   46.4921   25.2205 H         1 UNK         0.0000 
     67 H67        -2.3953   46.5316   26.7794 H         1 UNK         0.0000 
     68 H68        12.4078   57.0633   16.7252 H         1 UNK         0.0000 
     69 H69        11.0589   58.2228   16.7399 H         1 UNK         0.0000 
     70 H70        11.7045   57.5634   18.2480 H         1 UNK         0.0000 
     71 H71        -1.9922   48.7856   27.0318 H         1 UNK         0.0000 
@<TRIPOS>BOND
     1    1    2 1    
     2    1   37 1    
     3    1   38 1    
     4    1   39 1    
     5    2    7 ar   
     6    2    3 ar   
     7    3    4 ar   
     8    3   40 1    
     9    4    5 ar   
    10    4   36 1    
    11    5    6 ar   
    12    5   41 1    
    13    6    7 ar   
    14    6    8 1    
    15    7   42 1    
    16    8    9 am   BACKBONE|DICT|INTERRES
    17    8   43 1    
    18    9   10 2    
    19    9   11 1    
    20   11   16 ar   
    21   11   12 ar   
    22   12   13 ar   
    23   12   44 1    
    24   13   14 ar   
    25   13   45 1    
    26   14   15 ar   
    27   14   17 1    
    28   15   16 ar   
    29   15   46 1    
    30   16   47 1    
    31   17   22 ar   
    32   17   18 ar   
    33   18   19 ar   
    34   18   48 1    
    35   19   20 ar   
    36   19   49 1    
    37   20   27 1    
    38   20   21 ar   
    39   21   22 ar   
    40   21   23 1    
    41   22   50 1    
    42   23   24 2    
    43   23   25 1    
    44   25   26 1    
    45   25   51 1    
    46   25   52 1    
    47   26   32 1    
    48   26   27 1    
    49   26   28 1    
    50   28   29 1    
    51   28   53 1    
    52   28   54 1    
    53   29   30 1    
    54   29   55 1    
    55   29   56 1    
    56   30   31 1    
    57   30   33 1    
    58   30   71 1    
    59   31   32 1    
    60   31   57 1    
    61   31   58 1    
    62   32   59 1    
    63   32   60 1    
    64   33   34 1    
    65   33   35 1    
    66   33   61 1    
    67   34   62 1    
    68   34   63 1    
    69   34   64 1    
    70   35   65 1    
    71   35   66 1    
    72   35   67 1    
    73   36   68 1    
    74   36   69 1    
    75   36   70 1    
@<TRIPOS>SUBSTRUCTURE
     1 UNK         1 GROUP             0       ****    0 ROOT    
