ZINC44452746_2734
                    3D
 Schrodinger Suite 2024-2.
 54 57  0  0  1  0            999 V2000
    1.4997   49.8264   17.5269 C   0  0  0  0  0  0
    0.7444   49.0540   18.5211 N   0  0  0  0  0  0
   -0.1089   48.0395   17.8930 C   0  0  0  0  0  0
    0.7678   49.2342   19.8714 C   0  0  0  0  0  0
    0.1258   48.4955   20.6258 O   0  0  0  0  0  0
    1.4830   50.3053   20.3043 N   0  0  0  0  0  0
    1.6625   50.7217   21.5843 C   0  0  0  0  0  0
    1.2589   50.1180   22.5815 O   0  0  0  0  0  0
    2.3903   51.9778   21.7307 C   0  0  0  0  0  0
    3.2456   52.5616   20.7678 C   0  0  0  0  0  0
    3.9070   53.6916   21.1950 C   0  0  0  0  0  0
    3.5487   54.0969   22.8227 S   0  0  0  0  0  0
    2.4760   52.7362   22.9178 C   0  0  0  0  0  0
    1.9231   52.5381   24.1589 N   0  0  0  0  0  0
    0.6139   52.6274   24.4525 C   0  0  0  0  0  0
   -0.2680   52.8959   23.6341 O   0  0  0  0  0  0
    0.3120   52.4327   25.9207 C   0  0  0  0  0  0
    1.2472   52.8654   26.8738 C   0  0  0  0  0  0
    1.0150   52.7148   28.2518 C   0  0  0  0  0  0
    1.9842   53.1040   29.2050 C   0  0  0  0  0  0
    1.7211   52.9521   30.5591 C   0  0  0  0  0  0
    0.4952   52.4726   30.9967 C   0  0  0  0  0  0
   -0.4636   52.0502   30.0802 C   0  0  0  0  0  0
   -0.2147   52.1464   28.6899 C   0  0  0  0  0  0
   -1.1447   51.6977   27.7239 C   0  0  0  0  0  0
   -0.8919   51.8532   26.3589 C   0  0  0  0  0  0
   -1.8343   51.4000   25.4678 O   0  0  0  0  0  0
   -2.9532   52.2626   25.3103 C   0  0  0  0  0  0
    4.8235   54.2785   20.1567 C   0  0  0  0  0  0
    4.9184   53.1129   19.1648 C   0  0  0  0  0  0
    3.6608   52.2523   19.3606 C   0  0  0  0  0  0
    0.8483   50.5429   17.0255 H   0  0  0  0  0  0
    1.9011   49.1589   16.7641 H   0  0  0  0  0  0
    2.3518   50.3608   17.9431 H   0  0  0  0  0  0
   -0.7217   47.4844   18.6046 H   0  0  0  0  0  0
   -0.7840   48.5090   17.1784 H   0  0  0  0  0  0
    0.5051   47.3172   17.3530 H   0  0  0  0  0  0
    1.9359   50.8548   19.5926 H   0  0  0  0  0  0
    2.5669   52.5109   24.9332 H   0  0  0  0  0  0
    2.1774   53.3315   26.5793 H   0  0  0  0  0  0
    2.9337   53.5028   28.8761 H   0  0  0  0  0  0
    2.4759   53.2057   31.2805 H   0  0  0  0  0  0
    0.3042   52.3695   32.0560 H   0  0  0  0  0  0
   -1.3826   51.6065   30.4327 H   0  0  0  0  0  0
   -2.0607   51.2270   28.0528 H   0  0  0  0  0  0
   -3.5836   51.8914   24.5036 H   0  0  0  0  0  0
   -3.5582   52.2934   26.2157 H   0  0  0  0  0  0
   -2.6525   53.2798   25.0543 H   0  0  0  0  0  0
    4.4054   55.1692   19.6853 H   0  0  0  0  0  0
    5.8097   54.5348   20.5454 H   0  0  0  0  0  0
    5.0299   53.4500   18.1335 H   0  0  0  0  0  0
    5.8020   52.5095   19.3875 H   0  0  0  0  0  0
    3.9043   51.1975   19.2814 H   0  0  0  0  0  0
    2.8964   52.5141   18.6277 H   0  0  0  0  0  0
  1  2  1  0  0  0
  1 32  1  0  0  0
  1 33  1  0  0  0
  1 34  1  0  0  0
  2  3  1  0  0  0
  2  4  1  0  0  0
  3 35  1  0  0  0
  3 36  1  0  0  0
  3 37  1  0  0  0
  4  5  2  0  0  0
  4  6  1  0  0  0
  6  7  1  0  0  0
  6 38  1  0  0  0
  7  8  2  0  0  0
  7  9  1  0  0  0
  9 13  2  0  0  0
  9 10  1  0  0  0
 10 31  1  0  0  0
 10 11  2  0  0  0
 11 12  1  0  0  0
 11 29  1  0  0  0
 12 13  1  0  0  0
 13 14  1  0  0  0
 14 15  1  0  0  0
 14 39  1  0  0  0
 15 16  2  0  0  0
 15 17  1  0  0  0
 17 26  2  0  0  0
 17 18  1  0  0  0
 18 19  2  0  0  0
 18 40  1  0  0  0
 19 24  1  0  0  0
 19 20  1  0  0  0
 20 21  2  0  0  0
 20 41  1  0  0  0
 21 22  1  0  0  0
 21 42  1  0  0  0
 22 23  2  0  0  0
 22 43  1  0  0  0
 23 24  1  0  0  0
 23 44  1  0  0  0
 24 25  2  0  0  0
 25 26  1  0  0  0
 25 45  1  0  0  0
 26 27  1  0  0  0
 27 28  1  0  0  0
 28 46  1  0  0  0
 28 47  1  0  0  0
 28 48  1  0  0  0
 29 30  1  0  0  0
 29 49  1  0  0  0
 29 50  1  0  0  0
 30 31  1  0  0  0
 30 51  1  0  0  0
 30 52  1  0  0  0
 31 53  1  0  0  0
 31 54  1  0  0  0
M  END
> <i_i_glide_confnum>
27

> <i_i_glide_lignum>
2735

> <i_i_glide_posenum>
147

> <i_i_glide_rotatable_bonds>
8

> <i_m_Source_File_Index>
5931

> <b_m_subgroup_collapsed>
0

> <r_i_docking_score>
-3.1346

> <r_i_glide_ecoul>
-1.72595

> <r_i_glide_eff_state_penalty>
0

> <r_i_glide_einternal>
15.7738

> <r_i_glide_emodel>
-37.9123

> <r_i_glide_energy>
-38.1506

> <r_i_glide_erotb>
0.625084

> <r_i_glide_esite>
-0.0493448

> <r_i_glide_evdw>
-36.4246

> <r_i_glide_gscore>
-3.1346

> <r_i_glide_hbond>
0

> <r_i_glide_ligand_efficiency>
-0.101116

> <r_i_glide_ligand_efficiency_ln>
-0.706949

> <r_i_glide_ligand_efficiency_sa>
-0.317645

> <r_i_glide_lipo>
-0.890442

> <r_i_glide_metal>
0

> <r_i_glide_rewards>
-0.739777

> <s_i_glide_gridfile>
wee1_glide-grid

> <s_m_Source_File>
wee1_decoys_glide_SP.sdf

> <s_m_Source_Path>
/Users/zhangxujun/Desktop

> <s_m_entry_id>
6206

> <s_m_entry_name>
wee1_decoys_glide_SP.5931

> <s_m_subgroup_title>
wee1_decoys_glide_SP

> <s_m_subgroupid>
wee1_decoys_glide_SP


$$$$
