@<TRIPOS>MOLECULE
ZINC43424145_1686
38   40    1
SMALL
USER_CHARGES


@<TRIPOS>ATOM
      1 C1          1.2153   50.7181   23.8115 C.ar      1 UNK         0.0000 
      2 C2          0.4992   49.5854   24.2013 C.ar      1 UNK         0.0000 
      3 C3         -0.3359   49.6232   25.3196 C.ar      1 UNK         0.0000 
      4 C4         -0.4792   50.8206   26.0406 C.ar      1 UNK         0.0000 
      5 C5          0.1934   51.9655   25.6070 C.ar      1 UNK         0.0000 
      6 C6          1.0798   51.9141   24.5239 C.ar      1 UNK         0.0000 
      7 S7          2.0423   53.3694   24.0663 S.o2      1 UNK         0.0000 
      8 O8          1.1044   54.4886   23.9873 O.2       1 UNK         0.0000 
      9 O9          2.8407   53.0055   22.8905 O.2       1 UNK         0.0000 
     10 N10         3.1354   53.7170   25.4345 N.pl3     1 UNK         0.0000 
     11 C11         2.6053   53.6967   26.8325 C.3       1 UNK         0.0000 
     12 C12         3.4553   54.4967   27.8597 C.3       1 UNK         0.0000 
     13 O13         4.8589   54.4734   27.5781 O.3       1 UNK         0.0000 
     14 C14         5.1349   54.8967   26.2486 C.3       1 UNK         0.0000 
     15 H15         4.6862   55.8767   26.0814 H         1 UNK         0.0000 
     16 C16         4.6066   53.8434   25.3065 C.3       1 UNK         0.0000 
     17 H17         4.9705   52.8967   25.6822 H         1 UNK         0.0000 
     18 C18         5.3116   54.1273   23.9811 C.3       1 UNK         0.0000 
     19 C19         6.7044   54.6225   24.4074 C.3       1 UNK         0.0000 
     20 C20         6.6226   54.9616   25.9113 C.3       1 UNK         0.0000 
     21 N21        -1.2654   50.8967   27.1973 N.pl3     1 UNK         0.0000 
     22 O22        -1.0006   48.4764   25.6817 O.3       1 UNK         0.0000 
     23 H23         1.8833   50.6551   22.9641 H         1 UNK         0.0000 
     24 H24         0.6181   48.6628   23.6524 H         1 UNK         0.0000 
     25 H25         0.0415   52.8906   26.1375 H         1 UNK         0.0000 
     26 H26         2.6438   52.6564   27.1582 H         1 UNK         0.0000 
     27 H27         1.5813   54.0626   26.8450 H         1 UNK         0.0000 
     28 H28         3.2882   54.1154   28.8673 H         1 UNK         0.0000 
     29 H29         3.1055   55.5294   27.8579 H         1 UNK         0.0000 
     30 H30         4.7790   54.8965   23.4227 H         1 UNK         0.0000 
     31 H31         5.3728   53.2446   23.3440 H         1 UNK         0.0000 
     32 H32         7.4594   53.8535   24.2346 H         1 UNK         0.0000 
     33 H33         7.0021   55.4919   23.8183 H         1 UNK         0.0000 
     34 H34         7.1885   54.2555   26.5213 H         1 UNK         0.0000 
     35 H35         7.0162   55.9604   26.0980 H         1 UNK         0.0000 
     36 H36        -1.4932   50.0187   27.6742 H         1 UNK         0.0000 
     37 H37        -1.2504   51.7480   27.7370 H         1 UNK         0.0000 
     38 H38        -1.2883   48.4765   26.6120 H         1 UNK         0.0000 
@<TRIPOS>BOND
     1    1    6 ar   
     2    1    2 ar   
     3    1   23 1    
     4    2    3 ar   
     5    2   24 1    
     6    3    4 ar   
     7    3   22 1    
     8    4    5 ar   
     9    4   21 1    
    10    5    6 ar   
    11    5   25 1    
    12    6    7 1    
    13    7    8 2    
    14    7    9 2    
    15    7   10 1    
    16   10   16 1    
    17   10   11 1    
    18   11   12 1    
    19   11   26 1    
    20   11   27 1    
    21   12   13 1    
    22   12   28 1    
    23   12   29 1    
    24   13   14 1    
    25   14   15 1    
    26   14   20 1    
    27   14   16 1    
    28   16   17 1    
    29   16   18 1    
    30   18   19 1    
    31   18   30 1    
    32   18   31 1    
    33   19   20 1    
    34   19   32 1    
    35   19   33 1    
    36   20   34 1    
    37   20   35 1    
    38   21   36 1    
    39   21   37 1    
    40   22   38 1    
@<TRIPOS>SUBSTRUCTURE
     1 UNK         1 GROUP             0       ****    0 ROOT    
