@<TRIPOS>MOLECULE
ZINC34683850_5683
67   71    1
SMALL
USER_CHARGES


@<TRIPOS>ATOM
      1 C1          7.1038   53.9892   27.6510 C.3       1 UNK         0.0000 
      2 O2          5.8591   54.5697   27.2790 O.3       1 UNK         0.0000 
      3 C3          4.7066   54.1182   27.8877 C.ar      1 UNK         0.0000 
      4 C4          3.5024   54.6851   27.4768 C.ar      1 UNK         0.0000 
      5 C5          2.2928   54.2914   28.0420 C.ar      1 UNK         0.0000 
      6 C6          2.2642   53.2579   28.9850 C.ar      1 UNK         0.0000 
      7 C7          3.4709   52.7124   29.4372 C.ar      1 UNK         0.0000 
      8 C8          4.6731   53.1352   28.8819 C.ar      1 UNK         0.0000 
      9 O9          3.5049   51.6967   30.3526 O.3       1 UNK         0.0000 
     10 C10         3.5220   52.0966   31.7107 C.3       1 UNK         0.0000 
     11 C11         0.9317   52.6392   29.3926 C.3       1 UNK         0.0000 
     12 N12         0.0091   52.2993   28.1941 N.4       1 UNK         0.0000 
     13 C13         0.7412   51.5139   27.0790 C.3       1 UNK         0.0000 
     14 C14        -0.2106   51.4961   25.8824 C.3       1 UNK         0.0000 
     15 C15        -1.4825   50.6962   26.2246 C.3       1 UNK         0.0000 
     16 C16        -2.1799   51.3256   27.4718 C.3       1 UNK         0.0000 
     17 C17        -1.2264   51.5029   28.6689 C.3       1 UNK         0.0000 
     18 N18        -2.3694   50.6339   25.0451 N.pl3     1 UNK         0.0000 
     19 C19        -3.4298   51.5448   24.9191 C.ar      1 UNK         0.0000 
     20 C20        -3.1923   52.8672   24.4909 C.ar      1 UNK         0.0000 
     21 C21        -4.2280   53.8115   24.4818 C.ar      1 UNK         0.0000 
     22 C22        -5.4893   53.3840   24.8817 C.ar      1 UNK         0.0000 
     23 C23        -5.7305   52.0928   25.2575 C.ar      1 UNK         0.0000 
     24 C24        -4.7212   51.1413   25.2941 C.ar      1 UNK         0.0000 
     25 O25        -7.0376   51.9625   25.6039 O.3       1 UNK         0.0000 
     26 C26        -7.6512   53.1430   25.1678 C.3       1 UNK         0.0000 
     27 O27        -6.6403   54.0971   24.9803 O.3       1 UNK         0.0000 
     28 S28        -2.0650   49.4182   23.7650 S.o2      1 UNK         0.0000 
     29 O29        -1.7652   48.1469   24.4352 O.2       1 UNK         0.0000 
     30 O30        -3.1598   49.5201   22.7908 O.2       1 UNK         0.0000 
     31 C31        -0.5738   49.9487   22.9260 C.ar      1 UNK         0.0000 
     32 C32        -0.6271   51.0462   22.0609 C.ar      1 UNK         0.0000 
     33 C33         0.5410   51.5060   21.4530 C.ar      1 UNK         0.0000 
     34 C34         1.7511   50.8631   21.7085 C.ar      1 UNK         0.0000 
     35 C35         1.8019   49.7586   22.5574 C.ar      1 UNK         0.0000 
     36 C36         0.6394   49.2968   23.1671 C.ar      1 UNK         0.0000 
     37 F37         2.8896   51.3162   21.1384 F         1 UNK         0.0000 
     38 H38         7.9041   54.4958   27.1153 H         1 UNK         0.0000 
     39 H39         7.1393   52.9316   27.3848 H         1 UNK         0.0000 
     40 H40         7.3032   54.0951   28.7172 H         1 UNK         0.0000 
     41 H41         3.5071   55.4186   26.6865 H         1 UNK         0.0000 
     42 H42         1.3742   54.7335   27.6807 H         1 UNK         0.0000 
     43 H43         5.5702   52.6548   29.2227 H         1 UNK         0.0000 
     44 H44         3.7201   51.2275   32.3371 H         1 UNK         0.0000 
     45 H45         4.3038   52.8291   31.9152 H         1 UNK         0.0000 
     46 H46         2.5558   52.4961   32.0141 H         1 UNK         0.0000 
     47 H47         1.0636   51.6962   29.9254 H         1 UNK         0.0000 
     48 H48         0.3544   53.3185   30.0229 H         1 UNK         0.0000 
     49 H49         1.6456   52.0533   26.7940 H         1 UNK         0.0000 
     50 H50         1.0052   50.5213   27.4525 H         1 UNK         0.0000 
     51 H51        -0.4607   52.5222   25.6159 H         1 UNK         0.0000 
     52 H52         0.3264   51.0787   25.0408 H         1 UNK         0.0000 
     53 H53        -1.1816   49.6800   26.4868 H         1 UNK         0.0000 
     54 H54        -3.0241   50.7058   27.7734 H         1 UNK         0.0000 
     55 H55        -2.5753   52.3132   27.2382 H         1 UNK         0.0000 
     56 H56        -0.8710   50.5589   29.0727 H         1 UNK         0.0000 
     57 H57        -1.6953   52.0890   29.4587 H         1 UNK         0.0000 
     58 H58        -2.1996   53.1697   24.1937 H         1 UNK         0.0000 
     59 H59        -4.0472   54.8312   24.1762 H         1 UNK         0.0000 
     60 H60        -4.9102   50.1298   25.6249 H         1 UNK         0.0000 
     61 H61        -8.3935   53.4897   25.8874 H         1 UNK         0.0000 
     62 H62        -8.1505   52.9580   24.2125 H         1 UNK         0.0000 
     63 H63        -1.5653   51.5496   21.8745 H         1 UNK         0.0000 
     64 H64         0.5184   52.3582   20.7905 H         1 UNK         0.0000 
     65 H65         2.7454   49.2724   22.7566 H         1 UNK         0.0000 
     66 H66         0.6931   48.4545   23.8428 H         1 UNK         0.0000 
     67 H67        -0.2901   53.1825   27.8080 H         1 UNK         0.0000 
@<TRIPOS>BOND
     1    1    2 1    
     2    1   38 1    
     3    1   39 1    
     4    1   40 1    
     5    2    3 1    
     6    3    8 ar   
     7    3    4 ar   
     8    4    5 ar   
     9    4   41 1    
    10    5    6 ar   
    11    5   42 1    
    12    6    7 ar   
    13    6   11 1    
    14    7    8 ar   
    15    7    9 1    
    16    8   43 1    
    17    9   10 1    
    18   10   44 1    
    19   10   45 1    
    20   10   46 1    
    21   11   12 1    
    22   11   47 1    
    23   11   48 1    
    24   12   17 1    
    25   12   13 1    
    26   12   67 1    
    27   13   14 1    
    28   13   49 1    
    29   13   50 1    
    30   14   15 1    
    31   14   51 1    
    32   14   52 1    
    33   15   16 1    
    34   15   18 1    
    35   15   53 1    
    36   16   17 1    
    37   16   54 1    
    38   16   55 1    
    39   17   56 1    
    40   17   57 1    
    41   18   19 1    
    42   18   28 1    
    43   19   24 ar   
    44   19   20 ar   
    45   20   21 ar   
    46   20   58 1    
    47   21   22 ar   
    48   21   59 1    
    49   22   27 1    
    50   22   23 ar   
    51   23   24 ar   
    52   23   25 1    
    53   24   60 1    
    54   25   26 1    
    55   26   27 1    
    56   26   61 1    
    57   26   62 1    
    58   28   29 2    
    59   28   30 2    
    60   28   31 1    
    61   31   36 ar   
    62   31   32 ar   
    63   32   33 ar   
    64   32   63 1    
    65   33   34 ar   
    66   33   64 1    
    67   34   35 ar   
    68   34   37 1    
    69   35   36 ar   
    70   35   65 1    
    71   36   66 1    
@<TRIPOS>SUBSTRUCTURE
     1 UNK         1 GROUP             0       ****    0 ROOT    
