ZINC45599653_3237
                    3D
 Schrodinger Suite 2024-2.
 63 67  0  0  1  0            999 V2000
    1.7002   46.8027   16.6828 C   0  0  0  0  0  0
    0.3953   47.3932   17.2576 C   0  0  2  0  0  0
   -0.4001   46.7000   16.9778 H   0  0  0  0  0  0
   -0.0118   48.7593   16.6625 C   0  0  0  0  0  0
    1.0324   49.8625   16.9477 C   0  0  0  0  0  0
    1.4523   49.8070   18.4195 C   0  0  0  0  0  0
    1.1676   48.7112   19.2406 C   0  0  0  0  0  0
    1.7341   48.8967   20.8814 S   0  0  0  0  0  0
    2.4676   50.4190   20.4712 C   0  0  0  0  0  0
    2.2275   50.7944   19.1164 C   0  0  0  0  0  0
    2.7931   52.0383   18.7404 C   0  0  0  0  0  0
    3.5157   52.7838   19.6142 N   0  0  0  0  0  0
    3.6783   52.2790   20.8626 C   0  0  0  0  0  0
    3.1704   51.1253   21.3561 N   0  0  0  0  0  0
    4.4815   53.1134   21.8368 C   0  0  0  0  0  0
    3.5046   54.4966   22.4727 S   0  0  0  0  0  0
    2.9139   53.8755   24.0010 C   0  0  0  0  0  0
    1.8012   53.1970   24.1071 N   0  0  0  0  0  0
    1.6096   52.9257   25.4527 N   0  0  0  0  0  0
    2.6254   53.4386   26.1116 C   0  0  0  0  0  0
    3.4847   54.0965   25.2404 N   0  0  0  0  0  0
    4.6810   54.9007   25.5349 C   0  0  0  0  0  0
    5.8673   54.0632   26.0659 C   0  0  0  0  0  0
    6.8232   53.6967   24.9229 C   0  0  0  0  0  0
    6.6346   54.7804   27.1912 C   0  0  0  0  0  0
    2.8639   53.2716   27.4561 N   0  0  0  0  0  0
    2.0439   52.2638   28.1638 C   0  0  0  0  0  0
    2.5813   51.9069   29.5664 C   0  0  0  0  0  0
    2.8092   53.0631   30.3588 O   0  0  0  0  0  0
    3.5745   54.0454   29.6821 C   0  0  0  0  0  0
    2.8707   54.4295   28.3624 C   0  0  0  0  0  0
    2.6611   52.5594   17.4543 N   0  0  0  0  0  0
    0.3881   47.4743   18.8025 C   0  0  0  0  0  0
    2.5745   47.3859   16.9749 H   0  0  0  0  0  0
    1.8595   45.7829   17.0336 H   0  0  0  0  0  0
    1.6749   46.7729   15.5933 H   0  0  0  0  0  0
   -0.1288   48.6738   15.5812 H   0  0  0  0  0  0
   -0.9812   49.0643   17.0607 H   0  0  0  0  0  0
    0.6026   50.8320   16.6958 H   0  0  0  0  0  0
    1.9040   49.7312   16.3053 H   0  0  0  0  0  0
    5.3696   53.5047   21.3397 H   0  0  0  0  0  0
    4.8611   52.4967   22.6442 H   0  0  0  0  0  0
    4.9776   55.4385   24.6356 H   0  0  0  0  0  0
    4.3958   55.6951   26.2158 H   0  0  0  0  0  0
    5.4872   53.1311   26.4902 H   0  0  0  0  0  0
    7.4100   54.5503   24.5811 H   0  0  0  0  0  0
    7.5044   52.9150   25.2452 H   0  0  0  0  0  0
    6.2884   53.3032   24.0637 H   0  0  0  0  0  0
    7.1021   55.6963   26.8346 H   0  0  0  0  0  0
    5.9776   55.0471   28.0191 H   0  0  0  0  0  0
    7.4232   54.1466   27.5985 H   0  0  0  0  0  0
    2.0257   51.3433   27.5803 H   0  0  0  0  0  0
    1.0060   52.5961   28.2255 H   0  0  0  0  0  0
    1.8433   51.2968   30.0809 H   0  0  0  0  0  0
    3.5037   51.3320   29.4703 H   0  0  0  0  0  0
    3.6869   54.8967   30.3389 H   0  0  0  0  0  0
    4.5769   53.6643   29.4743 H   0  0  0  0  0  0
    1.8538   54.7824   28.5463 H   0  0  0  0  0  0
    3.4025   55.2724   27.9363 H   0  0  0  0  0  0
    2.2566   51.9813   16.7325 H   0  0  0  0  0  0
    3.1298   53.4258   17.2362 H   0  0  0  0  0  0
    0.8199   46.5709   19.2346 H   0  0  0  0  0  0
   -0.6389   47.5253   19.1656 H   0  0  0  0  0  0
  1  2  1  0  0  0
  1 34  1  0  0  0
  1 35  1  0  0  0
  1 36  1  0  0  0
  2  3  1  0  0  0
  2 33  1  0  0  0
  2  4  1  0  0  0
  4  5  1  0  0  0
  4 37  1  0  0  0
  4 38  1  0  0  0
  5  6  1  0  0  0
  5 39  1  0  0  0
  5 40  1  0  0  0
  6 10  1  0  0  0
  6  7  2  0  0  0
  7  8  1  0  0  0
  7 33  1  0  0  0
  8  9  1  0  0  0
  9 14  2  0  0  0
  9 10  1  0  0  0
 10 11  2  0  0  0
 11 12  1  0  0  0
 11 32  1  0  0  0
 12 13  2  0  0  0
 13 14  1  0  0  0
 13 15  1  0  0  0
 15 16  1  0  0  0
 15 41  1  0  0  0
 15 42  1  0  0  0
 16 17  1  0  0  0
 17 21  1  0  0  0
 17 18  2  0  0  0
 18 19  1  0  0  0
 19 20  2  0  0  0
 20 21  1  0  0  0
 20 26  1  0  0  0
 21 22  1  0  0  0
 22 23  1  0  0  0
 22 43  1  0  0  0
 22 44  1  0  0  0
 23 24  1  0  0  0
 23 25  1  0  0  0
 23 45  1  0  0  0
 24 46  1  0  0  0
 24 47  1  0  0  0
 24 48  1  0  0  0
 25 49  1  0  0  0
 25 50  1  0  0  0
 25 51  1  0  0  0
 26 31  1  0  0  0
 26 27  1  0  0  0
 27 28  1  0  0  0
 27 52  1  0  0  0
 27 53  1  0  0  0
 28 29  1  0  0  0
 28 54  1  0  0  0
 28 55  1  0  0  0
 29 30  1  0  0  0
 30 31  1  0  0  0
 30 56  1  0  0  0
 30 57  1  0  0  0
 31 58  1  0  0  0
 31 59  1  0  0  0
 32 60  1  0  0  0
 32 61  1  0  0  0
 33 62  1  0  0  0
 33 63  1  0  0  0
M  END
> <i_i_glide_confnum>
414

> <i_i_glide_lignum>
3238

> <i_i_glide_posenum>
213

> <i_i_glide_rotatable_bonds>
6

> <i_m_Source_File_Index>
5047

> <b_m_subgroup_collapsed>
0

> <r_i_docking_score>
-4.88395

> <r_i_glide_ecoul>
1.00201

> <r_i_glide_eff_state_penalty>
0

> <r_i_glide_einternal>
5.5258

> <r_i_glide_emodel>
-50.3937

> <r_i_glide_energy>
-39.431

> <r_i_glide_erotb>
0.450832

> <r_i_glide_esite>
-0.0465931

> <r_i_glide_evdw>
-40.433

> <r_i_glide_gscore>
-4.88395

> <r_i_glide_hbond>
-0.32

> <r_i_glide_ligand_efficiency>
-0.152623

> <r_i_glide_ligand_efficiency_ln>
-1.09365

> <r_i_glide_ligand_efficiency_sa>
-0.484549

> <r_i_glide_lipo>
-1.7773

> <r_i_glide_metal>
0

> <r_i_glide_rewards>
-1.31954

> <s_i_glide_gridfile>
wee1_glide-grid

> <s_m_Source_File>
wee1_decoys_glide_SP.sdf

> <s_m_Source_Path>
/Users/zhangxujun/Desktop

> <s_m_entry_id>
5322

> <s_m_entry_name>
wee1_decoys_glide_SP.5047

> <s_m_subgroup_title>
wee1_decoys_glide_SP

> <s_m_subgroupid>
wee1_decoys_glide_SP


$$$$
