@<TRIPOS>MOLECULE
ZINC63842496_1350
37   39    1
SMALL
USER_CHARGES


@<TRIPOS>ATOM
      1 C1          3.8150   54.0957   26.7137 C.2       1 UNK         0.0000 
      2 C2          5.0915   54.3966   27.3459 C.2       1 UNK         0.0000 
      3 C3          6.2039   54.6868   26.6220 C.2       1 UNK         0.0000 
      4 C4          6.1551   54.7050   25.2207 C.2       1 UNK         0.0000 
      5 N5          7.1002   54.9611   24.3449 N.pl3     1 UNK         0.0000 
      6 C6          6.5678   54.8493   22.9843 C.3       1 UNK         0.0000 
      7 C7          5.1289   54.4421   23.2298 C.2       1 UNK         0.0000 
      8 C8          4.9533   54.4079   24.5649 C.2       1 UNK         0.0000 
      9 C9          3.7595   54.0992   25.3667 C.2       1 UNK         0.0000 
     10 C10         4.1470   54.2147   22.0819 C.3       1 UNK         0.0000 
     11 C11         4.1857   52.7835   21.5318 C.2       1 UNK         0.0000 
     12 O12         5.1949   52.0967   21.6819 O.2       1 UNK         0.0000 
     13 N13         3.0651   52.3493   20.9187 N.am      1 UNK         0.0000 
     14 N14         3.0754   51.0801   20.3361 N.am      1 UNK         0.0000 
     15 C15         2.1841   50.2016   20.8444 C.2       1 UNK         0.0000 
     16 O16         1.9665   50.0874   22.0548 O.2       1 UNK         0.0000 
     17 C17         1.4836   49.4066   19.8560 C.2       1 UNK         0.0000 
     18 C18         0.4046   48.6482   20.0947 C.2       1 UNK         0.0000 
     19 C19        -0.0164   48.0644   18.7725 C.3       1 UNK         0.0000 
     20 C20         1.1461   48.4842   17.8557 C.3       1 UNK         0.0000 
     21 H21         0.8519   48.8276   16.8643 H         1 UNK         0.0000 
     22 O22         1.9049   49.4452   18.5768 O.3       1 UNK         0.0000 
     23 Br23        2.3039   46.8966   17.5129 Br        1 UNK         0.0000 
     24 H24         2.9428   53.8607   27.3068 H         1 UNK         0.0000 
     25 H25         5.1597   54.3855   28.4252 H         1 UNK         0.0000 
     26 H26         7.1125   54.8973   27.1625 H         1 UNK         0.0000 
     27 H27         7.1604   54.0967   22.4828 H         1 UNK         0.0000 
     28 H28         6.7045   55.8068   22.4796 H         1 UNK         0.0000 
     29 H29         2.8152   53.8588   24.8998 H         1 UNK         0.0000 
     30 H30         4.3682   54.9006   21.2667 H         1 UNK         0.0000 
     31 H31         3.1379   54.4503   22.4227 H         1 UNK         0.0000 
     32 H32         2.3539   52.9643   20.5481 H         1 UNK         0.0000 
     33 H33         3.2661   51.1245   19.3434 H         1 UNK         0.0000 
     34 H34        -0.1115   48.4894   21.0304 H         1 UNK         0.0000 
     35 H35        -0.9581   48.5024   18.4427 H         1 UNK         0.0000 
     36 H36        -0.1495   46.9832   18.8050 H         1 UNK         0.0000 
     37 H37         8.0800   55.1794   24.5250 H         1 UNK         0.0000 
@<TRIPOS>BOND
     1    1    9 2    
     2    1    2 1    
     3    1   24 1    
     4    2    3 2    
     5    2   25 1    
     6    3    4 1    
     7    3   26 1    
     8    4    8 1    
     9    4    5 2    
    10    5    6 1    
    11    5   37 1    
    12    6    7 1    
    13    6   27 1    
    14    6   28 1    
    15    7    8 2    
    16    7   10 1    
    17    8    9 1    
    18    9   29 1    
    19   10   11 1    
    20   10   30 1    
    21   10   31 1    
    22   11   12 2    
    23   11   13 am   BACKBONE|DICT|INTERRES
    24   13   14 1    
    25   13   32 1    
    26   14   15 am   BACKBONE|DICT|INTERRES
    27   14   33 1    
    28   15   16 2    
    29   15   17 1    
    30   17   22 1    
    31   17   18 2    
    32   18   19 1    
    33   18   34 1    
    34   19   20 1    
    35   19   35 1    
    36   19   36 1    
    37   20   21 1    
    38   20   22 1    
    39   20   23 1    
@<TRIPOS>SUBSTRUCTURE
     1 UNK         1 GROUP             0       ****    0 ROOT    
