@<TRIPOS>MOLECULE
ZINC02258993_2945
47   48    1
SMALL
USER_CHARGES


@<TRIPOS>ATOM
      1 C1          0.6986   50.2724   24.7397 C.3       1 UNK         0.0000 
      2 C2          1.0104   50.6248   23.2982 C.ar      1 UNK         0.0000 
      3 C3          1.6532   49.6987   22.4751 C.ar      1 UNK         0.0000 
      4 C4          1.9180   50.0119   21.1449 C.ar      1 UNK         0.0000 
      5 C5          1.5390   51.2575   20.6426 C.ar      1 UNK         0.0000 
      6 C6          0.9303   52.1992   21.4717 C.ar      1 UNK         0.0000 
      7 C7          0.6535   51.8790   22.7980 C.ar      1 UNK         0.0000 
      8 S8          1.8182   51.6313   18.9152 S.o2      1 UNK         0.0000 
      9 O9          1.0000   52.7978   18.5640 O.2       1 UNK         0.0000 
     10 O10         1.6654   50.3677   18.1865 O.2       1 UNK         0.0000 
     11 N11         3.5042   52.0969   18.8276 N.pl3     1 UNK         0.0000 
     12 C12         3.9902   53.3962   19.3312 C.3       1 UNK         0.0000 
     13 H13         3.1045   54.0063   19.5276 H         1 UNK         0.0000 
     14 C14         4.7890   54.1759   18.2474 C.3       1 UNK         0.0000 
     15 Cl15        5.2384   55.7931   18.8675 Cl        1 UNK         0.0000 
     16 Cl16        6.2824   53.2979   17.8055 Cl        1 UNK         0.0000 
     17 Cl17        3.7891   54.4064   16.7835 Cl        1 UNK         0.0000 
     18 N18         4.7633   53.1924   20.5676 N.am      1 UNK         0.0000 
     19 C19         4.5086   53.8077   21.7376 C.2       1 UNK         0.0000 
     20 O20         3.5054   54.4967   21.8932 O.2       1 UNK         0.0000 
     21 C21         5.5365   53.6681   22.8815 C.3       1 UNK         0.0000 
     22 O22         5.3195   54.6922   23.8633 O.3       1 UNK         0.0000 
     23 C23         5.0732   54.3246   25.1696 C.ar      1 UNK         0.0000 
     24 C24         6.1401   54.2919   26.0731 C.ar      1 UNK         0.0000 
     25 C25         5.9167   54.0265   27.4273 C.ar      1 UNK         0.0000 
     26 C26         4.6186   53.7968   27.8874 C.ar      1 UNK         0.0000 
     27 C27         3.5540   53.8263   26.9931 C.ar      1 UNK         0.0000 
     28 C28         3.7686   54.0965   25.6401 C.ar      1 UNK         0.0000 
     29 C29         2.5658   54.1534   24.7187 C.3       1 UNK         0.0000 
     30 Cl30        4.3046   53.4952   29.5586 Cl        1 UNK         0.0000 
     31 H31         1.1570   49.3294   25.0452 H         1 UNK         0.0000 
     32 H32         1.0546   51.0573   25.4074 H         1 UNK         0.0000 
     33 H33        -0.3795   50.1931   24.8814 H         1 UNK         0.0000 
     34 H34         1.9308   48.7311   22.8620 H         1 UNK         0.0000 
     35 H35         2.4020   49.2852   20.5055 H         1 UNK         0.0000 
     36 H36         0.6695   53.1752   21.0885 H         1 UNK         0.0000 
     37 H37         0.1678   52.6044   23.4321 H         1 UNK         0.0000 
     38 H38         4.1956   51.3926   18.5055 H         1 UNK         0.0000 
     39 H39         5.6158   52.6681   20.4582 H         1 UNK         0.0000 
     40 H40         6.5394   53.8167   22.4801 H         1 UNK         0.0000 
     41 H41         5.5044   52.6597   23.2829 H         1 UNK         0.0000 
     42 H42         7.1406   54.4903   25.7201 H         1 UNK         0.0000 
     43 H43         6.7460   54.0123   28.1195 H         1 UNK         0.0000 
     44 H44         2.5529   53.6515   27.3610 H         1 UNK         0.0000 
     45 H45         1.6188   54.0899   25.2569 H         1 UNK         0.0000 
     46 H46         2.5641   55.0906   24.1631 H         1 UNK         0.0000 
     47 H47         2.6135   53.3322   24.0068 H         1 UNK         0.0000 
@<TRIPOS>BOND
     1    1    2 1    
     2    1   31 1    
     3    1   32 1    
     4    1   33 1    
     5    2    7 ar   
     6    2    3 ar   
     7    3    4 ar   
     8    3   34 1    
     9    4    5 ar   
    10    4   35 1    
    11    5    6 ar   
    12    5    8 1    
    13    6    7 ar   
    14    6   36 1    
    15    7   37 1    
    16    8    9 2    
    17    8   10 2    
    18    8   11 1    
    19   11   12 1    
    20   11   38 1    
    21   12   13 1    
    22   12   14 1    
    23   12   18 1    
    24   14   15 1    
    25   14   16 1    
    26   14   17 1    
    27   18   19 am   BACKBONE|DICT|INTERRES
    28   18   39 1    
    29   19   20 2    
    30   19   21 1    
    31   21   22 1    
    32   21   40 1    
    33   21   41 1    
    34   22   23 1    
    35   23   28 ar   
    36   23   24 ar   
    37   24   25 ar   
    38   24   42 1    
    39   25   26 ar   
    40   25   43 1    
    41   26   27 ar   
    42   26   30 1    
    43   27   28 ar   
    44   27   44 1    
    45   28   29 1    
    46   29   45 1    
    47   29   46 1    
    48   29   47 1    
@<TRIPOS>SUBSTRUCTURE
     1 UNK         1 GROUP             0       ****    0 ROOT    
