ZINC22017769_2617
                    3D
 Schrodinger Suite 2024-2.
 49 52  0  0  1  0            999 V2000
   -0.5475   51.9377   24.2505 C   0  0  0  0  0  0
    0.5070   51.0387   24.1400 C   0  0  0  0  0  0
    1.7763   51.5098   23.8212 C   0  0  0  0  0  0
    2.0114   52.8800   23.6496 C   0  0  0  0  0  0
    0.9433   53.7690   23.7496 C   0  0  0  0  0  0
   -0.3339   53.2966   24.0452 C   0  0  0  0  0  0
    3.4214   53.3999   23.3028 C   0  0  0  0  0  0
    3.6151   54.3236   22.1030 C   0  0  0  0  0  0
    4.0684   52.8978   21.9907 C   0  0  2  0  0  0
    5.1382   52.6956   21.9753 H   0  0  0  0  0  0
    3.2836   51.9539   21.0461 C   0  0  0  0  0  0
    3.5045   50.7462   21.1242 O   0  0  0  0  0  0
    2.3996   52.4968   20.1769 N   0  0  0  0  0  0
    1.5964   51.6949   19.3552 N   0  0  0  0  0  0
    0.4764   51.1151   19.8499 C   0  0  0  0  0  0
    0.0835   51.2227   21.0127 O   0  0  0  0  0  0
   -0.2862   50.2599   18.8620 C   0  0  0  0  0  0
    0.4385   49.2188   18.2542 C   0  0  0  0  0  0
   -0.1724   48.3116   17.3976 C   0  0  0  0  0  0
   -1.5298   48.4191   17.1370 C   0  0  0  0  0  0
   -2.2686   49.4425   17.7218 C   0  0  0  0  0  0
   -1.6850   50.3959   18.5816 C   0  0  0  0  0  0
   -2.5859   51.5052   19.0992 C   0  0  0  0  0  0
   -2.0957   52.4965   19.6815 O   0  0  0  0  0  0
   -3.8180   51.4210   18.8848 O   0  5  0  0  0  0
    4.2996   53.7958   24.5198 C   0  0  0  0  0  0
    5.6492   54.1464   24.3428 C   0  0  0  0  0  0
    6.4476   54.4964   25.4270 C   0  0  0  0  0  0
    5.9085   54.4975   26.7095 C   0  0  0  0  0  0
    4.5743   54.1564   26.9104 C   0  0  0  0  0  0
    3.7745   53.8110   25.8232 C   0  0  0  0  0  0
   -1.5404   51.5741   24.4712 H   0  0  0  0  0  0
    0.3378   49.9800   24.2731 H   0  0  0  0  0  0
    2.5710   50.7904   23.6956 H   0  0  0  0  0  0
    1.1038   54.8248   23.5903 H   0  0  0  0  0  0
   -1.1643   53.9838   24.0817 H   0  0  0  0  0  0
    2.7034   54.7094   21.6817 H   0  0  0  0  0  0
    4.3950   55.0821   22.0823 H   0  0  0  0  0  0
    2.1588   53.4790   20.1342 H   0  0  0  0  0  0
    2.0951   51.3504   18.5471 H   0  0  0  0  0  0
    1.4944   49.0879   18.4545 H   0  0  0  0  0  0
    0.4084   47.5217   16.9444 H   0  0  0  0  0  0
   -2.0106   47.7135   16.4756 H   0  0  0  0  0  0
   -3.3203   49.4949   17.4760 H   0  0  0  0  0  0
    6.1005   54.1515   23.3625 H   0  0  0  0  0  0
    7.4830   54.7568   25.2653 H   0  0  0  0  0  0
    6.5260   54.7636   27.5558 H   0  0  0  0  0  0
    4.1610   54.1577   27.9081 H   0  0  0  0  0  0
    2.7447   53.5474   26.0120 H   0  0  0  0  0  0
  1  6  2  0  0  0
  1  2  1  0  0  0
  1 32  1  0  0  0
  2  3  2  0  0  0
  2 33  1  0  0  0
  3  4  1  0  0  0
  3 34  1  0  0  0
  4  5  2  0  0  0
  4  7  1  0  0  0
  5  6  1  0  0  0
  5 35  1  0  0  0
  6 36  1  0  0  0
  7  9  1  0  0  0
  7  8  1  0  0  0
  7 26  1  0  0  0
  8  9  1  0  0  0
  8 37  1  0  0  0
  8 38  1  0  0  0
  9 10  1  0  0  0
  9 11  1  0  0  0
 11 12  2  0  0  0
 11 13  1  0  0  0
 13 14  1  0  0  0
 13 39  1  0  0  0
 14 15  1  0  0  0
 14 40  1  0  0  0
 15 16  2  0  0  0
 15 17  1  0  0  0
 17 22  2  0  0  0
 17 18  1  0  0  0
 18 19  2  0  0  0
 18 41  1  0  0  0
 19 20  1  0  0  0
 19 42  1  0  0  0
 20 21  2  0  0  0
 20 43  1  0  0  0
 21 22  1  0  0  0
 21 44  1  0  0  0
 22 23  1  0  0  0
 23 24  2  0  0  0
 23 25  1  0  0  0
 26 31  2  0  0  0
 26 27  1  0  0  0
 27 28  2  0  0  0
 27 45  1  0  0  0
 28 29  1  0  0  0
 28 46  1  0  0  0
 29 30  2  0  0  0
 29 47  1  0  0  0
 30 31  1  0  0  0
 30 48  1  0  0  0
 31 49  1  0  0  0
M  CHG  1  25  -1
M  END
> <i_i_glide_confnum>
5

> <i_i_glide_lignum>
2618

> <i_i_glide_posenum>
202

> <i_i_glide_rotatable_bonds>
8

> <i_m_Source_File_Index>
2108

> <b_m_subgroup_collapsed>
0

> <r_i_docking_score>
-5.61353

> <r_i_glide_ecoul>
-7.93983

> <r_i_glide_eff_state_penalty>
0

> <r_i_glide_einternal>
5.21724

> <r_i_glide_emodel>
-51.2936

> <r_i_glide_energy>
-34.4019

> <r_i_glide_erotb>
0.859748

> <r_i_glide_esite>
-0.0882143

> <r_i_glide_evdw>
-26.462

> <r_i_glide_gscore>
-5.61353

> <r_i_glide_hbond>
-0.48

> <r_i_glide_ligand_efficiency>
-0.187118

> <r_i_glide_ligand_efficiency_ln>
-1.27546

> <r_i_glide_ligand_efficiency_sa>
-0.581418

> <r_i_glide_lipo>
-2.62187

> <r_i_glide_metal>
0

> <r_i_glide_rewards>
-0.769115

> <s_i_glide_gridfile>
wee1_glide-grid

> <s_m_Source_File>
wee1_decoys_glide_SP.sdf

> <s_m_Source_Path>
/Users/zhangxujun/Desktop

> <s_m_entry_id>
2383

> <s_m_entry_name>
wee1_decoys_glide_SP.2108

> <s_m_subgroup_title>
wee1_decoys_glide_SP

> <s_m_subgroupid>
wee1_decoys_glide_SP


$$$$
