ZINC33023399_2912
                    3D
 Schrodinger Suite 2024-2.
 67 70  0  0  1  0            999 V2000
    3.8299   53.1220   27.9452 C   0  0  0  0  0  0
    2.5430   52.8288   28.6969 C   0  0  0  0  0  0
    1.3573   52.5951   27.9958 C   0  0  0  0  0  0
    0.1801   52.2802   28.6818 C   0  0  0  0  0  0
    0.1785   52.2519   30.0808 C   0  0  0  0  0  0
    1.3568   52.4965   30.7832 C   0  0  0  0  0  0
    2.5409   52.7564   30.0936 C   0  0  0  0  0  0
    3.6902   52.9208   30.7873 F   0  0  0  0  0  0
   -1.2968   51.8128   27.7830 S   0  0  0  0  0  0
   -1.6951   52.8965   26.8817 O   0  0  0  0  0  0
   -2.2560   51.2967   28.7633 O   0  0  0  0  0  0
   -0.8314   50.4594   26.7884 N   0  0  0  0  0  0
   -0.2233   50.5154   25.5306 C   0  0  0  0  0  0
    0.0311   51.7044   24.8404 C   0  0  0  0  0  0
    0.6068   51.6748   23.5838 C   0  0  0  0  0  0
    0.9532   50.4565   22.9879 C   0  0  0  0  0  0
    0.7048   49.2725   23.6883 C   0  0  0  0  0  0
    0.1232   49.2994   24.9495 C   0  0  0  0  0  0
    1.6282   50.4217   21.6401 C   0  0  0  0  0  0
    2.3046   49.4588   21.2819 O   0  0  0  0  0  0
    1.4567   51.5241   20.8936 N   0  0  0  0  0  0
    2.2579   51.9191   19.7397 C   0  0  0  0  0  0
    3.7077   52.4014   20.0664 C   0  0  2  0  0  0
    4.3245   51.4988   20.0544 H   0  0  0  0  0  0
    3.9623   53.0909   21.4302 C   0  0  0  0  0  0
    5.1923   52.8969   22.0506 C   0  0  0  0  0  0
    5.5135   53.5294   23.2478 C   0  0  0  0  0  0
    4.5471   54.2839   23.9211 C   0  0  0  0  0  0
    3.2905   54.4335   23.3393 C   0  0  0  0  0  0
    3.0097   53.8651   22.0982 C   0  0  0  0  0  0
    4.7514   54.8965   25.1431 O   0  0  0  0  0  0
    6.0209   54.7710   25.7787 C   0  0  0  0  0  0
    4.2532   53.1660   18.8272 N   0  3  0  0  0  0
    3.6228   54.5380   18.5125 C   0  0  0  0  0  0
    4.6428   55.2629   17.6261 C   0  0  0  0  0  0
    5.9164   54.4135   17.6260 C   0  0  0  0  0  0
    5.7664   53.4440   18.7926 C   0  0  0  0  0  0
    4.6443   52.5078   28.3317 H   0  0  0  0  0  0
    3.7409   52.9027   26.8806 H   0  0  0  0  0  0
    4.1132   54.1669   28.0715 H   0  0  0  0  0  0
    1.3685   52.6239   26.9185 H   0  0  0  0  0  0
   -0.7180   52.0011   30.6354 H   0  0  0  0  0  0
    1.3553   52.4459   31.8635 H   0  0  0  0  0  0
   -0.9993   49.5453   27.2134 H   0  0  0  0  0  0
   -0.1852   52.6783   25.2366 H   0  0  0  0  0  0
    0.7923   52.6219   23.1020 H   0  0  0  0  0  0
    0.9872   48.3168   23.2810 H   0  0  0  0  0  0
   -0.0498   48.3710   25.4774 H   0  0  0  0  0  0
    0.7463   52.1737   21.1901 H   0  0  0  0  0  0
    1.6933   52.7211   19.2656 H   0  0  0  0  0  0
    2.2870   51.1015   19.0135 H   0  0  0  0  0  0
    5.9044   52.2412   21.5837 H   0  0  0  0  0  0
    6.4952   53.3740   23.6659 H   0  0  0  0  0  0
    2.5341   55.0089   23.8503 H   0  0  0  0  0  0
    2.0297   54.0197   21.6819 H   0  0  0  0  0  0
    6.0036   55.3001   26.7313 H   0  0  0  0  0  0
    6.8161   55.2077   25.1732 H   0  0  0  0  0  0
    6.2629   53.7281   25.9903 H   0  0  0  0  0  0
    2.6401   54.3899   18.0636 H   0  0  0  0  0  0
    3.5046   55.0360   19.4744 H   0  0  0  0  0  0
    4.2583   55.3948   16.6120 H   0  0  0  0  0  0
    4.8372   56.2621   18.0238 H   0  0  0  0  0  0
    6.8131   55.0270   17.7240 H   0  0  0  0  0  0
    6.0083   53.8558   16.6916 H   0  0  0  0  0  0
    6.0356   53.8986   19.7452 H   0  0  0  0  0  0
    6.2932   52.4966   18.6849 H   0  0  0  0  0  0
    4.0804   52.5423   18.0478 H   0  0  0  0  0  0
  1  2  1  0  0  0
  1 38  1  0  0  0
  1 39  1  0  0  0
  1 40  1  0  0  0
  2  7  2  0  0  0
  2  3  1  0  0  0
  3  4  2  0  0  0
  3 41  1  0  0  0
  4  5  1  0  0  0
  4  9  1  0  0  0
  5  6  2  0  0  0
  5 42  1  0  0  0
  6  7  1  0  0  0
  6 43  1  0  0  0
  7  8  1  0  0  0
  9 10  2  0  0  0
  9 11  2  0  0  0
  9 12  1  0  0  0
 12 13  1  0  0  0
 12 44  1  0  0  0
 13 18  2  0  0  0
 13 14  1  0  0  0
 14 15  2  0  0  0
 14 45  1  0  0  0
 15 16  1  0  0  0
 15 46  1  0  0  0
 16 17  2  0  0  0
 16 19  1  0  0  0
 17 18  1  0  0  0
 17 47  1  0  0  0
 18 48  1  0  0  0
 19 20  2  0  0  0
 19 21  1  0  0  0
 21 22  1  0  0  0
 21 49  1  0  0  0
 22 23  1  0  0  0
 22 50  1  0  0  0
 22 51  1  0  0  0
 23 24  1  0  0  0
 23 25  1  0  0  0
 23 33  1  0  0  0
 25 30  2  0  0  0
 25 26  1  0  0  0
 26 27  2  0  0  0
 26 52  1  0  0  0
 27 28  1  0  0  0
 27 53  1  0  0  0
 28 29  2  0  0  0
 28 31  1  0  0  0
 29 30  1  0  0  0
 29 54  1  0  0  0
 30 55  1  0  0  0
 31 32  1  0  0  0
 32 56  1  0  0  0
 32 57  1  0  0  0
 32 58  1  0  0  0
 33 37  1  0  0  0
 33 34  1  0  0  0
 33 67  1  0  0  0
 34 35  1  0  0  0
 34 59  1  0  0  0
 34 60  1  0  0  0
 35 36  1  0  0  0
 35 61  1  0  0  0
 35 62  1  0  0  0
 36 37  1  0  0  0
 36 63  1  0  0  0
 36 64  1  0  0  0
 37 65  1  0  0  0
 37 66  1  0  0  0
M  CHG  1  33   1
M  END
> <i_i_glide_confnum>
221

> <i_i_glide_lignum>
2913

> <i_i_glide_posenum>
273

> <i_i_glide_rotatable_bonds>
10

> <i_m_Source_File_Index>
3923

> <b_m_subgroup_collapsed>
0

> <r_i_docking_score>
-4.02805

> <r_i_glide_ecoul>
-5.71098

> <r_i_glide_eff_state_penalty>
0

> <r_i_glide_einternal>
12.9134

> <r_i_glide_emodel>
-50.09

> <r_i_glide_energy>
-44.6177

> <r_i_glide_erotb>
0.702144

> <r_i_glide_esite>
-0.338583

> <r_i_glide_evdw>
-38.9068

> <r_i_glide_gscore>
-4.02805

> <r_i_glide_hbond>
-0.16

> <r_i_glide_ligand_efficiency>
-0.11189

> <r_i_glide_ligand_efficiency_ln>
-0.878812

> <r_i_glide_ligand_efficiency_sa>
-0.369454

> <r_i_glide_lipo>
-2.06921

> <r_i_glide_metal>
0

> <r_i_glide_rewards>
0.639586

> <s_i_glide_gridfile>
wee1_glide-grid

> <s_m_Source_File>
wee1_decoys_glide_SP.sdf

> <s_m_Source_Path>
/Users/zhangxujun/Desktop

> <s_m_entry_id>
4198

> <s_m_entry_name>
wee1_decoys_glide_SP.3923

> <s_m_subgroup_title>
wee1_decoys_glide_SP

> <s_m_subgroupid>
wee1_decoys_glide_SP


$$$$
