ZINC20940932_2142
                    3D
 Schrodinger Suite 2024-2.
 57 60  0  0  1  0            999 V2000
    1.7835   53.9651   27.3486 C   0  0  0  0  0  0
    3.2825   53.9542   27.1159 C   0  0  0  0  0  0
    4.1486   53.6464   28.1672 C   0  0  0  0  0  0
    5.5243   53.6142   27.9528 C   0  0  0  0  0  0
    6.0364   53.8712   26.6830 C   0  0  0  0  0  0
    5.1814   54.1782   25.6092 C   0  0  0  0  0  0
    3.8006   54.2306   25.8463 C   0  0  0  0  0  0
    5.7292   54.5065   24.3360 N   0  0  0  0  0  0
    5.3212   54.2171   23.0303 C   0  0  0  0  0  0
    6.2124   54.9195   22.1982 C   0  0  0  0  0  0
    7.0886   55.5226   23.0996 C   0  0  0  0  0  0
    6.8040   55.2966   24.3489 N   0  0  0  0  0  0
    6.1756   55.1590   20.7661 C   0  0  0  0  0  0
    5.1795   54.9091   20.0911 O   0  0  0  0  0  0
    7.2841   55.7602   20.2837 N   0  0  0  0  0  0
    7.4063   56.5609   19.1361 C   0  0  0  0  0  0
    8.7001   56.7977   18.6740 C   0  0  0  0  0  0
    8.9146   57.6746   17.6147 C   0  0  0  0  0  0
    7.8378   58.3355   17.0065 C   0  0  0  0  0  0
    6.5385   58.0957   17.4749 C   0  0  0  0  0  0
    6.3222   57.2101   18.5275 C   0  0  0  0  0  0
    8.1029   59.3036   15.8938 C   0  0  0  0  0  0
    9.2334   59.6616   15.5619 O   0  0  0  0  0  0
    6.9167   59.8215   15.0812 C   0  0  0  0  0  0
    4.1291   53.3326   22.7071 C   0  0  0  0  0  0
    2.8957   54.1106   22.2290 C   0  0  0  0  0  0
    1.6971   53.1633   22.0584 C   0  0  0  0  0  0
    2.0695   52.0976   21.0106 N   0  3  0  0  0  0
    3.2809   51.2524   21.4465 C   0  0  0  0  0  0
    4.4743   52.1888   21.7059 C   0  0  0  0  0  0
    1.5024   53.2292   28.1034 H   0  0  0  0  0  0
    1.4499   54.9481   27.6819 H   0  0  0  0  0  0
    1.2468   53.6943   26.4390 H   0  0  0  0  0  0
    3.7587   53.4316   29.1514 H   0  0  0  0  0  0
    6.1949   53.3836   28.7677 H   0  0  0  0  0  0
    7.1062   53.8291   26.5419 H   0  0  0  0  0  0
    3.1181   54.5049   25.0590 H   0  0  0  0  0  0
    7.9049   56.1744   22.8471 H   0  0  0  0  0  0
    8.1164   55.6970   20.8480 H   0  0  0  0  0  0
    9.5493   56.3187   19.1423 H   0  0  0  0  0  0
    9.9293   57.8427   17.2811 H   0  0  0  0  0  0
    5.6839   58.6074   17.0531 H   0  0  0  0  0  0
    5.3121   57.0745   18.8834 H   0  0  0  0  0  0
    6.2898   58.9915   14.7580 H   0  0  0  0  0  0
    7.2586   60.3528   14.1937 H   0  0  0  0  0  0
    6.3033   60.4940   15.6815 H   0  0  0  0  0  0
    3.7912   52.8967   23.6363 H   0  0  0  0  0  0
    2.6125   54.8832   22.9433 H   0  0  0  0  0  0
    3.1045   54.5961   21.2813 H   0  0  0  0  0  0
    1.4298   52.6360   22.9766 H   0  0  0  0  0  0
    0.8185   53.6747   21.6772 H   0  0  0  0  0  0
    1.2792   51.4943   20.8271 H   0  0  0  0  0  0
    2.9749   50.6967   22.3352 H   0  0  0  0  0  0
    3.4771   50.5482   20.6348 H   0  0  0  0  0  0
    4.7819   52.5803   20.7378 H   0  0  0  0  0  0
    5.2917   51.5746   22.0815 H   0  0  0  0  0  0
    2.2893   52.5656   20.1394 H   0  0  0  0  0  0
  1  2  1  0  0  0
  1 31  1  0  0  0
  1 32  1  0  0  0
  1 33  1  0  0  0
  2  7  2  0  0  0
  2  3  1  0  0  0
  3  4  2  0  0  0
  3 34  1  0  0  0
  4  5  1  0  0  0
  4 35  1  0  0  0
  5  6  2  0  0  0
  5 36  1  0  0  0
  6  7  1  0  0  0
  6  8  1  0  0  0
  7 37  1  0  0  0
  8 12  1  0  0  0
  8  9  1  0  0  0
  9 10  2  0  0  0
  9 25  1  0  0  0
 10 11  1  0  0  0
 10 13  1  0  0  0
 11 12  2  0  0  0
 11 38  1  0  0  0
 13 14  2  0  0  0
 13 15  1  0  0  0
 15 16  1  0  0  0
 15 39  1  0  0  0
 16 21  2  0  0  0
 16 17  1  0  0  0
 17 18  2  0  0  0
 17 40  1  0  0  0
 18 19  1  0  0  0
 18 41  1  0  0  0
 19 20  2  0  0  0
 19 22  1  0  0  0
 20 21  1  0  0  0
 20 42  1  0  0  0
 21 43  1  0  0  0
 22 23  2  0  0  0
 22 24  1  0  0  0
 24 44  1  0  0  0
 24 45  1  0  0  0
 24 46  1  0  0  0
 25 30  1  0  0  0
 25 26  1  0  0  0
 25 47  1  0  0  0
 26 27  1  0  0  0
 26 48  1  0  0  0
 26 49  1  0  0  0
 27 28  1  0  0  0
 27 50  1  0  0  0
 27 51  1  0  0  0
 28 29  1  0  0  0
 28 52  1  0  0  0
 28 57  1  0  0  0
 29 30  1  0  0  0
 29 53  1  0  0  0
 29 54  1  0  0  0
 30 55  1  0  0  0
 30 56  1  0  0  0
M  CHG  1  28   1
M  END
> <i_i_glide_confnum>
1

> <i_i_glide_lignum>
2143

> <i_i_glide_posenum>
17

> <i_i_glide_rotatable_bonds>
6

> <i_m_Source_File_Index>
1114

> <b_m_subgroup_collapsed>
0

> <r_i_docking_score>
-5.27435

> <r_i_glide_ecoul>
-1.80782

> <r_i_glide_eff_state_penalty>
0

> <r_i_glide_einternal>
3.82214

> <r_i_glide_emodel>
-49.3019

> <r_i_glide_energy>
-37.5816

> <r_i_glide_erotb>
0.602975

> <r_i_glide_esite>
-0.0392485

> <r_i_glide_evdw>
-35.7738

> <r_i_glide_gscore>
-5.27435

> <r_i_glide_hbond>
0

> <r_i_glide_ligand_efficiency>
-0.175812

> <r_i_glide_ligand_efficiency_ln>
-1.19839

> <r_i_glide_ligand_efficiency_sa>
-0.546287

> <r_i_glide_lipo>
-2.52697

> <r_i_glide_metal>
0

> <r_i_glide_rewards>
-1.25124

> <s_i_glide_gridfile>
wee1_glide-grid

> <s_m_Source_File>
wee1_decoys_glide_SP.sdf

> <s_m_Source_Path>
/Users/zhangxujun/Desktop

> <s_m_entry_id>
1389

> <s_m_entry_name>
wee1_decoys_glide_SP.1114

> <s_m_subgroup_title>
wee1_decoys_glide_SP

> <s_m_subgroupid>
wee1_decoys_glide_SP


$$$$
