@<TRIPOS>MOLECULE
ZINC15737487_2453
64   68    1
SMALL
USER_CHARGES


@<TRIPOS>ATOM
      1 C1          5.9838   54.3391   28.2525 C.3       1 UNK         0.0000 
      2 C2          4.9275   53.6775   27.3515 C.3       1 UNK         0.0000 
      3 H3          5.2686   52.6494   27.2239 H         1 UNK         0.0000 
      4 C4          3.5001   53.5611   28.0336 C.3       1 UNK         0.0000 
      5 C5          3.1323   54.8077   28.9084 C.3       1 UNK         0.0000 
      6 C6          1.7509   54.6380   29.5925 C.3       1 UNK         0.0000 
      7 C7          0.7001   54.4879   28.4818 C.3       1 UNK         0.0000 
      8 C8          0.9810   53.2253   27.6246 C.3       1 UNK         0.0000 
      9 C9          2.3705   53.3707   26.9632 C.3       1 UNK         0.0000 
     10 C10         0.9684   51.9667   28.5177 C.3       1 UNK         0.0000 
     11 C11         2.0271   52.1461   29.6245 C.3       1 UNK         0.0000 
     12 C12         1.6922   53.3639   30.4762 C.3       1 UNK         0.0000 
     13 C13         3.4359   52.3380   29.0083 C.3       1 UNK         0.0000 
     14 N14         4.9293   54.1689   25.9538 N.am      1 UNK         0.0000 
     15 C15         5.9847   54.4962   25.1710 C.2       1 UNK         0.0000 
     16 O16         7.1040   54.7635   25.6160 O.2       1 UNK         0.0000 
     17 C17         5.7511   54.4967   23.6716 C.ar      1 UNK         0.0000 
     18 C18         4.6545   53.8306   23.0981 C.ar      1 UNK         0.0000 
     19 C19         4.4694   53.8266   21.7177 C.ar      1 UNK         0.0000 
     20 C20         5.3779   54.4873   20.8895 C.ar      1 UNK         0.0000 
     21 C21         6.4691   55.1594   21.4422 C.ar      1 UNK         0.0000 
     22 C22         6.6589   55.1526   22.8236 C.ar      1 UNK         0.0000 
     23 S23         5.1270   54.4864   19.1132 S.o2      1 UNK         0.0000 
     24 O24         3.7824   53.9638   18.8571 O.2       1 UNK         0.0000 
     25 O25         5.5186   55.8192   18.6400 O.2       1 UNK         0.0000 
     26 N26         6.2556   53.2966   18.4644 N.pl3     1 UNK         0.0000 
     27 C27         7.2244   53.7192   17.4329 C.3       1 UNK         0.0000 
     28 H28         6.6238   54.1672   16.6371 H         1 UNK         0.0000 
     29 C29         7.9178   52.4574   16.8742 C.3       1 UNK         0.0000 
     30 C30         9.1304   52.8812   16.0316 C.3       1 UNK         0.0000 
     31 S31         9.8006   54.4204   16.8648 S.o2      1 UNK         0.0000 
     32 O32        10.9706   54.0965   17.6811 O.2       1 UNK         0.0000 
     33 O33         9.8569   55.5012   15.8765 O.2       1 UNK         0.0000 
     34 C34         8.3152   54.6542   17.9807 C.3       1 UNK         0.0000 
     35 H35         5.8666   54.0253   29.2817 H         1 UNK         0.0000 
     36 H36         6.9982   54.0406   27.9917 H         1 UNK         0.0000 
     37 H37         5.9045   55.4258   28.2271 H         1 UNK         0.0000 
     38 H38         3.1274   55.6968   28.2822 H         1 UNK         0.0000 
     39 H39         3.8750   54.9894   29.6824 H         1 UNK         0.0000 
     40 H40         1.5270   55.5185   30.1966 H         1 UNK         0.0000 
     41 H41        -0.2933   54.4121   28.9208 H         1 UNK         0.0000 
     42 H42         0.7044   55.3824   27.8573 H         1 UNK         0.0000 
     43 H43         0.2191   53.1153   26.8532 H         1 UNK         0.0000 
     44 H44         2.5765   52.4970   26.3445 H         1 UNK         0.0000 
     45 H45         2.3384   54.2204   26.2803 H         1 UNK         0.0000 
     46 H46         1.1776   51.0698   27.9288 H         1 UNK         0.0000 
     47 H47        -0.0207   51.8184   28.9570 H         1 UNK         0.0000 
     48 H48         2.0162   51.2965   30.2856 H         1 UNK         0.0000 
     49 H49         0.7098   53.2551   30.9425 H         1 UNK         0.0000 
     50 H50         2.4113   53.3467   31.2816 H         1 UNK         0.0000 
     51 H51         4.1844   52.4270   29.7968 H         1 UNK         0.0000 
     52 H52         3.6617   51.4242   28.4846 H         1 UNK         0.0000 
     53 H53         4.0346   54.1202   25.4922 H         1 UNK         0.0000 
     54 H54         3.9383   53.2989   23.7096 H         1 UNK         0.0000 
     55 H55         3.6191   53.3078   21.2969 H         1 UNK         0.0000 
     56 H56         7.1713   55.6736   20.8021 H         1 UNK         0.0000 
     57 H57         7.5042   55.6822   23.2373 H         1 UNK         0.0000 
     58 H58         5.7989   52.3991   18.2476 H         1 UNK         0.0000 
     59 H59         8.2582   51.8094   17.6816 H         1 UNK         0.0000 
     60 H60         7.2231   51.8636   16.2761 H         1 UNK         0.0000 
     61 H61         9.9248   52.1491   15.8948 H         1 UNK         0.0000 
     62 H62         8.7771   53.1848   15.0468 H         1 UNK         0.0000 
     63 H63         8.0792   55.6971   18.1853 H         1 UNK         0.0000 
     64 H64         8.6248   54.2390   18.9384 H         1 UNK         0.0000 
@<TRIPOS>BOND
     1    1    2 1    
     2    1   35 1    
     3    1   36 1    
     4    1   37 1    
     5    2    3 1    
     6    2    4 1    
     7    2   14 1    
     8    4    9 1    
     9    4   13 1    
    10    4    5 1    
    11    5    6 1    
    12    5   38 1    
    13    5   39 1    
    14    6   12 1    
    15    6    7 1    
    16    6   40 1    
    17    7    8 1    
    18    7   41 1    
    19    7   42 1    
    20    8    9 1    
    21    8   10 1    
    22    8   43 1    
    23    9   44 1    
    24    9   45 1    
    25   10   11 1    
    26   10   46 1    
    27   10   47 1    
    28   11   12 1    
    29   11   13 1    
    30   11   48 1    
    31   12   49 1    
    32   12   50 1    
    33   13   51 1    
    34   13   52 1    
    35   14   15 am   BACKBONE|DICT|INTERRES
    36   14   53 1    
    37   15   16 2    
    38   15   17 1    
    39   17   22 ar   
    40   17   18 ar   
    41   18   19 ar   
    42   18   54 1    
    43   19   20 ar   
    44   19   55 1    
    45   20   21 ar   
    46   20   23 1    
    47   21   22 ar   
    48   21   56 1    
    49   22   57 1    
    50   23   24 2    
    51   23   25 2    
    52   23   26 1    
    53   26   27 1    
    54   26   58 1    
    55   27   28 1    
    56   27   34 1    
    57   27   29 1    
    58   29   30 1    
    59   29   59 1    
    60   29   60 1    
    61   30   31 1    
    62   30   61 1    
    63   30   62 1    
    64   31   32 2    
    65   31   33 2    
    66   31   34 1    
    67   34   63 1    
    68   34   64 1    
@<TRIPOS>SUBSTRUCTURE
     1 UNK         1 GROUP             0       ****    0 ROOT    
