ZINC00691652_3907
                    3D
 Schrodinger Suite 2024-2.
 45 48  0  0  1  0            999 V2000
    7.3169   54.7508   17.4499 C   0  0  0  0  0  0
    6.9755   54.8970   18.7962 C   0  0  0  0  0  0
    5.7384   54.3936   19.2399 C   0  0  0  0  0  0
    4.8713   53.7800   18.3940 N   0  0  0  0  0  0
    5.2231   53.6398   17.0910 C   0  0  0  0  0  0
    6.4335   54.1091   16.5817 C   0  0  0  0  0  0
    6.8309   53.8975   14.9154 Cl  0  0  0  0  0  0
    5.2862   54.4234   20.5666 N   0  0  0  0  0  0
    5.9023   54.8709   21.6815 C   0  0  0  0  0  0
    6.9706   55.4856   21.6999 O   0  0  0  0  0  0
    5.2467   54.4746   22.9206 C   0  0  0  0  0  0
    5.7887   54.4613   24.2066 C   0  0  0  0  0  0
    4.8569   54.0973   25.2194 C   0  0  0  0  0  0
    5.0349   53.9022   26.5986 C   0  0  0  0  0  0
    3.9564   53.4637   27.3637 C   0  0  0  0  0  0
    2.7048   53.2967   26.7472 C   0  0  0  0  0  0
    2.4913   53.5197   25.4192 N   0  0  0  0  0  0
    3.5544   53.8829   24.6965 C   0  0  0  0  0  0
    3.5138   54.0986   22.9557 S   0  0  0  0  0  0
    1.4701   52.8195   27.5180 C   0  0  0  0  0  0
    0.7518   53.9217   28.3269 C   0  0  0  0  0  0
    1.4136   54.3932   29.6362 C   0  0  0  0  0  0
    2.6807   55.2477   29.4277 C   0  0  0  0  0  0
    4.0108   54.4968   29.6686 C   0  0  0  0  0  0
    4.1860   53.2155   28.8449 C   0  0  0  0  0  0
    7.1042   54.6912   24.5005 N   0  0  0  0  0  0
    8.2648   55.1210   17.0875 H   0  0  0  0  0  0
    7.6816   55.3777   19.4537 H   0  0  0  0  0  0
    4.5188   53.1201   16.4577 H   0  0  0  0  0  0
    4.3939   53.9716   20.6985 H   0  0  0  0  0  0
    6.0030   54.0458   27.0537 H   0  0  0  0  0  0
    0.7543   52.4099   26.8018 H   0  0  0  0  0  0
    1.7132   51.9684   28.1533 H   0  0  0  0  0  0
   -0.2521   53.5671   28.5653 H   0  0  0  0  0  0
    0.6213   54.7904   27.6847 H   0  0  0  0  0  0
    1.6071   53.5454   30.2950 H   0  0  0  0  0  0
    0.6825   55.0023   30.1710 H   0  0  0  0  0  0
    2.6303   56.1153   30.0828 H   0  0  0  0  0  0
    2.6822   55.6867   28.4289 H   0  0  0  0  0  0
    4.1227   54.2392   30.7197 H   0  0  0  0  0  0
    4.8372   55.1754   29.4487 H   0  0  0  0  0  0
    3.5354   52.4277   29.2188 H   0  0  0  0  0  0
    5.1947   52.8253   28.9900 H   0  0  0  0  0  0
    7.7722   54.9397   23.7739 H   0  0  0  0  0  0
    7.4818   54.4972   25.4136 H   0  0  0  0  0  0
  1  6  2  0  0  0
  1  2  1  0  0  0
  1 27  1  0  0  0
  2  3  2  0  0  0
  2 28  1  0  0  0
  3  4  1  0  0  0
  3  8  1  0  0  0
  4  5  2  0  0  0
  5  6  1  0  0  0
  5 29  1  0  0  0
  6  7  1  0  0  0
  8  9  1  0  0  0
  8 30  1  0  0  0
  9 10  2  0  0  0
  9 11  1  0  0  0
 11 19  1  0  0  0
 11 12  2  0  0  0
 12 13  1  0  0  0
 12 26  1  0  0  0
 13 18  2  0  0  0
 13 14  1  0  0  0
 14 15  2  0  0  0
 14 31  1  0  0  0
 15 25  1  0  0  0
 15 16  1  0  0  0
 16 17  2  0  0  0
 16 20  1  0  0  0
 17 18  1  0  0  0
 18 19  1  0  0  0
 20 21  1  0  0  0
 20 32  1  0  0  0
 20 33  1  0  0  0
 21 22  1  0  0  0
 21 34  1  0  0  0
 21 35  1  0  0  0
 22 23  1  0  0  0
 22 36  1  0  0  0
 22 37  1  0  0  0
 23 24  1  0  0  0
 23 38  1  0  0  0
 23 39  1  0  0  0
 24 25  1  0  0  0
 24 40  1  0  0  0
 24 41  1  0  0  0
 25 42  1  0  0  0
 25 43  1  0  0  0
 26 44  1  0  0  0
 26 45  1  0  0  0
M  END
> <i_i_glide_confnum>
3

> <i_i_glide_lignum>
3908

> <i_i_glide_posenum>
252

> <i_i_glide_rotatable_bonds>
3

> <i_m_Source_File_Index>
2965

> <b_m_subgroup_collapsed>
0

> <r_i_docking_score>
-5.8589

> <r_i_glide_ecoul>
-1.00905

> <r_i_glide_eff_state_penalty>
0

> <r_i_glide_einternal>
2.73915

> <r_i_glide_emodel>
-54.3407

> <r_i_glide_energy>
-39.452

> <r_i_glide_erotb>
0.390167

> <r_i_glide_esite>
0

> <r_i_glide_evdw>
-38.4429

> <r_i_glide_gscore>
-5.8589

> <r_i_glide_hbond>
-0.219831

> <r_i_glide_ligand_efficiency>
-0.225342

> <r_i_glide_ligand_efficiency_ln>
-1.37594

> <r_i_glide_ligand_efficiency_sa>
-0.667575

> <r_i_glide_lipo>
-2.83637

> <r_i_glide_metal>
0

> <r_i_glide_rewards>
-1.11936

> <s_i_glide_gridfile>
wee1_glide-grid

> <s_m_Source_File>
wee1_decoys_glide_SP.sdf

> <s_m_Source_Path>
/Users/zhangxujun/Desktop

> <s_m_entry_id>
3240

> <s_m_entry_name>
wee1_decoys_glide_SP.2965

> <s_m_subgroup_title>
wee1_decoys_glide_SP

> <s_m_subgroupid>
wee1_decoys_glide_SP


$$$$
