ZINC35380549_4580
                    3D
 Schrodinger Suite 2024-2.
 42 43  0  0  1  0            999 V2000
    0.7044   50.4475   24.8819 C   0  0  0  0  0  0
   -0.6647   50.8472   25.4491 C   0  0  2  0  0  0
   -1.3251   49.9844   25.3316 H   0  0  0  0  0  0
   -1.3106   52.0041   24.6478 C   0  0  0  0  0  0
   -2.7587   52.2597   25.1124 C   0  0  0  0  0  0
   -2.8361   52.4759   26.6389 C   0  0  0  0  0  0
   -2.1116   51.3567   27.4261 C   0  0  0  0  0  0
   -0.6388   51.1986   26.9676 C   0  0  2  0  0  0
   -0.1956   50.3462   27.4914 H   0  0  0  0  0  0
    0.2282   52.3481   27.2802 N   0  0  0  0  0  0
    0.6687   52.7004   28.5055 C   0  0  0  0  0  0
    0.3492   52.0959   29.5268 O   0  0  0  0  0  0
    1.5499   53.9595   28.6384 C   0  0  0  0  0  0
    2.2289   54.2417   27.4100 O   0  0  0  0  0  0
    3.5192   53.8659   27.1780 C   0  0  0  0  0  0
    4.2603   53.3796   28.0345 O   0  0  0  0  0  0
    3.9062   54.0480   25.7435 C   0  0  0  0  0  0
    5.1812   54.4847   25.3276 C   0  0  0  0  0  0
    5.4603   54.4948   23.9477 C   0  0  0  0  0  0
    4.4726   54.0966   23.0305 C   0  0  0  0  0  0
    3.2195   53.7187   23.5232 C   0  0  0  0  0  0
    2.9465   53.6929   24.8462 N   0  0  0  0  0  0
    1.9371   53.2591   22.4588 Cl  0  0  0  0  0  0
    4.7791   54.1034   21.3209 Cl  0  0  0  0  0  0
    6.7044   54.9289   23.4750 N   0  0  0  0  0  0
    6.3977   54.9868   26.4676 Cl  0  0  0  0  0  0
    1.4222   51.2675   24.9365 H   0  0  0  0  0  0
    1.1047   49.5932   25.4296 H   0  0  0  0  0  0
    0.6271   50.1498   23.8352 H   0  0  0  0  0  0
   -1.3189   51.7538   23.5852 H   0  0  0  0  0  0
   -0.6998   52.9065   24.7127 H   0  0  0  0  0  0
   -3.1730   53.1220   24.5910 H   0  0  0  0  0  0
   -3.3845   51.4095   24.8359 H   0  0  0  0  0  0
   -2.3748   53.4329   26.8798 H   0  0  0  0  0  0
   -3.8777   52.5434   26.9529 H   0  0  0  0  0  0
   -2.1493   51.5591   28.4974 H   0  0  0  0  0  0
   -2.6398   50.4097   27.2970 H   0  0  0  0  0  0
    0.5907   52.8561   26.4871 H   0  0  0  0  0  0
    0.9085   54.8139   28.8520 H   0  0  0  0  0  0
    2.2202   53.8417   29.4931 H   0  0  0  0  0  0
    6.8584   54.8182   22.4833 H   0  0  0  0  0  0
    7.5114   54.8352   24.0807 H   0  0  0  0  0  0
  1  2  1  0  0  0
  1 27  1  0  0  0
  1 28  1  0  0  0
  1 29  1  0  0  0
  2  3  1  0  0  0
  2  8  1  0  0  0
  2  4  1  0  0  0
  4  5  1  0  0  0
  4 30  1  0  0  0
  4 31  1  0  0  0
  5  6  1  0  0  0
  5 32  1  0  0  0
  5 33  1  0  0  0
  6  7  1  0  0  0
  6 34  1  0  0  0
  6 35  1  0  0  0
  7  8  1  0  0  0
  7 36  1  0  0  0
  7 37  1  0  0  0
  8  9  1  0  0  0
  8 10  1  0  0  0
 10 11  1  0  0  0
 10 38  1  0  0  0
 11 12  2  0  0  0
 11 13  1  0  0  0
 13 14  1  0  0  0
 13 39  1  0  0  0
 13 40  1  0  0  0
 14 15  1  0  0  0
 15 16  2  0  0  0
 15 17  1  0  0  0
 17 22  2  0  0  0
 17 18  1  0  0  0
 18 19  2  0  0  0
 18 26  1  0  0  0
 19 20  1  0  0  0
 19 25  1  0  0  0
 20 21  2  0  0  0
 20 24  1  0  0  0
 21 22  1  0  0  0
 21 23  1  0  0  0
 25 41  1  0  0  0
 25 42  1  0  0  0
M  END
> <i_i_glide_confnum>
60

> <i_i_glide_lignum>
4581

> <i_i_glide_posenum>
287

> <i_i_glide_rotatable_bonds>
6

> <i_m_Source_File_Index>
3353

> <b_m_subgroup_collapsed>
0

> <r_i_docking_score>
-4.56702

> <r_i_glide_ecoul>
-1.87175

> <r_i_glide_eff_state_penalty>
0

> <r_i_glide_einternal>
4.08424

> <r_i_glide_emodel>
-46.9407

> <r_i_glide_energy>
-37.804

> <r_i_glide_erotb>
0.752919

> <r_i_glide_esite>
0

> <r_i_glide_evdw>
-35.9323

> <r_i_glide_gscore>
-4.56702

> <r_i_glide_hbond>
-0.118777

> <r_i_glide_ligand_efficiency>
-0.190293

> <r_i_glide_ligand_efficiency_ln>
-1.0931

> <r_i_glide_ligand_efficiency_sa>
-0.548899

> <r_i_glide_lipo>
-1.89772

> <r_i_glide_metal>
0

> <r_i_glide_rewards>
-1.22607

> <s_i_glide_gridfile>
wee1_glide-grid

> <s_m_Source_File>
wee1_decoys_glide_SP.sdf

> <s_m_Source_Path>
/Users/zhangxujun/Desktop

> <s_m_entry_id>
3628

> <s_m_entry_name>
wee1_decoys_glide_SP.3353

> <s_m_subgroup_title>
wee1_decoys_glide_SP

> <s_m_subgroupid>
wee1_decoys_glide_SP


$$$$
