ZINC05511062_6134
                    3D
 Schrodinger Suite 2024-2.
 18 18  0  0  1  0            999 V2000
    6.0857   54.2889   24.4212 C   0  0  0  0  0  0
    5.7923   54.3561   25.7865 C   0  0  0  0  0  0
    4.4350   54.2888   26.0322 C   0  0  0  0  0  0
    3.5273   54.0977   24.5740 S   0  0  0  0  0  0
    4.9779   54.0966   23.5903 C   0  0  0  0  0  0
    4.9587   53.9494   22.0742 C   0  0  0  0  0  0
    3.8098   53.1711   21.6620 N   0  0  0  0  0  0
    4.1041   51.9963   21.2807 N   0  0  0  0  0  0
    2.9928   51.2725   20.9156 C   0  0  0  0  0  0
    2.0262   51.0506   21.6438 O   0  0  0  0  0  0
    3.1045   50.7904   19.6817 N   0  0  0  0  0  0
    7.1037   54.4970   27.1558 Br  0  0  0  0  0  0
    7.0968   54.3363   24.0443 H   0  0  0  0  0  0
    3.9336   54.3195   26.9878 H   0  0  0  0  0  0
    5.9043   53.5445   21.7093 H   0  0  0  0  0  0
    4.8709   54.9294   21.6053 H   0  0  0  0  0  0
    3.9672   50.8961   19.1445 H   0  0  0  0  0  0
    2.3595   50.2322   19.3007 H   0  0  0  0  0  0
  1  5  2  0  0  0
  1  2  1  0  0  0
  1 13  1  0  0  0
  2  3  2  0  0  0
  2 12  1  0  0  0
  3  4  1  0  0  0
  3 14  1  0  0  0
  4  5  1  0  0  0
  5  6  1  0  0  0
  6  7  1  0  0  0
  6 15  1  0  0  0
  6 16  1  0  0  0
  7  8  2  0  0  0
  8  9  1  0  0  0
  9 10  2  0  0  0
  9 11  1  0  0  0
 11 17  1  0  0  0
 11 18  1  0  0  0
M  END
> <i_i_glide_confnum>
3

> <i_i_glide_lignum>
6135

> <i_i_glide_posenum>
308

> <i_i_glide_rotatable_bonds>
3

> <i_m_Source_File_Index>
435

> <b_m_subgroup_collapsed>
0

> <r_i_docking_score>
-4.79748

> <r_i_glide_ecoul>
-3.01843

> <r_i_glide_eff_state_penalty>
0

> <r_i_glide_einternal>
1.21808

> <r_i_glide_emodel>
-35.4565

> <r_i_glide_energy>
-27.4218

> <r_i_glide_erotb>
0.567363

> <r_i_glide_esite>
-0.0936788

> <r_i_glide_evdw>
-24.4034

> <r_i_glide_gscore>
-4.79748

> <r_i_glide_hbond>
-0.16

> <r_i_glide_ligand_efficiency>
-0.39979

> <r_i_glide_ligand_efficiency_ln>
-1.37665

> <r_i_glide_ligand_efficiency_sa>
-0.915291

> <r_i_glide_lipo>
-1.6111

> <r_i_glide_metal>
0

> <r_i_glide_rewards>
-1.82713

> <s_i_glide_gridfile>
wee1_glide-grid

> <s_m_Source_File>
wee1_decoys_glide_SP.sdf

> <s_m_Source_Path>
/Users/zhangxujun/Desktop

> <s_m_entry_id>
710

> <s_m_entry_name>
wee1_decoys_glide_SP.435

> <s_m_subgroup_title>
wee1_decoys_glide_SP

> <s_m_subgroupid>
wee1_decoys_glide_SP


$$$$
