@<TRIPOS>MOLECULE
ZINC40688658_3441
59   62    1
SMALL
USER_CHARGES


@<TRIPOS>ATOM
      1 C1          0.3318   51.1440   25.5737 C.3       1 UNK         0.0000 
      2 C2          0.3765   51.6879   26.9992 C.ar      1 UNK         0.0000 
      3 C3          1.5503   52.2893   27.4539 C.ar      1 UNK         0.0000 
      4 C4          1.6602   52.8048   28.7534 C.ar      1 UNK         0.0000 
      5 C5          0.5550   52.6865   29.6131 C.ar      1 UNK         0.0000 
      6 C6         -0.5962   52.0316   29.1858 C.ar      1 UNK         0.0000 
      7 C7         -0.7082   51.5578   27.8807 C.ar      1 UNK         0.0000 
      8 N8         -1.8868   50.8967   27.5154 N.pl3     1 UNK         0.0000 
      9 C9         -2.8067   51.2280   26.5052 C.ar      1 UNK         0.0000 
     10 C10        -3.6993   50.2645   25.9809 C.ar      1 UNK         0.0000 
     11 C11        -4.5857   50.7031   24.9576 C.ar      1 UNK         0.0000 
     12 N12        -4.5775   52.0023   24.5396 N.ar      1 UNK         0.0000 
     13 C13        -3.6920   52.8442   25.1132 C.ar      1 UNK         0.0000 
     14 N14        -2.8003   52.5177   26.0717 N.ar      1 UNK         0.0000 
     15 N15        -5.5100   49.9034   24.2688 N.pl3     1 UNK         0.0000 
     16 C16        -5.4040   48.4339   24.1448 C.3       1 UNK         0.0000 
     17 C17        -6.0463   47.8640   22.8604 C.3       1 UNK         0.0000 
     18 C18        -7.4840   48.3503   22.6401 C.3       1 UNK         0.0000 
     19 C19        -7.5152   49.8773   22.7783 C.3       1 UNK         0.0000 
     20 C20        -6.9172   50.3514   24.1259 C.3       1 UNK         0.0000 
     21 H21        -6.9245   51.4390   24.0453 H         1 UNK         0.0000 
     22 C22        -7.8123   49.9987   25.3324 C.3       1 UNK         0.0000 
     23 N23        -3.6955   48.9481   26.4816 N.pl3     1 UNK         0.0000 
     24 Cl24        0.5715   53.3382   31.2166 Cl        1 UNK         0.0000 
     25 C25         2.9560   53.4740   29.2460 C.3       1 UNK         0.0000 
     26 H26         2.6643   54.4329   29.6755 H         1 UNK         0.0000 
     27 C27         3.4915   52.7008   30.3844 C.1       1 UNK         0.0000 
     28 N28         3.9045   52.0953   31.2795 N.1       1 UNK         0.0000 
     29 C29         4.0303   53.8193   28.1958 C.ar      1 UNK         0.0000 
     30 C30         5.3716   53.4483   28.3615 C.ar      1 UNK         0.0000 
     31 C31         6.3232   53.7845   27.4026 C.ar      1 UNK         0.0000 
     32 C32         5.9363   54.4873   26.2650 C.ar      1 UNK         0.0000 
     33 C33         4.6082   54.8557   26.0824 C.ar      1 UNK         0.0000 
     34 C34         3.6654   54.5397   27.0545 C.ar      1 UNK         0.0000 
     35 Cl35        7.1043   54.9146   25.0734 Cl        1 UNK         0.0000 
     36 H36         1.2671   51.2962   25.0342 H         1 UNK         0.0000 
     37 H37         0.1130   50.0752   25.5869 H         1 UNK         0.0000 
     38 H38        -0.4562   51.6310   25.0010 H         1 UNK         0.0000 
     39 H39         2.3886   52.3362   26.7774 H         1 UNK         0.0000 
     40 H40        -1.4163   51.8974   29.8740 H         1 UNK         0.0000 
     41 H41        -1.9306   49.9395   27.8711 H         1 UNK         0.0000 
     42 H42        -3.6968   53.8685   24.7707 H         1 UNK         0.0000 
     43 H43        -4.3444   48.1777   24.0952 H         1 UNK         0.0000 
     44 H44        -5.8162   47.9514   25.0319 H         1 UNK         0.0000 
     45 H45        -5.4157   48.1023   22.0025 H         1 UNK         0.0000 
     46 H46        -6.0423   46.7751   22.9146 H         1 UNK         0.0000 
     47 H47        -7.8403   48.0491   21.6543 H         1 UNK         0.0000 
     48 H48        -8.1555   47.8875   23.3643 H         1 UNK         0.0000 
     49 H49        -6.9060   50.2800   21.9665 H         1 UNK         0.0000 
     50 H50        -8.5248   50.2651   22.6389 H         1 UNK         0.0000 
     51 H51        -8.7992   50.4503   25.2322 H         1 UNK         0.0000 
     52 H52        -7.9521   48.9244   25.4455 H         1 UNK         0.0000 
     53 H53        -7.3771   50.3692   26.2610 H         1 UNK         0.0000 
     54 H54        -4.3805   48.2895   26.1451 H         1 UNK         0.0000 
     55 H55        -3.0080   48.6660   27.1790 H         1 UNK         0.0000 
     56 H56         5.6937   52.9006   29.2319 H         1 UNK         0.0000 
     57 H57         7.3544   53.4952   27.5419 H         1 UNK         0.0000 
     58 H58         4.3113   55.3894   25.1935 H         1 UNK         0.0000 
     59 H59         2.6404   54.8470   26.9136 H         1 UNK         0.0000 
@<TRIPOS>BOND
     1    1    2 1    
     2    1   36 1    
     3    1   37 1    
     4    1   38 1    
     5    2    7 ar   
     6    2    3 ar   
     7    3    4 ar   
     8    3   39 1    
     9    4    5 ar   
    10    4   25 1    
    11    5    6 ar   
    12    5   24 1    
    13    6    7 ar   
    14    6   40 1    
    15    7    8 1    
    16    8    9 1    
    17    8   41 1    
    18    9   14 ar   
    19    9   10 ar   
    20   10   11 ar   
    21   10   23 1    
    22   11   12 ar   
    23   11   15 1    
    24   12   13 ar   
    25   13   14 ar   
    26   13   42 1    
    27   15   20 1    
    28   15   16 1    
    29   16   17 1    
    30   16   43 1    
    31   16   44 1    
    32   17   18 1    
    33   17   45 1    
    34   17   46 1    
    35   18   19 1    
    36   18   47 1    
    37   18   48 1    
    38   19   20 1    
    39   19   49 1    
    40   19   50 1    
    41   20   21 1    
    42   20   22 1    
    43   22   51 1    
    44   22   52 1    
    45   22   53 1    
    46   23   54 1    
    47   23   55 1    
    48   25   26 1    
    49   25   27 1    
    50   25   29 1    
    51   27   28 3    
    52   29   34 ar   
    53   29   30 ar   
    54   30   31 ar   
    55   30   56 1    
    56   31   32 ar   
    57   31   57 1    
    58   32   33 ar   
    59   32   35 1    
    60   33   34 ar   
    61   33   58 1    
    62   34   59 1    
@<TRIPOS>SUBSTRUCTURE
     1 UNK         1 GROUP             0       ****    0 ROOT    
