@<TRIPOS>MOLECULE
ZINC39673271_3075
66   70    1
SMALL
USER_CHARGES


@<TRIPOS>ATOM
      1 C1          3.0664   53.0582   29.8649 C.ar      1 UNK         0.0000 
      2 C2          2.0238   52.1469   29.9949 C.ar      1 UNK         0.0000 
      3 C3          1.2363   51.8060   28.8967 C.ar      1 UNK         0.0000 
      4 C4          1.4706   52.4073   27.6368 C.ar      1 UNK         0.0000 
      5 C5          0.7094   52.0625   26.4919 C.ar      1 UNK         0.0000 
      6 C6          0.9565   52.6676   25.2528 C.ar      1 UNK         0.0000 
      7 C7          1.9072   53.6922   25.1807 C.ar      1 UNK         0.0000 
      8 C8          2.7055   54.0188   26.2736 C.ar      1 UNK         0.0000 
      9 C9          2.5090   53.3795   27.5173 C.ar      1 UNK         0.0000 
     10 C10         3.3089   53.6835   28.6466 C.ar      1 UNK         0.0000 
     11 C11         0.1589   52.2232   24.0440 C.2       1 UNK         0.0000 
     12 O12        -1.0644   52.1140   24.1536 O.2       1 UNK         0.0000 
     13 N13         0.8055   51.8977   22.8902 N.am      1 UNK         0.0000 
     14 C14         2.2308   52.0416   22.5996 C.3       1 UNK         0.0000 
     15 C15         2.2187   52.2694   21.0867 C.3       1 UNK         0.0000 
     16 H16         1.8443   53.2736   20.8805 H         1 UNK         0.0000 
     17 C17         1.1644   51.2426   20.5824 C.3       1 UNK         0.0000 
     18 C18         0.0874   51.4382   21.6893 C.3       1 UNK         0.0000 
     19 C19         1.5842   49.7322   20.5978 C.3       1 UNK         0.0000 
     20 C20         2.5154   49.2985   19.4388 C.3       1 UNK         0.0000 
     21 N21         1.9043   49.6932   18.0820 N.4       1 UNK         0.0000 
     22 C22         1.4700   51.1726   18.0023 C.3       1 UNK         0.0000 
     23 C23         0.5344   51.5027   19.1876 C.3       1 UNK         0.0000 
     24 C24         3.6508   52.1807   20.5364 C.2       1 UNK         0.0000 
     25 O25         4.4944   51.4314   21.0325 O.2       1 UNK         0.0000 
     26 N26         3.9267   53.0771   19.5804 N.am      1 UNK         0.0000 
     27 C27         5.1968   53.2419   18.8879 C.3       1 UNK         0.0000 
     28 C28         5.6327   54.6880   18.9127 C.ar      1 UNK         0.0000 
     29 C29         5.4019   55.5027   17.8026 C.ar      1 UNK         0.0000 
     30 C30         5.8143   56.8300   17.8255 C.ar      1 UNK         0.0000 
     31 C31         6.4874   57.3286   18.9419 C.ar      1 UNK         0.0000 
     32 C32         6.7062   56.5143   20.0544 C.ar      1 UNK         0.0000 
     33 C33         6.2884   55.1916   20.0370 C.ar      1 UNK         0.0000 
     34 O34         6.9083   58.6328   18.9842 O.3       1 UNK         0.0000 
     35 C35         7.9547   58.9798   18.0799 C.3       1 UNK         0.0000 
     36 F36         7.6115   58.8864   16.7934 F         1 UNK         0.0000 
     37 F37         9.0770   58.3013   18.3230 F         1 UNK         0.0000 
     38 H38         3.6859   53.2894   30.7176 H         1 UNK         0.0000 
     39 H39         1.8257   51.6981   30.9573 H         1 UNK         0.0000 
     40 H40         0.4395   51.0825   29.0010 H         1 UNK         0.0000 
     41 H41        -0.0501   51.2980   26.5899 H         1 UNK         0.0000 
     42 H42         2.0456   54.2568   24.2710 H         1 UNK         0.0000 
     43 H43         3.4635   54.7834   26.1810 H         1 UNK         0.0000 
     44 H44         4.1075   54.4058   28.5580 H         1 UNK         0.0000 
     45 H45         2.7054   51.0903   22.8336 H         1 UNK         0.0000 
     46 H46         2.7867   52.8392   23.0811 H         1 UNK         0.0000 
     47 H47        -0.5522   52.2690   21.3844 H         1 UNK         0.0000 
     48 H48        -0.5614   50.5709   21.8235 H         1 UNK         0.0000 
     49 H49         2.0324   49.4567   21.5527 H         1 UNK         0.0000 
     50 H50         0.6880   49.1114   20.5427 H         1 UNK         0.0000 
     51 H51         3.5011   49.7612   19.4479 H         1 UNK         0.0000 
     52 H52         2.6884   48.2207   19.4070 H         1 UNK         0.0000 
     53 H53         2.6126   49.5101   17.3671 H         1 UNK         0.0000 
     54 H54         2.3872   51.7565   17.9832 H         1 UNK         0.0000 
     55 H55         0.9769   51.2879   17.0356 H         1 UNK         0.0000 
     56 H56        -0.3738   50.9060   19.0828 H         1 UNK         0.0000 
     57 H57         0.1954   52.5380   19.1178 H         1 UNK         0.0000 
     58 H58         3.1849   53.6929   19.2791 H         1 UNK         0.0000 
     59 H59         5.0819   52.8940   17.8592 H         1 UNK         0.0000 
     60 H60         5.9836   52.6115   19.3081 H         1 UNK         0.0000 
     61 H61         4.8914   55.1156   16.9325 H         1 UNK         0.0000 
     62 H62         5.6167   57.4670   16.9758 H         1 UNK         0.0000 
     63 H63         7.2002   56.8956   20.9323 H         1 UNK         0.0000 
     64 H64         6.4600   54.5646   20.9001 H         1 UNK         0.0000 
     65 H65         8.1959   60.0310   18.2329 H         1 UNK         0.0000 
     66 H66         1.1219   49.0919   17.8722 H         1 UNK         0.0000 
@<TRIPOS>BOND
     1    1   10 ar   
     2    1    2 ar   
     3    1   38 1    
     4    2    3 ar   
     5    2   39 1    
     6    3    4 ar   
     7    3   40 1    
     8    4    9 ar   
     9    4    5 ar   
    10    5    6 ar   
    11    5   41 1    
    12    6    7 ar   
    13    6   11 1    
    14    7    8 ar   
    15    7   42 1    
    16    8    9 ar   
    17    8   43 1    
    18    9   10 ar   
    19   10   44 1    
    20   11   12 2    
    21   11   13 am   BACKBONE|DICT|INTERRES
    22   13   18 1    
    23   13   14 1    
    24   14   15 1    
    25   14   45 1    
    26   14   46 1    
    27   15   16 1    
    28   15   17 1    
    29   15   24 1    
    30   17   23 1    
    31   17   18 1    
    32   17   19 1    
    33   18   47 1    
    34   18   48 1    
    35   19   20 1    
    36   19   49 1    
    37   19   50 1    
    38   20   21 1    
    39   20   51 1    
    40   20   52 1    
    41   21   22 1    
    42   21   53 1    
    43   21   66 1    
    44   22   23 1    
    45   22   54 1    
    46   22   55 1    
    47   23   56 1    
    48   23   57 1    
    49   24   25 2    
    50   24   26 am   BACKBONE|DICT|INTERRES
    51   26   27 1    
    52   26   58 1    
    53   27   28 1    
    54   27   59 1    
    55   27   60 1    
    56   28   33 ar   
    57   28   29 ar   
    58   29   30 ar   
    59   29   61 1    
    60   30   31 ar   
    61   30   62 1    
    62   31   32 ar   
    63   31   34 1    
    64   32   33 ar   
    65   32   63 1    
    66   33   64 1    
    67   34   35 1    
    68   35   36 1    
    69   35   37 1    
    70   35   65 1    
@<TRIPOS>SUBSTRUCTURE
     1 UNK         1 GROUP             0       ****    0 ROOT    
