ZINC17244900_3264
                    3D
 Schrodinger Suite 2024-2.
 59 62  0  0  1  0            999 V2000
    7.3877   49.8842   12.0152 C   0  0  0  0  0  0
    8.2459   50.7190   12.9791 C   0  0  2  0  0  0
    8.8327   51.4353   12.3969 H   0  0  0  0  0  0
    9.2418   49.8381   13.7740 C   0  0  0  0  0  0
   10.1262   50.6830   14.7228 C   0  0  1  0  0  0
   10.6736   51.4065   14.1132 H   0  0  0  0  0  0
    9.2129   51.4717   15.6877 C   0  0  0  0  0  0
    8.2299   52.2713   14.9170 N   0  0  0  0  0  0
    7.3696   51.5290   13.9641 C   0  0  0  0  0  0
    8.2589   54.0397   14.9629 S   0  0  0  0  0  0
    7.2223   54.5511   14.0600 O   0  0  0  0  0  0
    9.6540   54.4701   14.8184 O   0  0  0  0  0  0
    7.7430   54.4416   16.6300 C   0  0  0  0  0  0
    6.4022   54.3004   16.9869 C   0  0  0  0  0  0
    5.9965   54.5820   18.2889 C   0  0  0  0  0  0
    6.9338   55.0121   19.2409 C   0  0  0  0  0  0
    8.2748   55.1675   18.8635 C   0  0  0  0  0  0
    8.6803   54.8738   17.5667 C   0  0  0  0  0  0
    6.5450   55.2972   20.6702 C   0  0  0  0  0  0
    7.1038   56.2088   21.2817 O   0  0  0  0  0  0
    5.5764   54.5121   21.1895 N   0  0  0  0  0  0
    5.1966   54.4715   22.5203 C   0  0  0  0  0  0
    3.9955   54.0964   22.8507 N   0  0  0  0  0  0
    3.8402   54.0763   24.2011 C   0  0  0  0  0  0
    2.6563   53.7261   24.8628 C   0  0  0  0  0  0
    2.6563   53.6986   26.2577 C   0  0  0  0  0  0
    3.8098   53.9973   26.9995 C   0  0  0  0  0  0
    4.9861   54.3886   26.3543 C   0  0  0  0  0  0
    4.9952   54.4167   24.9535 C   0  0  0  0  0  0
    6.3050   54.8056   23.8535 S   0  0  0  0  0  0
    3.8667   53.9652   28.4024 N   0  0  0  0  0  0
    3.2289   53.1673   29.2828 C   0  0  0  0  0  0
    3.4486   53.2969   30.4817 O   0  0  0  0  0  0
    2.2646   52.0670   28.8441 C   0  0  0  0  0  0
   11.1365   49.8110   15.4869 C   0  0  0  0  0  0
    6.8019   49.1360   12.5504 H   0  0  0  0  0  0
    6.6899   50.5111   11.4593 H   0  0  0  0  0  0
    8.0076   49.3618   11.2881 H   0  0  0  0  0  0
    9.8717   49.2658   13.0915 H   0  0  0  0  0  0
    8.7044   49.0735   14.3400 H   0  0  0  0  0  0
    9.8019   52.1420   16.3158 H   0  0  0  0  0  0
    8.6561   50.8149   16.3564 H   0  0  0  0  0  0
    6.7049   50.8968   14.5515 H   0  0  0  0  0  0
    6.7366   52.2327   13.4238 H   0  0  0  0  0  0
    5.6762   53.9631   16.2606 H   0  0  0  0  0  0
    4.9532   54.4595   18.5408 H   0  0  0  0  0  0
    9.0207   55.4915   19.5772 H   0  0  0  0  0  0
    9.7225   54.9817   17.2995 H   0  0  0  0  0  0
    4.9521   54.0536   20.5440 H   0  0  0  0  0  0
    1.7654   53.4810   24.3047 H   0  0  0  0  0  0
    1.7275   53.4592   26.7510 H   0  0  0  0  0  0
    5.8778   54.6335   26.9148 H   0  0  0  0  0  0
    4.5666   54.5603   28.8188 H   0  0  0  0  0  0
    1.2653   52.4720   28.6804 H   0  0  0  0  0  0
    2.1828   51.3052   29.6195 H   0  0  0  0  0  0
    2.6043   51.5687   27.9386 H   0  0  0  0  0  0
   10.6334   49.0815   16.1243 H   0  0  0  0  0  0
   11.7799   49.2609   14.7999 H   0  0  0  0  0  0
   11.7797   50.4169   16.1231 H   0  0  0  0  0  0
  1  2  1  0  0  0
  1 36  1  0  0  0
  1 37  1  0  0  0
  1 38  1  0  0  0
  2  3  1  0  0  0
  2  9  1  0  0  0
  2  4  1  0  0  0
  4  5  1  0  0  0
  4 39  1  0  0  0
  4 40  1  0  0  0
  5  6  1  0  0  0
  5  7  1  0  0  0
  5 35  1  0  0  0
  7  8  1  0  0  0
  7 41  1  0  0  0
  7 42  1  0  0  0
  8  9  1  0  0  0
  8 10  1  0  0  0
  9 43  1  0  0  0
  9 44  1  0  0  0
 10 11  2  0  0  0
 10 12  2  0  0  0
 10 13  1  0  0  0
 13 18  2  0  0  0
 13 14  1  0  0  0
 14 15  2  0  0  0
 14 45  1  0  0  0
 15 16  1  0  0  0
 15 46  1  0  0  0
 16 17  2  0  0  0
 16 19  1  0  0  0
 17 18  1  0  0  0
 17 47  1  0  0  0
 18 48  1  0  0  0
 19 20  2  0  0  0
 19 21  1  0  0  0
 21 22  1  0  0  0
 21 49  1  0  0  0
 22 30  1  0  0  0
 22 23  2  0  0  0
 23 24  1  0  0  0
 24 29  2  0  0  0
 24 25  1  0  0  0
 25 26  2  0  0  0
 25 50  1  0  0  0
 26 27  1  0  0  0
 26 51  1  0  0  0
 27 28  2  0  0  0
 27 31  1  0  0  0
 28 29  1  0  0  0
 28 52  1  0  0  0
 29 30  1  0  0  0
 31 32  1  0  0  0
 31 53  1  0  0  0
 32 33  2  0  0  0
 32 34  1  0  0  0
 34 54  1  0  0  0
 34 55  1  0  0  0
 34 56  1  0  0  0
 35 57  1  0  0  0
 35 58  1  0  0  0
 35 59  1  0  0  0
M  END
> <i_i_glide_confnum>
78

> <i_i_glide_lignum>
3265

> <i_i_glide_posenum>
158

> <i_i_glide_rotatable_bonds>
7

> <i_m_Source_File_Index>
2171

> <b_m_subgroup_collapsed>
0

> <r_i_docking_score>
-4.81521

> <r_i_glide_ecoul>
-6.13664

> <r_i_glide_eff_state_penalty>
0

> <r_i_glide_einternal>
11.351

> <r_i_glide_emodel>
-56.8296

> <r_i_glide_energy>
-52.1453

> <r_i_glide_erotb>
0.514978

> <r_i_glide_esite>
0

> <r_i_glide_evdw>
-46.0087

> <r_i_glide_gscore>
-4.81521

> <r_i_glide_hbond>
-0.447563

> <r_i_glide_ligand_efficiency>
-0.145915

> <r_i_glide_ligand_efficiency_ln>
-1.07088

> <r_i_glide_ligand_efficiency_sa>
-0.468029

> <r_i_glide_lipo>
-2.71763

> <r_i_glide_metal>
0

> <r_i_glide_rewards>
1.05594

> <s_i_glide_gridfile>
wee1_glide-grid

> <s_m_Source_File>
wee1_decoys_glide_SP.sdf

> <s_m_Source_Path>
/Users/zhangxujun/Desktop

> <s_m_entry_id>
2446

> <s_m_entry_name>
wee1_decoys_glide_SP.2171

> <s_m_subgroup_title>
wee1_decoys_glide_SP

> <s_m_subgroupid>
wee1_decoys_glide_SP


$$$$
