@<TRIPOS>MOLECULE
ZINC09585613_3200
54   58    1
SMALL
USER_CHARGES


@<TRIPOS>ATOM
      1 C1          3.2751   53.1179   28.8254 C.ar      1 UNK         0.0000 
      2 C2          2.4577   52.0967   29.3004 C.ar      1 UNK         0.0000 
      3 C3          1.3448   51.6905   28.5629 C.ar      1 UNK         0.0000 
      4 C4          1.0313   52.3219   27.3550 C.ar      1 UNK         0.0000 
      5 C5          1.8467   53.3692   26.9051 C.ar      1 UNK         0.0000 
      6 C6          2.9711   53.7577   27.6276 C.ar      1 UNK         0.0000 
      7 C7         -0.2563   51.9447   26.6046 C.3       1 UNK         0.0000 
      8 C8         -0.1260   51.0679   25.3007 C.3       1 UNK         0.0000 
      9 C9         -1.5425   50.8685   24.7538 C.2       1 UNK         0.0000 
     10 O10        -2.3866   51.7538   24.5845 O.2       1 UNK         0.0000 
     11 N11        -1.6506   49.5558   24.4619 N.am      1 UNK         0.0000 
     12 C12        -0.6002   48.8146   24.8858 C.2       1 UNK         0.0000 
     13 O13        -0.2804   47.6958   24.4899 O.2       1 UNK         0.0000 
     14 N14         0.1528   49.6738   25.5899 N.am      1 UNK         0.0000 
     15 C15        -2.8433   48.9656   23.8158 C.3       1 UNK         0.0000 
     16 C16        -3.9456   48.4492   24.7622 C.2       1 UNK         0.0000 
     17 O17        -5.0333   48.2265   24.2348 O.2       1 UNK         0.0000 
     18 N18        -3.7054   48.2520   26.0822 N.am      1 UNK         0.0000 
     19 C19        -4.6225   47.7482   27.0303 C.ar      1 UNK         0.0000 
     20 C20        -5.6218   46.7974   26.7102 C.ar      1 UNK         0.0000 
     21 C21        -6.5088   46.3226   27.6851 C.ar      1 UNK         0.0000 
     22 C22        -6.3620   46.8092   28.9767 C.ar      1 UNK         0.0000 
     23 C23        -5.3867   47.7057   29.3025 C.ar      1 UNK         0.0000 
     24 C24        -4.4955   48.1964   28.3551 C.ar      1 UNK         0.0000 
     25 O25        -5.4620   47.9937   30.6270 O.3       1 UNK         0.0000 
     26 C26        -6.5309   47.2422   31.1408 C.3       1 UNK         0.0000 
     27 O27        -7.0828   46.5000   30.0831 O.3       1 UNK         0.0000 
     28 F28        -6.0863   46.4131   32.0823 F         1 UNK         0.0000 
     29 F29        -7.4543   48.0560   31.6552 F         1 UNK         0.0000 
     30 C30         0.7666   51.6616   24.1697 C.ar      1 UNK         0.0000 
     31 C31         0.7108   53.0330   23.8796 C.ar      1 UNK         0.0000 
     32 C32         1.5045   53.5862   22.8803 C.ar      1 UNK         0.0000 
     33 C33         2.2908   52.7583   22.0857 C.ar      1 UNK         0.0000 
     34 C34         2.3051   51.3846   22.3014 C.ar      1 UNK         0.0000 
     35 C35         1.5573   50.8415   23.3414 C.ar      1 UNK         0.0000 
     36 H36         4.1430   53.4233   29.3936 H         1 UNK         0.0000 
     37 H37         2.6847   51.6421   30.2514 H         1 UNK         0.0000 
     38 H38         0.7133   50.8968   28.9411 H         1 UNK         0.0000 
     39 H39         1.6093   53.9234   26.0135 H         1 UNK         0.0000 
     40 H40         3.5945   54.5640   27.2720 H         1 UNK         0.0000 
     41 H41        -0.7672   52.8844   26.3861 H         1 UNK         0.0000 
     42 H42        -0.9219   51.4503   27.3156 H         1 UNK         0.0000 
     43 H43         0.7745   49.3839   26.3318 H         1 UNK         0.0000 
     44 H44        -2.5524   48.1629   23.1397 H         1 UNK         0.0000 
     45 H45        -3.3053   49.7355   23.1953 H         1 UNK         0.0000 
     46 H46        -2.8024   48.5085   26.4573 H         1 UNK         0.0000 
     47 H47        -5.7226   46.4123   25.7077 H         1 UNK         0.0000 
     48 H48        -7.2742   45.6027   27.4328 H         1 UNK         0.0000 
     49 H49        -3.7127   48.8886   28.6369 H         1 UNK         0.0000 
     50 H50         0.0656   53.6867   24.4476 H         1 UNK         0.0000 
     51 H51         1.4806   54.6484   22.6865 H         1 UNK         0.0000 
     52 H52         2.8835   53.1865   21.2889 H         1 UNK         0.0000 
     53 H53         2.9074   50.7437   21.6732 H         1 UNK         0.0000 
     54 H54         1.6155   49.7741   23.4915 H         1 UNK         0.0000 
@<TRIPOS>BOND
     1    1    6 ar   
     2    1    2 ar   
     3    1   36 1    
     4    2    3 ar   
     5    2   37 1    
     6    3    4 ar   
     7    3   38 1    
     8    4    5 ar   
     9    4    7 1    
    10    5    6 ar   
    11    5   39 1    
    12    6   40 1    
    13    7    8 1    
    14    7   41 1    
    15    7   42 1    
    16    8   14 1    
    17    8    9 1    
    18    8   30 1    
    19    9   10 2    
    20    9   11 am   BACKBONE|DICT|INTERRES
    21   11   12 am   BACKBONE|DICT|INTERRES
    22   11   15 1    
    23   12   13 2    
    24   12   14 am   BACKBONE|DICT|INTERRES
    25   14   43 1    
    26   15   16 1    
    27   15   44 1    
    28   15   45 1    
    29   16   17 2    
    30   16   18 am   BACKBONE|DICT|INTERRES
    31   18   19 1    
    32   18   46 1    
    33   19   24 ar   
    34   19   20 ar   
    35   20   21 ar   
    36   20   47 1    
    37   21   22 ar   
    38   21   48 1    
    39   22   27 1    
    40   22   23 ar   
    41   23   24 ar   
    42   23   25 1    
    43   24   49 1    
    44   25   26 1    
    45   26   27 1    
    46   26   28 1    
    47   26   29 1    
    48   30   35 ar   
    49   30   31 ar   
    50   31   32 ar   
    51   31   50 1    
    52   32   33 ar   
    53   32   51 1    
    54   33   34 ar   
    55   33   52 1    
    56   34   35 ar   
    57   34   53 1    
    58   35   54 1    
@<TRIPOS>SUBSTRUCTURE
     1 UNK         1 GROUP             0       ****    0 ROOT    
