@<TRIPOS>MOLECULE
ZINC06287956_767
52   54    1
SMALL
USER_CHARGES


@<TRIPOS>ATOM
      1 C1          3.4931   52.6859   16.3504 C.3       1 UNK         0.0000 
      2 C2          4.3592   54.3842   18.0460 C.3       1 UNK         0.0000 
      3 C3          5.0113   54.5213   19.4404 C.3       1 UNK         0.0000 
      4 N4          4.3152   53.8070   20.5276 N.pl3     1 UNK         0.0000 
      5 C5          3.9493   52.4216   20.1810 C.3       1 UNK         0.0000 
      6 C6          3.2150   52.2910   18.8339 C.3       1 UNK         0.0000 
      7 C7          4.5693   54.0947   21.8597 C.ar      1 UNK         0.0000 
      8 C8          5.8556   54.4172   22.3097 C.ar      1 UNK         0.0000 
      9 C9          6.0991   54.6033   23.6661 C.ar      1 UNK         0.0000 
     10 C10         5.0507   54.4960   24.5827 C.ar      1 UNK         0.0000 
     11 C11         3.7527   54.2206   24.1372 C.ar      1 UNK         0.0000 
     12 C12         3.5229   54.0047   22.7824 C.ar      1 UNK         0.0000 
     13 N13         5.3944   54.6910   25.9259 N.pl3     1 UNK         0.0000 
     14 C14         5.0527   53.9574   27.0196 C.2       1 UNK         0.0000 
     15 S15         6.3046   53.6973   28.0815 S.2       1 UNK         0.0000 
     16 N16         3.7394   53.5749   27.1494 N.am      1 UNK         0.0000 
     17 C17         3.1016   52.8351   28.0963 C.2       1 UNK         0.0000 
     18 O18         3.6259   52.3815   29.1196 O.2       1 UNK         0.0000 
     19 C19         1.6359   52.5639   27.8289 C.ar      1 UNK         0.0000 
     20 C20         1.1879   52.3580   26.5120 C.ar      1 UNK         0.0000 
     21 C21        -0.1366   52.0310   26.2454 C.ar      1 UNK         0.0000 
     22 C22        -1.0367   51.8808   27.2918 C.ar      1 UNK         0.0000 
     23 C23        -0.6153   52.0968   28.6022 C.ar      1 UNK         0.0000 
     24 C24         0.7129   52.4550   28.8924 C.ar      1 UNK         0.0000 
     25 O25         1.1517   52.7099   30.1839 O.3       1 UNK         0.0000 
     26 C26         0.2401   52.6382   31.2725 C.3       1 UNK         0.0000 
     27 Br27       -0.7059   51.7739   24.4471 Br        1 UNK         0.0000 
     28 H28         2.5131   53.1630   16.3293 H         1 UNK         0.0000 
     29 H29         4.1712   53.1294   15.6225 H         1 UNK         0.0000 
     30 H30         3.4186   51.6060   16.1913 H         1 UNK         0.0000 
     31 H31         5.0430   54.7436   17.2727 H         1 UNK         0.0000 
     32 H32         3.3968   54.8994   17.9789 H         1 UNK         0.0000 
     33 H33         5.1447   55.5751   19.6898 H         1 UNK         0.0000 
     34 H34         5.9944   54.0517   19.3782 H         1 UNK         0.0000 
     35 H35         4.8921   51.8754   20.0938 H         1 UNK         0.0000 
     36 H36         3.3737   51.9438   20.9761 H         1 UNK         0.0000 
     37 H37         3.0861   51.2377   18.5691 H         1 UNK         0.0000 
     38 H38         2.2515   52.8032   18.8217 H         1 UNK         0.0000 
     39 H39         6.6801   54.4975   21.6176 H         1 UNK         0.0000 
     40 H40         7.1065   54.8256   23.9926 H         1 UNK         0.0000 
     41 H41         2.9116   54.1860   24.8094 H         1 UNK         0.0000 
     42 H42         2.5237   53.7713   22.4409 H         1 UNK         0.0000 
     43 H43         6.3043   55.1214   26.0137 H         1 UNK         0.0000 
     44 H44         3.1388   53.8840   26.4046 H         1 UNK         0.0000 
     45 H45         1.8697   52.4054   25.6745 H         1 UNK         0.0000 
     46 H46        -2.0612   51.6001   27.0951 H         1 UNK         0.0000 
     47 H47        -1.3474   51.9729   29.3825 H         1 UNK         0.0000 
     48 H48         0.7781   52.7330   32.2167 H         1 UNK         0.0000 
     49 H49        -0.4929   53.4432   31.2226 H         1 UNK         0.0000 
     50 H50        -0.2843   51.6847   31.2818 H         1 UNK         0.0000 
     51 N51         4.1166   52.8960   17.7450 N.4       1 UNK         0.0000 
     52 H52         4.9832   52.3584   17.7708 H         1 UNK         0.0000 
@<TRIPOS>BOND
     1    1   28 1    
     2    1   29 1    
     3    1   30 1    
     4    1   51 1    
     5    2    3 1    
     6    2   31 1    
     7    2   32 1    
     8    2   51 1    
     9    3    4 1    
    10    3   33 1    
    11    3   34 1    
    12    4    5 1    
    13    4    7 1    
    14    5    6 1    
    15    5   35 1    
    16    5   36 1    
    17    6   37 1    
    18    6   38 1    
    19    6   51 1    
    20    7   12 ar   
    21    7    8 ar   
    22    8    9 ar   
    23    8   39 1    
    24    9   10 ar   
    25    9   40 1    
    26   10   11 ar   
    27   10   13 1    
    28   11   12 ar   
    29   11   41 1    
    30   12   42 1    
    31   13   14 1    
    32   13   43 1    
    33   14   15 2    
    34   14   16 am   BACKBONE|DICT|INTERRES
    35   16   17 am   BACKBONE|DICT|INTERRES
    36   16   44 1    
    37   17   18 2    
    38   17   19 1    
    39   19   24 ar   
    40   19   20 ar   
    41   20   21 ar   
    42   20   45 1    
    43   21   22 ar   
    44   21   27 1    
    45   22   23 ar   
    46   22   46 1    
    47   23   24 ar   
    48   23   47 1    
    49   24   25 1    
    50   25   26 1    
    51   26   48 1    
    52   26   49 1    
    53   26   50 1    
    54   51   52 1    
@<TRIPOS>SUBSTRUCTURE
     1 UNK         1 GROUP             0       ****    0 ROOT    
