@<TRIPOS>MOLECULE
ZINC39656983_3675
62   65    1
SMALL
USER_CHARGES


@<TRIPOS>ATOM
      1 C1          5.9153   54.4323   26.6445 C.3       1 UNK         0.0000 
      2 C2          5.5286   54.3398   25.1761 C.ar      1 UNK         0.0000 
      3 C3          6.5043   54.4744   24.1915 C.ar      1 UNK         0.0000 
      4 C4          6.1609   54.3726   22.8478 C.ar      1 UNK         0.0000 
      5 C5          4.8408   54.1292   22.4721 C.ar      1 UNK         0.0000 
      6 C6          3.8417   53.9688   23.4490 C.ar      1 UNK         0.0000 
      7 C7          4.2007   54.0994   24.8038 C.ar      1 UNK         0.0000 
      8 F8          3.2687   53.9889   25.7772 F         1 UNK         0.0000 
      9 C9          2.3909   53.7716   23.0662 C.2       1 UNK         0.0000 
     10 O10         1.5395   54.4958   23.5835 O.2       1 UNK         0.0000 
     11 N11         2.0532   52.8192   22.1605 N.am      1 UNK         0.0000 
     12 C12         0.6721   52.6806   21.6720 C.3       1 UNK         0.0000 
     13 C13         0.5805   51.2118   21.2194 C.3       1 UNK         0.0000 
     14 H14        -0.1717   51.1288   20.4366 H         1 UNK         0.0000 
     15 C15         2.0201   50.9408   20.6984 C.3       1 UNK         0.0000 
     16 C16         2.8904   51.6892   21.7292 C.3       1 UNK         0.0000 
     17 C17         2.4674   49.4744   20.5088 C.3       1 UNK         0.0000 
     18 C18         1.6696   48.7408   19.4182 C.3       1 UNK         0.0000 
     19 N19         1.9044   49.4792   18.0821 N.4       1 UNK         0.0000 
     20 C20         1.5447   50.9791   18.1489 C.3       1 UNK         0.0000 
     21 C21         2.3277   51.6116   19.3157 C.3       1 UNK         0.0000 
     22 C22         0.1354   50.2684   22.3810 C.2       1 UNK         0.0000 
     23 O23        -0.3074   49.1542   22.1073 O.2       1 UNK         0.0000 
     24 N24         0.2060   50.7378   23.6440 N.am      1 UNK         0.0000 
     25 C25        -0.2974   50.1225   24.8770 C.3       1 UNK         0.0000 
     26 H26        -1.3605   49.9380   24.7016 H         1 UNK         0.0000 
     27 C27         0.3737   48.7752   25.2052 C.3       1 UNK         0.0000 
     28 C28        -0.2154   51.0636   26.0903 C.ar      1 UNK         0.0000 
     29 C29        -1.1300   50.8968   27.1341 C.ar      1 UNK         0.0000 
     30 C30        -1.0639   51.6966   28.2721 C.ar      1 UNK         0.0000 
     31 C31        -0.0923   52.6869   28.3652 C.ar      1 UNK         0.0000 
     32 C32         0.8054   52.8886   27.3225 C.ar      1 UNK         0.0000 
     33 C33         0.7420   52.0838   26.1855 C.ar      1 UNK         0.0000 
     34 Br34        0.0037   53.7735   29.9252 Br        1 UNK         0.0000 
     35 F35         4.5456   54.1160   21.1504 F         1 UNK         0.0000 
     36 H36         6.9939   54.5022   26.7894 H         1 UNK         0.0000 
     37 H37         5.4417   55.2963   27.1105 H         1 UNK         0.0000 
     38 H38         5.5690   53.5449   27.1763 H         1 UNK         0.0000 
     39 H39         7.5286   54.6655   24.4654 H         1 UNK         0.0000 
     40 H40         6.9202   54.5031   22.0913 H         1 UNK         0.0000 
     41 H41         0.5268   53.2966   20.7863 H         1 UNK         0.0000 
     42 H42        -0.1103   52.8967   22.4007 H         1 UNK         0.0000 
     43 H43         3.0281   51.0293   22.5854 H         1 UNK         0.0000 
     44 H44         3.8925   51.9087   21.3643 H         1 UNK         0.0000 
     45 H45         3.5040   49.4839   20.2155 H         1 UNK         0.0000 
     46 H46         2.4189   48.9140   21.4442 H         1 UNK         0.0000 
     47 H47         2.0197   47.7186   19.2652 H         1 UNK         0.0000 
     48 H48         0.5939   48.7323   19.6011 H         1 UNK         0.0000 
     49 H49         2.8814   49.3882   17.7865 H         1 UNK         0.0000 
     50 H50         1.8355   51.4004   17.1847 H         1 UNK         0.0000 
     51 H51         0.4618   51.0462   18.2566 H         1 UNK         0.0000 
     52 H52         2.1130   52.6813   19.3408 H         1 UNK         0.0000 
     53 H53         3.3976   51.5672   19.0933 H         1 UNK         0.0000 
     54 H54         0.5237   51.6888   23.7510 H         1 UNK         0.0000 
     55 H55        -0.0944   48.3176   26.0774 H         1 UNK         0.0000 
     56 H56         0.2875   48.0604   24.3879 H         1 UNK         0.0000 
     57 H57         1.4340   48.8963   25.4276 H         1 UNK         0.0000 
     58 H58        -1.8736   50.1132   27.0868 H         1 UNK         0.0000 
     59 H59        -1.7532   51.5267   29.0870 H         1 UNK         0.0000 
     60 H60         1.5495   53.6652   27.4053 H         1 UNK         0.0000 
     61 H61         1.4649   52.2361   25.3994 H         1 UNK         0.0000 
     62 H62         1.3733   49.0371   17.3445 H         1 UNK         0.0000 
@<TRIPOS>BOND
     1    1    2 1    
     2    1   36 1    
     3    1   37 1    
     4    1   38 1    
     5    2    7 ar   
     6    2    3 ar   
     7    3    4 ar   
     8    3   39 1    
     9    4    5 ar   
    10    4   40 1    
    11    5    6 ar   
    12    5   35 1    
    13    6    7 ar   
    14    6    9 1    
    15    7    8 1    
    16    9   10 2    
    17    9   11 am   BACKBONE|DICT|INTERRES
    18   11   16 1    
    19   11   12 1    
    20   12   13 1    
    21   12   41 1    
    22   12   42 1    
    23   13   14 1    
    24   13   15 1    
    25   13   22 1    
    26   15   21 1    
    27   15   16 1    
    28   15   17 1    
    29   16   43 1    
    30   16   44 1    
    31   17   18 1    
    32   17   45 1    
    33   17   46 1    
    34   18   19 1    
    35   18   47 1    
    36   18   48 1    
    37   19   20 1    
    38   19   49 1    
    39   19   62 1    
    40   20   21 1    
    41   20   50 1    
    42   20   51 1    
    43   21   52 1    
    44   21   53 1    
    45   22   23 2    
    46   22   24 am   BACKBONE|DICT|INTERRES
    47   24   25 1    
    48   24   54 1    
    49   25   26 1    
    50   25   27 1    
    51   25   28 1    
    52   27   55 1    
    53   27   56 1    
    54   27   57 1    
    55   28   33 ar   
    56   28   29 ar   
    57   29   30 ar   
    58   29   58 1    
    59   30   31 ar   
    60   30   59 1    
    61   31   32 ar   
    62   31   34 1    
    63   32   33 ar   
    64   32   60 1    
    65   33   61 1    
@<TRIPOS>SUBSTRUCTURE
     1 UNK         1 GROUP             0       ****    0 ROOT    
