@<TRIPOS>MOLECULE
ZINC35354800_3321
54   58    1
SMALL
USER_CHARGES


@<TRIPOS>ATOM
      1 C1          6.9117   54.4059   27.2821 C.ar      1 UNK         0.0000 
      2 C2          5.8495   54.1369   28.1384 C.ar      1 UNK         0.0000 
      3 C3          4.5550   53.9638   27.6399 C.ar      1 UNK         0.0000 
      4 C4          4.3552   54.0686   26.2538 C.ar      1 UNK         0.0000 
      5 C5          5.4209   54.3154   25.3722 C.ar      1 UNK         0.0000 
      6 C6          6.7040   54.4962   25.9123 C.ar      1 UNK         0.0000 
      7 C7          5.1754   54.3522   23.8780 C.2       1 UNK         0.0000 
      8 O8          4.0551   54.0969   23.4359 O.2       1 UNK         0.0000 
      9 N9          6.2326   54.6994   23.1078 N.am      1 UNK         0.0000 
     10 C10         6.3065   54.8969   21.7180 C.ar      1 UNK         0.0000 
     11 C11         5.3028   54.5354   20.8042 C.ar      1 UNK         0.0000 
     12 C12         5.4755   54.7932   19.4482 C.ar      1 UNK         0.0000 
     13 C13         6.6498   55.3821   18.9778 C.ar      1 UNK         0.0000 
     14 C14         7.6621   55.7096   19.8872 C.ar      1 UNK         0.0000 
     15 C15         7.4848   55.4762   21.2474 C.ar      1 UNK         0.0000 
     16 N16         6.7186   55.6391   17.5993 N.pl3     1 UNK         0.0000 
     17 S17         8.1744   56.0512   16.6709 S.o2      1 UNK         0.0000 
     18 O18         7.6957   56.3877   15.3241 O.2       1 UNK         0.0000 
     19 O19         8.9728   57.0139   17.4377 O.2       1 UNK         0.0000 
     20 C20         9.0958   54.5253   16.5105 C.ar      1 UNK         0.0000 
     21 C21        10.2954   54.3417   17.1963 C.ar      1 UNK         0.0000 
     22 C22        11.0224   53.1696   17.0084 C.ar      1 UNK         0.0000 
     23 C23        10.5659   52.1565   16.1595 C.ar      1 UNK         0.0000 
     24 C24         9.3358   52.3338   15.4765 C.ar      1 UNK         0.0000 
     25 C25         8.6247   53.5228   15.6615 C.ar      1 UNK         0.0000 
     26 O26         8.8121   51.4321   14.5700 O.3       1 UNK         0.0000 
     27 C27         9.7238   50.6971   13.7587 C.3       1 UNK         0.0000 
     28 C28        10.2863   49.4723   14.4842 C.3       1 UNK         0.0000 
     29 C29        10.6721   49.7624   15.9389 C.3       1 UNK         0.0000 
     30 O30        11.3368   51.0130   16.0919 O.3       1 UNK         0.0000 
     31 C31         3.4165   53.6599   28.5712 C.ar      1 UNK         0.0000 
     32 N32         2.1697   54.0075   28.3253 N.2       1 UNK         0.0000 
     33 N33         1.4405   53.5455   29.3978 N.ar      1 UNK         0.0000 
     34 N34         2.3090   52.9094   30.2493 N.ar      1 UNK         0.0000 
     35 N35         3.5706   53.0141   29.7098 N.ar      1 UNK         0.0000 
     36 H36         7.9042   54.5393   27.6898 H         1 UNK         0.0000 
     37 H37         6.0356   54.0783   29.2000 H         1 UNK         0.0000 
     38 H38         3.3578   53.9154   25.8643 H         1 UNK         0.0000 
     39 H39         7.5560   54.6936   25.2825 H         1 UNK         0.0000 
     40 H40         7.0861   54.9004   23.6048 H         1 UNK         0.0000 
     41 H41         4.3815   54.0681   21.1115 H         1 UNK         0.0000 
     42 H42         4.6815   54.5302   18.7643 H         1 UNK         0.0000 
     43 H43         8.5926   56.1513   19.5754 H         1 UNK         0.0000 
     44 H44         8.2806   55.7471   21.9278 H         1 UNK         0.0000 
     45 H45         5.9135   55.3831   17.0459 H         1 UNK         0.0000 
     46 H46        10.6717   55.1033   17.8643 H         1 UNK         0.0000 
     47 H47        11.9469   53.0290   17.5476 H         1 UNK         0.0000 
     48 H48         7.7032   53.6662   15.1170 H         1 UNK         0.0000 
     49 H49        10.5213   51.3501   13.3931 H         1 UNK         0.0000 
     50 H50         9.1939   50.3763   12.8619 H         1 UNK         0.0000 
     51 H51        11.1510   49.1023   13.9292 H         1 UNK         0.0000 
     52 H52         9.5488   48.6701   14.4660 H         1 UNK         0.0000 
     53 H53        11.3412   48.9804   16.2983 H         1 UNK         0.0000 
     54 H54         9.8040   49.7128   16.6034 H         1 UNK         0.0000 
@<TRIPOS>BOND
     1    1    6 ar   
     2    1    2 ar   
     3    1   36 1    
     4    2    3 ar   
     5    2   37 1    
     6    3    4 ar   
     7    3   31 1    
     8    4    5 ar   
     9    4   38 1    
    10    5    6 ar   
    11    5    7 1    
    12    6   39 1    
    13    7    8 2    
    14    7    9 am   BACKBONE|DICT|INTERRES
    15    9   10 1    
    16    9   40 1    
    17   10   15 ar   
    18   10   11 ar   
    19   11   12 ar   
    20   11   41 1    
    21   12   13 ar   
    22   12   42 1    
    23   13   14 ar   
    24   13   16 1    
    25   14   15 ar   
    26   14   43 1    
    27   15   44 1    
    28   16   17 1    
    29   16   45 1    
    30   17   18 2    
    31   17   19 2    
    32   17   20 1    
    33   20   25 ar   
    34   20   21 ar   
    35   21   22 ar   
    36   21   46 1    
    37   22   23 ar   
    38   22   47 1    
    39   23   30 1    
    40   23   24 ar   
    41   24   25 ar   
    42   24   26 1    
    43   25   48 1    
    44   26   27 1    
    45   27   28 1    
    46   27   49 1    
    47   27   50 1    
    48   28   29 1    
    49   28   51 1    
    50   28   52 1    
    51   29   30 1    
    52   29   53 1    
    53   29   54 1    
    54   31   32 ar   
    55   31   35 ar   
    56   32   33 ar   
    57   33   34 ar   
    58   34   35 ar   
@<TRIPOS>SUBSTRUCTURE
     1 UNK         1 GROUP             0       ****    0 ROOT    
