@<TRIPOS>MOLECULE
ZINC40400550_5970
55   58    1
SMALL
USER_CHARGES


@<TRIPOS>ATOM
      1 C1          0.5341   54.0649   29.4407 C.3       1 UNK         0.0000 
      2 C2          1.2148   52.7664   28.9829 C.3       1 UNK         0.0000 
      3 O3          1.1362   52.5819   27.5706 O.3       1 UNK         0.0000 
      4 C4          1.9366   53.2550   26.7073 C.2       1 UNK         0.0000 
      5 O5          2.7540   54.0982   27.0846 O.2       1 UNK         0.0000 
      6 C6          1.7701   52.8373   25.2897 C.2       1 UNK         0.0000 
      7 C7          2.5269   53.3532   24.2678 C.2       1 UNK         0.0000 
      8 N8          2.4684   52.8970   22.9826 N.2       1 UNK         0.0000 
      9 C9          1.8997   51.7781   22.7660 C.2       1 UNK         0.0000 
     10 N10         1.1744   51.0225   23.6829 N.pl3     1 UNK         0.0000 
     11 C11         0.8107   51.6356   24.9943 C.3       1 UNK         0.0000 
     12 H12         0.9918   50.8478   25.7296 H         1 UNK         0.0000 
     13 C13        -0.6858   51.9808   25.0819 C.ar      1 UNK         0.0000 
     14 C14        -1.3362   52.6257   24.0212 C.ar      1 UNK         0.0000 
     15 C15        -2.7026   52.8977   24.0852 C.ar      1 UNK         0.0000 
     16 C16        -3.4305   52.5401   25.2188 C.ar      1 UNK         0.0000 
     17 C17        -2.7950   51.8986   26.2800 C.ar      1 UNK         0.0000 
     18 C18        -1.4333   51.6100   26.2085 C.ar      1 UNK         0.0000 
     19 F19        -3.5038   51.5569   27.3785 F         1 UNK         0.0000 
     20 C20         0.6387   49.8456   23.1896 C.2       1 UNK         0.0000 
     21 C21         0.8719   49.6972   21.8732 C.2       1 UNK         0.0000 
     22 S22         1.8268   51.0013   21.1749 S.3       1 UNK         0.0000 
     23 C23        -0.1844   48.9352   23.9691 C.2       1 UNK         0.0000 
     24 C24        -1.3792   48.4485   23.5907 C.2       1 UNK         0.0000 
     25 O25        -2.0329   48.6351   22.4977 O.co2     1 UNK         0.0000 
     26 N26        -2.0886   47.6409   24.4502 N.pl3     1 UNK         0.0000 
     27 C27        -2.9861   46.5320   24.1265 C.3       1 UNK         0.0000 
     28 C28        -3.8592   46.0978   25.3014 C.ar      1 UNK         0.0000 
     29 C29        -3.6243   46.4961   26.6252 C.ar      1 UNK         0.0000 
     30 C30        -4.4851   46.0459   27.6269 C.ar      1 UNK         0.0000 
     31 C31        -5.5536   45.2117   27.2903 C.ar      1 UNK         0.0000 
     32 C32        -5.7224   44.8543   25.9511 C.ar      1 UNK         0.0000 
     33 N33        -4.8944   45.2836   24.9636 N.ar      1 UNK         0.0000 
     34 C34         3.5436   54.4833   24.3546 C.3       1 UNK         0.0000 
     35 H35         0.5279   54.1409   30.5276 H         1 UNK         0.0000 
     36 H36         1.0452   54.9452   29.0498 H         1 UNK         0.0000 
     37 H37        -0.4955   54.0959   29.0960 H         1 UNK         0.0000 
     38 H38         0.7132   51.9178   29.4506 H         1 UNK         0.0000 
     39 H39         2.2543   52.7348   29.3167 H         1 UNK         0.0000 
     40 H40        -0.7842   52.8966   23.1341 H         1 UNK         0.0000 
     41 H41        -3.1965   53.3872   23.2605 H         1 UNK         0.0000 
     42 H42        -4.4867   52.7513   25.2746 H         1 UNK         0.0000 
     43 H43        -0.9675   51.0846   27.0302 H         1 UNK         0.0000 
     44 H44         0.5171   48.8877   21.2521 H         1 UNK         0.0000 
     45 H45         0.1958   48.6506   24.9401 H         1 UNK         0.0000 
     46 H46        -1.6425   47.4971   25.3452 H         1 UNK         0.0000 
     47 H47        -2.3406   45.6973   23.8547 H         1 UNK         0.0000 
     48 H48        -3.5962   46.7627   23.2487 H         1 UNK         0.0000 
     49 H49        -2.8001   47.1455   26.8815 H         1 UNK         0.0000 
     50 H50        -4.3160   46.3480   28.6510 H         1 UNK         0.0000 
     51 H51        -6.2366   44.8510   28.0447 H         1 UNK         0.0000 
     52 H52        -6.5386   44.2129   25.6512 H         1 UNK         0.0000 
     53 H53         4.4617   54.1236   24.8178 H         1 UNK         0.0000 
     54 H54         3.8017   54.8968   23.3774 H         1 UNK         0.0000 
     55 H55         3.1405   55.2983   24.9480 H         1 UNK         0.0000 
@<TRIPOS>BOND
     1    1    2 1    
     2    1   35 1    
     3    1   36 1    
     4    1   37 1    
     5    2    3 1    
     6    2   38 1    
     7    2   39 1    
     8    3    4 1    
     9    4    5 2    
    10    4    6 1    
    11    6   11 1    
    12    6    7 2    
    13    7    8 1    
    14    7   34 1    
    15    8    9 2    
    16    9   22 1    
    17    9   10 1    
    18   10   11 1    
    19   10   20 1    
    20   11   12 1    
    21   11   13 1    
    22   13   18 ar   
    23   13   14 ar   
    24   14   15 ar   
    25   14   40 1    
    26   15   16 ar   
    27   15   41 1    
    28   16   17 ar   
    29   16   42 1    
    30   17   18 ar   
    31   17   19 1    
    32   18   43 1    
    33   20   21 2    
    34   20   23 1    
    35   21   22 1    
    36   21   44 1    
    37   23   24 2    
    38   23   45 1    
    39   24   25 1    
    40   24   26 1    
    41   26   27 1    
    42   26   46 1    
    43   27   28 1    
    44   27   47 1    
    45   27   48 1    
    46   28   33 ar   
    47   28   29 ar   
    48   29   30 ar   
    49   29   49 1    
    50   30   31 ar   
    51   30   50 1    
    52   31   32 ar   
    53   31   51 1    
    54   32   33 ar   
    55   32   52 1    
    56   34   53 1    
    57   34   54 1    
    58   34   55 1    
@<TRIPOS>SUBSTRUCTURE
     1 UNK         1 GROUP             0       ****    0 ROOT    
