@<TRIPOS>MOLECULE
ZINC39684891_1293
66   69    1
SMALL
USER_CHARGES


@<TRIPOS>ATOM
      1 C1          5.1197   53.1708   28.5846 C.3       1 UNK         0.0000 
      2 C2          3.7996   52.4654   28.9488 C.3       1 UNK         0.0000 
      3 C3          2.4887   52.9222   28.2206 C.3       1 UNK         0.0000 
      4 H4          1.8097   52.0794   28.3177 H         1 UNK         0.0000 
      5 C5          1.8853   54.0707   29.0236 C.ar      1 UNK         0.0000 
      6 C6          2.3501   55.3777   28.8522 C.ar      1 UNK         0.0000 
      7 C7          1.9042   56.3878   29.6776 C.ar      1 UNK         0.0000 
      8 C8          1.0223   56.0967   30.6990 C.ar      1 UNK         0.0000 
      9 C9          0.5349   54.8046   30.8816 C.ar      1 UNK         0.0000 
     10 C10         0.9671   53.7869   30.0403 C.ar      1 UNK         0.0000 
     11 C11         2.5914   53.2960   26.7035 C.2       1 UNK         0.0000 
     12 O12         3.5349   53.9895   26.3138 O.2       1 UNK         0.0000 
     13 N13         1.6332   52.8977   25.8260 N.am      1 UNK         0.0000 
     14 C14         1.7253   53.2516   24.4127 C.3       1 UNK         0.0000 
     15 C15         0.4912   52.5799   23.7593 C.3       1 UNK         0.0000 
     16 H16        -0.2609   53.3692   23.7122 H         1 UNK         0.0000 
     17 C17         0.0858   51.4280   24.7201 C.3       1 UNK         0.0000 
     18 C18         0.4800   52.0392   26.0958 C.3       1 UNK         0.0000 
     19 C19        -1.4102   51.0511   24.6164 C.3       1 UNK         0.0000 
     20 C20        -1.8210   50.0884   25.7519 C.3       1 UNK         0.0000 
     21 N21        -0.9524   48.8089   25.6818 N.4       1 UNK         0.0000 
     22 C22         0.5721   49.0353   25.5316 C.3       1 UNK         0.0000 
     23 C23         0.8281   50.0865   24.4308 C.3       1 UNK         0.0000 
     24 C24         0.8122   52.1962   22.2844 C.2       1 UNK         0.0000 
     25 O25        -0.1173   52.0970   21.4851 O.2       1 UNK         0.0000 
     26 N26         2.0979   52.0167   21.9302 N.am      1 UNK         0.0000 
     27 C27         2.6573   51.9233   20.5816 C.3       1 UNK         0.0000 
     28 C28         3.8148   52.8982   20.3305 C.ar      1 UNK         0.0000 
     29 C29         4.3923   53.6545   21.3623 C.ar      1 UNK         0.0000 
     30 C30         5.4138   54.5582   21.0890 C.ar      1 UNK         0.0000 
     31 C31         5.8646   54.7217   19.7796 C.ar      1 UNK         0.0000 
     32 C32         5.3094   53.9629   18.7472 C.ar      1 UNK         0.0000 
     33 C33         4.2876   53.0565   19.0255 C.ar      1 UNK         0.0000 
     34 C34         6.9125   55.6927   19.4991 C.1       1 UNK         0.0000 
     35 N35         7.7441   56.4674   19.2808 N.1       1 UNK         0.0000 
     36 H36         5.9046   52.8966   29.2815 H         1 UNK         0.0000 
     37 H37         5.4663   52.8931   27.5887 H         1 UNK         0.0000 
     38 H38         5.0256   54.2560   28.6247 H         1 UNK         0.0000 
     39 H39         3.6611   52.5926   30.0243 H         1 UNK         0.0000 
     40 H40         3.9245   51.3879   28.8815 H         1 UNK         0.0000 
     41 H41         3.0836   55.6222   28.1014 H         1 UNK         0.0000 
     42 H42         2.2712   57.3824   29.5394 H         1 UNK         0.0000 
     43 H43         0.7062   56.8977   31.3417 H         1 UNK         0.0000 
     44 H44        -0.1520   54.5868   31.6860 H         1 UNK         0.0000 
     45 H45         0.6151   52.7785   30.2080 H         1 UNK         0.0000 
     46 H46         2.6679   52.8020   24.1025 H         1 UNK         0.0000 
     47 H47         1.7266   54.3330   24.2592 H         1 UNK         0.0000 
     48 H48        -0.3323   52.7024   26.3973 H         1 UNK         0.0000 
     49 H49         0.5818   51.2952   26.8801 H         1 UNK         0.0000 
     50 H50        -2.0119   51.9533   24.7347 H         1 UNK         0.0000 
     51 H51        -1.6658   50.6634   23.6283 H         1 UNK         0.0000 
     52 H52        -1.6690   50.4998   26.7519 H         1 UNK         0.0000 
     53 H53        -2.8572   49.7564   25.6712 H         1 UNK         0.0000 
     54 H54        -1.1108   48.3036   26.5590 H         1 UNK         0.0000 
     55 H55         0.9485   49.3101   26.5152 H         1 UNK         0.0000 
     56 H56         0.9997   48.0677   25.2817 H         1 UNK         0.0000 
     57 H57         0.5747   49.6826   23.4490 H         1 UNK         0.0000 
     58 H58         1.9034   50.2593   24.3875 H         1 UNK         0.0000 
     59 H59         2.7746   51.9347   22.6706 H         1 UNK         0.0000 
     60 H60         1.8865   52.1006   19.8272 H         1 UNK         0.0000 
     61 H61         3.0120   50.9047   20.4161 H         1 UNK         0.0000 
     62 H62         4.0562   53.5655   22.3830 H         1 UNK         0.0000 
     63 H63         5.8383   55.1346   21.8992 H         1 UNK         0.0000 
     64 H64         5.6570   54.0658   17.7280 H         1 UNK         0.0000 
     65 H65         3.8713   52.4676   18.2196 H         1 UNK         0.0000 
     66 H66        -1.2822   48.2162   24.9340 H         1 UNK         0.0000 
@<TRIPOS>BOND
     1    1    2 1    
     2    1   36 1    
     3    1   37 1    
     4    1   38 1    
     5    2    3 1    
     6    2   39 1    
     7    2   40 1    
     8    3    4 1    
     9    3    5 1    
    10    3   11 1    
    11    5   10 ar   
    12    5    6 ar   
    13    6    7 ar   
    14    6   41 1    
    15    7    8 ar   
    16    7   42 1    
    17    8    9 ar   
    18    8   43 1    
    19    9   10 ar   
    20    9   44 1    
    21   10   45 1    
    22   11   12 2    
    23   11   13 am   BACKBONE|DICT|INTERRES
    24   13   18 1    
    25   13   14 1    
    26   14   15 1    
    27   14   46 1    
    28   14   47 1    
    29   15   16 1    
    30   15   17 1    
    31   15   24 1    
    32   17   23 1    
    33   17   18 1    
    34   17   19 1    
    35   18   48 1    
    36   18   49 1    
    37   19   20 1    
    38   19   50 1    
    39   19   51 1    
    40   20   21 1    
    41   20   52 1    
    42   20   53 1    
    43   21   22 1    
    44   21   54 1    
    45   21   66 1    
    46   22   23 1    
    47   22   55 1    
    48   22   56 1    
    49   23   57 1    
    50   23   58 1    
    51   24   25 2    
    52   24   26 am   BACKBONE|DICT|INTERRES
    53   26   27 1    
    54   26   59 1    
    55   27   28 1    
    56   27   60 1    
    57   27   61 1    
    58   28   33 ar   
    59   28   29 ar   
    60   29   30 ar   
    61   29   62 1    
    62   30   31 ar   
    63   30   63 1    
    64   31   32 ar   
    65   31   34 1    
    66   32   33 ar   
    67   32   64 1    
    68   33   65 1    
    69   34   35 3    
@<TRIPOS>SUBSTRUCTURE
     1 UNK         1 GROUP             0       ****    0 ROOT    
