@<TRIPOS>MOLECULE
ZINC32878689_4186
56   60    1
SMALL
USER_CHARGES


@<TRIPOS>ATOM
      1 C1          3.7132   54.4973   24.8909 C.ar      1 UNK         0.0000 
      2 C2          3.3391   53.9503   23.6714 C.ar      1 UNK         0.0000 
      3 C3          2.3427   52.9812   23.6293 C.ar      1 UNK         0.0000 
      4 C4          1.6884   52.5359   24.7937 C.ar      1 UNK         0.0000 
      5 C5          2.0497   53.1335   26.0288 C.ar      1 UNK         0.0000 
      6 C6          3.0654   54.0954   26.0539 C.ar      1 UNK         0.0000 
      7 C7          1.3830   52.7190   27.3394 C.3       1 UNK         0.0000 
      8 C8         -0.0181   52.1334   27.1167 C.3       1 UNK         0.0000 
      9 C9          0.0784   50.9728   26.1215 C.3       1 UNK         0.0000 
     10 C10         0.6226   51.4102   24.7235 C.3       1 UNK         0.0000 
     11 C11        -0.5388   51.8669   23.8444 C.2       1 UNK         0.0000 
     12 O12        -1.3054   52.8050   24.0764 O.2       1 UNK         0.0000 
     13 N13        -0.6149   50.9643   22.8381 N.am      1 UNK         0.0000 
     14 C14         0.3857   50.0497   22.8410 C.2       1 UNK         0.0000 
     15 O15         0.7197   49.2981   21.9290 O.2       1 UNK         0.0000 
     16 N16         1.0605   50.2620   23.9715 N.am      1 UNK         0.0000 
     17 C17        -1.7996   50.8415   21.9549 C.3       1 UNK         0.0000 
     18 C18        -3.0473   50.2370   22.6523 C.2       1 UNK         0.0000 
     19 O19        -4.1487   50.4866   22.1647 O.2       1 UNK         0.0000 
     20 N20        -2.9091   49.4732   23.7757 N.am      1 UNK         0.0000 
     21 C21        -3.5709   49.9153   24.9832 C.ar      1 UNK         0.0000 
     22 C22        -3.9203   51.2769   25.1807 C.ar      1 UNK         0.0000 
     23 C23        -4.5502   51.7492   26.3245 C.ar      1 UNK         0.0000 
     24 C24        -4.8744   50.8664   27.3375 C.ar      1 UNK         0.0000 
     25 C25        -4.5712   49.5219   27.1876 C.ar      1 UNK         0.0000 
     26 C26        -3.9419   49.0197   26.0397 C.ar      1 UNK         0.0000 
     27 N27        -3.6788   47.6426   26.1044 N.am      1 UNK         0.0000 
     28 C28        -2.6535   46.8688   25.7317 C.2       1 UNK         0.0000 
     29 O29        -2.5478   45.6967   26.0832 O.2       1 UNK         0.0000 
     30 C30        -1.6976   47.5021   24.7377 C.3       1 UNK         0.0000 
     31 C31        -2.3404   48.1299   23.4876 C.3       1 UNK         0.0000 
     32 H32        -1.4923   48.2695   22.8193 H         1 UNK         0.0000 
     33 C33        -3.2959   47.1702   22.6998 C.3       1 UNK         0.0000 
     34 F34        -3.4435   47.5525   21.4313 F         1 UNK         0.0000 
     35 F35        -2.8126   45.9260   22.6629 F         1 UNK         0.0000 
     36 F36        -4.5153   47.1031   23.2347 F         1 UNK         0.0000 
     37 H37         4.4956   55.2396   24.9343 H         1 UNK         0.0000 
     38 H38         3.8282   54.2660   22.7611 H         1 UNK         0.0000 
     39 H39         2.0861   52.5571   22.6691 H         1 UNK         0.0000 
     40 H40         3.3612   54.5399   26.9938 H         1 UNK         0.0000 
     41 H41         2.0129   51.9741   27.8284 H         1 UNK         0.0000 
     42 H42         1.3231   53.5670   28.0231 H         1 UNK         0.0000 
     43 H43        -0.4296   51.7799   28.0637 H         1 UNK         0.0000 
     44 H44        -0.7055   52.8965   26.7499 H         1 UNK         0.0000 
     45 H45        -0.8959   50.4844   26.0500 H         1 UNK         0.0000 
     46 H46         0.7404   50.2231   26.5592 H         1 UNK         0.0000 
     47 H47         1.6044   49.5325   24.4117 H         1 UNK         0.0000 
     48 H48        -1.5788   50.3008   21.0333 H         1 UNK         0.0000 
     49 H49        -2.0659   51.8574   21.6617 H         1 UNK         0.0000 
     50 H50        -3.6930   52.0194   24.4310 H         1 UNK         0.0000 
     51 H51        -4.7810   52.7997   26.4219 H         1 UNK         0.0000 
     52 H52        -5.3538   51.2181   28.2390 H         1 UNK         0.0000 
     53 H53        -4.8186   48.8565   28.0032 H         1 UNK         0.0000 
     54 H54        -4.2556   47.1453   26.7642 H         1 UNK         0.0000 
     55 H55        -1.0793   48.2246   25.2713 H         1 UNK         0.0000 
     56 H56        -0.9779   46.7454   24.4261 H         1 UNK         0.0000 
@<TRIPOS>BOND
     1    1    6 ar   
     2    1    2 ar   
     3    1   37 1    
     4    2    3 ar   
     5    2   38 1    
     6    3    4 ar   
     7    3   39 1    
     8    4   10 1    
     9    4    5 ar   
    10    5    6 ar   
    11    5    7 1    
    12    6   40 1    
    13    7    8 1    
    14    7   41 1    
    15    7   42 1    
    16    8    9 1    
    17    8   43 1    
    18    8   44 1    
    19    9   10 1    
    20    9   45 1    
    21    9   46 1    
    22   10   16 1    
    23   10   11 1    
    24   11   12 2    
    25   11   13 am   BACKBONE|DICT|INTERRES
    26   13   14 am   BACKBONE|DICT|INTERRES
    27   13   17 1    
    28   14   15 2    
    29   14   16 am   BACKBONE|DICT|INTERRES
    30   16   47 1    
    31   17   18 1    
    32   17   48 1    
    33   17   49 1    
    34   18   19 2    
    35   18   20 am   BACKBONE|DICT|INTERRES
    36   20   31 1    
    37   20   21 1    
    38   21   26 ar   
    39   21   22 ar   
    40   22   23 ar   
    41   22   50 1    
    42   23   24 ar   
    43   23   51 1    
    44   24   25 ar   
    45   24   52 1    
    46   25   26 ar   
    47   25   53 1    
    48   26   27 1    
    49   27   28 am   BACKBONE|DICT|INTERRES
    50   27   54 1    
    51   28   29 2    
    52   28   30 1    
    53   30   31 1    
    54   30   55 1    
    55   30   56 1    
    56   31   32 1    
    57   31   33 1    
    58   33   34 1    
    59   33   35 1    
    60   33   36 1    
@<TRIPOS>SUBSTRUCTURE
     1 UNK         1 GROUP             0       ****    0 ROOT    
