@<TRIPOS>MOLECULE
ZINC63807356_2788
49   52    1
SMALL
USER_CHARGES


@<TRIPOS>ATOM
      1 C1          1.5500   54.1848   23.5327 C.3       1 UNK         0.0000 
      2 C2          3.0526   54.0965   23.3485 C.2       1 UNK         0.0000 
      3 N3          3.7808   54.3284   24.3548 N.2       1 UNK         0.0000 
      4 C4          5.1448   54.1810   24.1718 C.2       1 UNK         0.0000 
      5 N5          6.1503   54.2684   24.9617 N.am      1 UNK         0.0000 
      6 C6          6.0278   54.5492   26.3176 C.2       1 UNK         0.0000 
      7 O7          6.8452   55.2966   26.8460 O.2       1 UNK         0.0000 
      8 C8          4.9485   53.9270   27.0548 C.2       1 UNK         0.0000 
      9 C9          4.4385   54.4342   28.1947 C.2       1 UNK         0.0000 
     10 C10         3.2374   53.8949   28.8539 C.ar      1 UNK         0.0000 
     11 C11         2.4202   54.7527   29.5938 C.ar      1 UNK         0.0000 
     12 C12         1.1952   54.3021   30.0803 C.ar      1 UNK         0.0000 
     13 C13         0.7625   53.0048   29.8082 C.ar      1 UNK         0.0000 
     14 C14         1.6030   52.1331   29.1046 C.ar      1 UNK         0.0000 
     15 C15         2.8321   52.5753   28.6425 C.ar      1 UNK         0.0000 
     16 O16        -0.4955   52.6634   30.2523 O.3       1 UNK         0.0000 
     17 C17        -1.1490   51.5399   29.6640 C.3       1 UNK         0.0000 
     18 S18         5.5046   53.7682   22.4819 S.3       1 UNK         0.0000 
     19 C19         3.7421   53.7367   22.0471 C.3       1 UNK         0.0000 
     20 H20         3.6127   54.5252   21.3050 H         1 UNK         0.0000 
     21 C21         3.2401   52.3748   21.4787 C.3       1 UNK         0.0000 
     22 H22         3.0924   51.6455   22.2772 H         1 UNK         0.0000 
     23 N23         2.0164   52.4967   20.6898 N.3       1 UNK         0.0000 
     24 C24         2.3396   51.9187   19.4052 C.3       1 UNK         0.0000 
     25 H25         1.8205   52.4586   18.6111 H         1 UNK         0.0000 
     26 N26         3.7648   52.1093   19.2817 N.3       1 UNK         0.0000 
     27 O27         4.2115   51.8242   20.6021 O.3       1 UNK         0.0000 
     28 C28         1.9489   50.4490   19.2975 C.2       1 UNK         0.0000 
     29 C29         2.1913   49.3718   20.1547 C.2       1 UNK         0.0000 
     30 C30         1.7312   48.1402   19.6829 C.2       1 UNK         0.0000 
     31 C31         1.1034   48.2445   18.4575 C.2       1 UNK         0.0000 
     32 S32         1.1028   49.8752   17.8840 S.3       1 UNK         0.0000 
     33 H33         1.1164   54.8968   22.8356 H         1 UNK         0.0000 
     34 H34         1.0843   53.2165   23.3502 H         1 UNK         0.0000 
     35 H35         1.2713   54.4952   24.5407 H         1 UNK         0.0000 
     36 H36         4.5320   53.0423   26.5974 H         1 UNK         0.0000 
     37 H37         4.8973   55.2964   28.6568 H         1 UNK         0.0000 
     38 H38         2.7049   55.7833   29.7528 H         1 UNK         0.0000 
     39 H39         0.5539   54.9753   30.6297 H         1 UNK         0.0000 
     40 H40         1.3235   51.1161   28.8820 H         1 UNK         0.0000 
     41 H41         3.4446   51.8893   28.0815 H         1 UNK         0.0000 
     42 H42        -2.0602   51.2957   30.2069 H         1 UNK         0.0000 
     43 H43        -0.5379   50.6462   29.6820 H         1 UNK         0.0000 
     44 H44        -1.4196   51.7446   28.6280 H         1 UNK         0.0000 
     45 H45         1.9035   53.4881   20.4886 H         1 UNK         0.0000 
     46 H46         4.1839   51.3790   18.6978 H         1 UNK         0.0000 
     47 H47         2.7164   49.4782   21.0917 H         1 UNK         0.0000 
     48 H48         1.8626   47.2108   20.2131 H         1 UNK         0.0000 
     49 H49         0.6647   47.4580   17.8626 H         1 UNK         0.0000 
@<TRIPOS>BOND
     1    1    2 1    
     2    1   33 1    
     3    1   34 1    
     4    1   35 1    
     5    2   19 1    
     6    2    3 2    
     7    3    4 1    
     8    4    5 2    BACKBONE|DICT|INTERRES
     9    4   18 1    
    10    5    6 am   BACKBONE|DICT|INTERRES
    11    6    7 2    
    12    6    8 1    
    13    8    9 2    
    14    8   36 1    
    15    9   10 1    
    16    9   37 1    
    17   10   15 ar   
    18   10   11 ar   
    19   11   12 ar   
    20   11   38 1    
    21   12   13 ar   
    22   12   39 1    
    23   13   14 ar   
    24   13   16 1    
    25   14   15 ar   
    26   14   40 1    
    27   15   41 1    
    28   16   17 1    
    29   17   42 1    
    30   17   43 1    
    31   17   44 1    
    32   18   19 1    
    33   19   20 1    
    34   19   21 1    
    35   21   22 1    
    36   21   27 1    
    37   21   23 1    
    38   23   24 1    
    39   23   45 1    
    40   24   25 1    
    41   24   26 1    
    42   24   28 1    
    43   26   27 1    
    44   26   46 1    
    45   28   32 1    
    46   28   29 2    
    47   29   30 1    
    48   29   47 1    
    49   30   31 2    
    50   30   48 1    
    51   31   32 1    
    52   31   49 1    
@<TRIPOS>SUBSTRUCTURE
     1 UNK         1 GROUP             0       ****    0 ROOT    
