@<TRIPOS>MOLECULE
ZINC16312552_5389
69   73    1
SMALL
USER_CHARGES


@<TRIPOS>ATOM
      1 C1          0.5306   58.4563   15.5735 C.3       1 UNK         0.0000 
      2 C2          1.7961   57.7608   16.0566 C.ar      1 UNK         0.0000 
      3 C3          2.9955   58.4781   16.0816 C.ar      1 UNK         0.0000 
      4 C4          4.1635   57.8765   16.5453 C.ar      1 UNK         0.0000 
      5 C5          4.1564   56.5569   16.9973 C.ar      1 UNK         0.0000 
      6 C6          2.9505   55.8434   16.9830 C.ar      1 UNK         0.0000 
      7 C7          1.7720   56.4317   16.5109 C.ar      1 UNK         0.0000 
      8 C8          0.4855   55.6183   16.5202 C.3       1 UNK         0.0000 
      9 N9          5.3706   56.0175   17.4489 N.pl3     1 UNK         0.0000 
     10 S10         5.6599   54.3259   17.9045 S.o2      1 UNK         0.0000 
     11 O11         4.8280   53.4672   17.0580 O.2       1 UNK         0.0000 
     12 O12         7.1181   54.1713   17.9290 O.2       1 UNK         0.0000 
     13 C13         5.1092   54.1888   19.6005 C.ar      1 UNK         0.0000 
     14 C14         5.9214   54.6909   20.6126 C.ar      1 UNK         0.0000 
     15 C15         5.5753   54.4999   21.9454 C.ar      1 UNK         0.0000 
     16 C16         4.3887   53.8462   22.2696 C.ar      1 UNK         0.0000 
     17 C17         3.5058   53.4158   21.2688 C.ar      1 UNK         0.0000 
     18 C18         3.9042   53.5682   19.9312 C.ar      1 UNK         0.0000 
     19 C19         2.1656   52.7760   21.6220 C.3       1 UNK         0.0000 
     20 H20         1.4054   53.2961   21.0365 H         1 UNK         0.0000 
     21 C21         2.1499   51.2965   21.2959 C.2       1 UNK         0.0000 
     22 C22         1.8691   50.5452   22.3687 C.2       1 UNK         0.0000 
     23 C23         1.6118   51.3909   23.5910 C.3       1 UNK         0.0000 
     24 C24         1.7810   52.8438   23.1257 C.3       1 UNK         0.0000 
     25 H25         0.7787   53.2809   23.1532 H         1 UNK         0.0000 
     26 C26         2.6665   53.7818   24.0344 C.3       1 UNK         0.0000 
     27 H27         2.3542   54.8080   23.8278 H         1 UNK         0.0000 
     28 N28         4.0693   53.7330   23.6258 N.pl3     1 UNK         0.0000 
     29 C29         2.4803   53.6569   25.5692 C.ar      1 UNK         0.0000 
     30 C30         3.5103   54.0231   26.4538 C.ar      1 UNK         0.0000 
     31 C31         3.3643   53.9107   27.8455 C.ar      1 UNK         0.0000 
     32 C32         2.1497   53.4539   28.3644 C.ar      1 UNK         0.0000 
     33 C33         1.1059   53.0744   27.5127 C.ar      1 UNK         0.0000 
     34 C34         1.2871   53.1851   26.1248 C.ar      1 UNK         0.0000 
     35 O35        -0.0544   52.6076   28.1023 O.3       1 UNK         0.0000 
     36 C36        -1.0768   52.0385   27.2907 C.3       1 UNK         0.0000 
     37 O37         1.9819   53.3788   29.7283 O.3       1 UNK         0.0000 
     38 C38         2.2681   52.0966   30.2684 C.3       1 UNK         0.0000 
     39 O39         4.3625   54.2140   28.7538 O.3       1 UNK         0.0000 
     40 C40         5.6966   54.3954   28.2942 C.3       1 UNK         0.0000 
     41 H41         0.6844   59.5265   15.4250 H         1 UNK         0.0000 
     42 H42         0.1804   58.0166   14.6407 H         1 UNK         0.0000 
     43 H43        -0.2632   58.3482   16.3125 H         1 UNK         0.0000 
     44 H44         3.0309   59.5094   15.7562 H         1 UNK         0.0000 
     45 H45         5.0746   58.4577   16.5574 H         1 UNK         0.0000 
     46 H46         2.9028   54.8328   17.3544 H         1 UNK         0.0000 
     47 H47         0.6646   54.5682   16.7562 H         1 UNK         0.0000 
     48 H48         0.0065   55.6527   15.5406 H         1 UNK         0.0000 
     49 H49        -0.2133   56.0252   17.2511 H         1 UNK         0.0000 
     50 H50         6.1694   56.6310   17.4883 H         1 UNK         0.0000 
     51 H51         6.8532   55.1839   20.3715 H         1 UNK         0.0000 
     52 H52         6.2306   54.8677   22.7224 H         1 UNK         0.0000 
     53 H53         3.2659   53.1940   19.1439 H         1 UNK         0.0000 
     54 H54         2.3523   50.9286   20.3004 H         1 UNK         0.0000 
     55 H55         1.8112   49.4657   22.3984 H         1 UNK         0.0000 
     56 H56         2.3043   51.1571   24.3839 H         1 UNK         0.0000 
     57 H57         0.6041   51.1998   23.9596 H         1 UNK         0.0000 
     58 H58         4.7029   54.1038   24.3145 H         1 UNK         0.0000 
     59 H59         4.4380   54.4007   26.0582 H         1 UNK         0.0000 
     60 H60         0.4748   52.9268   25.4668 H         1 UNK         0.0000 
     61 H61        -1.8657   51.6443   27.9312 H         1 UNK         0.0000 
     62 H62        -1.5270   52.7848   26.6339 H         1 UNK         0.0000 
     63 H63        -0.6980   51.2096   26.6901 H         1 UNK         0.0000 
     64 H64         1.9577   52.0674   31.3133 H         1 UNK         0.0000 
     65 H65         1.7462   51.2991   29.7331 H         1 UNK         0.0000 
     66 H66         3.3389   51.8906   30.2322 H         1 UNK         0.0000 
     67 H67         6.3532   54.4968   29.1568 H         1 UNK         0.0000 
     68 H68         6.0408   53.5359   27.7150 H         1 UNK         0.0000 
     69 H69         5.7968   55.2963   27.6904 H         1 UNK         0.0000 
@<TRIPOS>BOND
     1    1    2 1    
     2    1   41 1    
     3    1   42 1    
     4    1   43 1    
     5    2    7 ar   
     6    2    3 ar   
     7    3    4 ar   
     8    3   44 1    
     9    4    5 ar   
    10    4   45 1    
    11    5    6 ar   
    12    5    9 1    
    13    6    7 ar   
    14    6   46 1    
    15    7    8 1    
    16    8   47 1    
    17    8   48 1    
    18    8   49 1    
    19    9   10 1    
    20    9   50 1    
    21   10   11 2    
    22   10   12 2    
    23   10   13 1    
    24   13   18 ar   
    25   13   14 ar   
    26   14   15 ar   
    27   14   51 1    
    28   15   16 ar   
    29   15   52 1    
    30   16   28 1    
    31   16   17 ar   
    32   17   18 ar   
    33   17   19 1    
    34   18   53 1    
    35   19   20 1    
    36   19   24 1    
    37   19   21 1    
    38   21   22 2    
    39   21   54 1    
    40   22   23 1    
    41   22   55 1    
    42   23   24 1    
    43   23   56 1    
    44   23   57 1    
    45   24   25 1    
    46   24   26 1    
    47   26   27 1    
    48   26   28 1    
    49   26   29 1    
    50   28   58 1    
    51   29   34 ar   
    52   29   30 ar   
    53   30   31 ar   
    54   30   59 1    
    55   31   32 ar   
    56   31   39 1    
    57   32   33 ar   
    58   32   37 1    
    59   33   34 ar   
    60   33   35 1    
    61   34   60 1    
    62   35   36 1    
    63   36   61 1    
    64   36   62 1    
    65   36   63 1    
    66   37   38 1    
    67   38   64 1    
    68   38   65 1    
    69   38   66 1    
    70   39   40 1    
    71   40   67 1    
    72   40   68 1    
    73   40   69 1    
@<TRIPOS>SUBSTRUCTURE
     1 UNK         1 GROUP             0       ****    0 ROOT    
