@<TRIPOS>MOLECULE
ZINC18084190_5925
53   56    1
SMALL
USER_CHARGES


@<TRIPOS>ATOM
      1 C1          6.7047   55.2067   22.3915 C.ar      1 UNK         0.0000 
      2 C2          6.5547   55.6037   21.0639 C.ar      1 UNK         0.0000 
      3 C3          5.6962   54.8969   20.2256 C.ar      1 UNK         0.0000 
      4 C4          4.9888   53.7941   20.7136 C.ar      1 UNK         0.0000 
      5 C5          5.1718   53.3850   22.0390 C.ar      1 UNK         0.0000 
      6 C6          6.0169   54.1001   22.8836 C.ar      1 UNK         0.0000 
      7 C7          4.0800   53.0127   19.7704 C.3       1 UNK         0.0000 
      8 N8          2.7996   52.7073   20.4009 N.pl3     1 UNK         0.0000 
      9 C9          2.0462   51.5957   20.0861 C.2       1 UNK         0.0000 
     10 N10         2.0579   50.9793   18.9662 N.2       1 UNK         0.0000 
     11 C11         1.4645   49.7349   18.7196 C.ar      1 UNK         0.0000 
     12 C12         0.5104   49.6358   17.7021 C.ar      1 UNK         0.0000 
     13 C13        -0.0961   48.4176   17.4028 C.ar      1 UNK         0.0000 
     14 C14         0.2615   47.2795   18.1186 C.ar      1 UNK         0.0000 
     15 C15         1.2246   47.3511   19.1195 C.ar      1 UNK         0.0000 
     16 C16         1.8352   48.5691   19.4059 C.ar      1 UNK         0.0000 
     17 F17        -0.3261   46.0940   17.8381 F         1 UNK         0.0000 
     18 S18         1.1974   50.9229   21.5476 S.3       1 UNK         0.0000 
     19 C19         0.5060   52.4255   22.3414 C.3       1 UNK         0.0000 
     20 H20         0.5071   53.2777   21.6532 H         1 UNK         0.0000 
     21 C21        -0.8651   52.1576   22.8986 C.3       1 UNK         0.0000 
     22 C22        -0.7092   52.2434   24.4038 C.2       1 UNK         0.0000 
     23 O23        -1.6381   52.0608   25.1908 O.2       1 UNK         0.0000 
     24 N24         0.5865   52.5598   24.6910 N.am      1 UNK         0.0000 
     25 C25         1.3325   52.7628   23.5660 C.2       1 UNK         0.0000 
     26 O26         2.5015   53.1391   23.4950 O.2       1 UNK         0.0000 
     27 C27         1.1169   52.6537   26.0106 C.ar      1 UNK         0.0000 
     28 C28         1.9903   53.6965   26.3539 C.ar      1 UNK         0.0000 
     29 C29         2.5817   53.7437   27.6098 C.ar      1 UNK         0.0000 
     30 C30         2.3306   52.7400   28.5515 C.ar      1 UNK         0.0000 
     31 C31         1.4368   51.7103   28.2244 C.ar      1 UNK         0.0000 
     32 C32         0.8265   51.6734   26.9724 C.ar      1 UNK         0.0000 
     33 C33         3.0263   52.7654   29.8769 C.2       1 UNK         0.0000 
     34 O34         3.1038   51.6967   30.5234 O.co2     1 UNK         0.0000 
     35 O35         3.5039   53.8559   30.2658 O.co2     1 UNK         0.0000 
     36 H36         7.3744   55.7519   23.0410 H         1 UNK         0.0000 
     37 H37         7.1032   56.4518   20.6829 H         1 UNK         0.0000 
     38 H38         5.5829   55.2073   19.1965 H         1 UNK         0.0000 
     39 H39         4.6667   52.5067   22.4115 H         1 UNK         0.0000 
     40 H40         6.1488   53.7878   23.9089 H         1 UNK         0.0000 
     41 H41         4.5866   52.1051   19.4318 H         1 UNK         0.0000 
     42 H42         3.8768   53.6132   18.8822 H         1 UNK         0.0000 
     43 H43         2.5704   53.2727   21.2061 H         1 UNK         0.0000 
     44 H44         0.2377   50.5178   17.1419 H         1 UNK         0.0000 
     45 H45        -0.8358   48.3557   16.6183 H         1 UNK         0.0000 
     46 H46         1.5035   46.4641   19.6638 H         1 UNK         0.0000 
     47 H47         2.6012   48.6147   20.1677 H         1 UNK         0.0000 
     48 H48        -1.2630   51.1794   22.6230 H         1 UNK         0.0000 
     49 H49        -1.5949   52.8961   22.5728 H         1 UNK         0.0000 
     50 H50         2.2410   54.4691   25.6419 H         1 UNK         0.0000 
     51 H51         3.2643   54.5512   27.8356 H         1 UNK         0.0000 
     52 H52         1.2185   50.9226   28.9329 H         1 UNK         0.0000 
     53 H53         0.1625   50.8505   26.7459 H         1 UNK         0.0000 
@<TRIPOS>BOND
     1    1    6 ar   
     2    1    2 ar   
     3    1   36 1    
     4    2    3 ar   
     5    2   37 1    
     6    3    4 ar   
     7    3   38 1    
     8    4    5 ar   
     9    4    7 1    
    10    5    6 ar   
    11    5   39 1    
    12    6   40 1    
    13    7    8 1    
    14    7   41 1    
    15    7   42 1    
    16    8    9 1    
    17    8   43 1    
    18    9   10 2    
    19    9   18 1    
    20   10   11 1    
    21   11   16 ar   
    22   11   12 ar   
    23   12   13 ar   
    24   12   44 1    
    25   13   14 ar   
    26   13   45 1    
    27   14   15 ar   
    28   14   17 1    
    29   15   16 ar   
    30   15   46 1    
    31   16   47 1    
    32   18   19 1    
    33   19   20 1    
    34   19   25 1    
    35   19   21 1    
    36   21   22 1    
    37   21   48 1    
    38   21   49 1    
    39   22   23 2    
    40   22   24 am   BACKBONE|DICT|INTERRES
    41   24   25 am   BACKBONE|DICT|INTERRES
    42   24   27 1    
    43   25   26 2    
    44   27   32 ar   
    45   27   28 ar   
    46   28   29 ar   
    47   28   50 1    
    48   29   30 ar   
    49   29   51 1    
    50   30   31 ar   
    51   30   33 1    
    52   31   32 ar   
    53   31   52 1    
    54   32   53 1    
    55   33   34 2    
    56   33   35 1    
@<TRIPOS>SUBSTRUCTURE
     1 UNK         1 GROUP             0       ****    0 ROOT    
