@<TRIPOS>MOLECULE
ZINC42027150_1844
31   33    1
SMALL
USER_CHARGES


@<TRIPOS>ATOM
      1 C1          2.6767   53.8027   24.8951 C.ar      1 UNK         0.0000 
      2 C2          3.8781   54.4592   24.6364 C.ar      1 UNK         0.0000 
      3 C3          4.8500   54.5521   25.6318 C.ar      1 UNK         0.0000 
      4 C4          4.6358   53.9808   26.8838 C.ar      1 UNK         0.0000 
      5 C5          3.4403   53.3161   27.1446 C.ar      1 UNK         0.0000 
      6 C6          2.4490   53.2392   26.1568 C.ar      1 UNK         0.0000 
      7 N7          1.2295   52.5711   26.4366 N.pl3     1 UNK         0.0000 
      8 C8          0.4032   52.6303   27.5517 C.ar      1 UNK         0.0000 
      9 N9         -0.5971   51.7926   27.4057 N.2       1 UNK         0.0000 
     10 N10        -0.4322   51.2128   26.1546 N.2       1 UNK         0.0000 
     11 N11         0.7044   51.7085   25.5523 N.2       1 UNK         0.0000 
     12 C12         0.5617   53.5363   28.7310 C.ar      1 UNK         0.0000 
     13 C13         1.1137   54.8076   28.5481 C.ar      1 UNK         0.0000 
     14 C14         1.3019   55.6667   29.6183 C.ar      1 UNK         0.0000 
     15 C15         0.8771   55.2967   30.8817 C.ar      1 UNK         0.0000 
     16 C16         0.3044   54.0455   31.0858 C.ar      1 UNK         0.0000 
     17 C17         0.1482   53.1609   30.0166 C.ar      1 UNK         0.0000 
     18 N18        -0.0956   53.6967   32.3683 N.pl3     1 UNK         0.0000 
     19 N19         1.9044   56.8967   29.4133 N.pl3     1 UNK         0.0000 
     20 Br20        6.4838   55.4678   25.2818 Br        1 UNK         0.0000 
     21 H21         1.9269   53.7414   24.1189 H         1 UNK         0.0000 
     22 H22         4.0535   54.8966   23.6646 H         1 UNK         0.0000 
     23 H23         5.3967   54.0461   27.6479 H         1 UNK         0.0000 
     24 H24         3.2884   52.8640   28.1143 H         1 UNK         0.0000 
     25 H25         1.4121   55.1364   27.5696 H         1 UNK         0.0000 
     26 H26         1.0378   55.9727   31.7074 H         1 UNK         0.0000 
     27 H27        -0.2924   52.1876   30.1841 H         1 UNK         0.0000 
     28 H28        -0.0315   54.3768   33.1090 H         1 UNK         0.0000 
     29 H29        -0.6430   52.8334   32.5279 H         1 UNK         0.0000 
     30 H30         2.2473   57.1224   28.4928 H         1 UNK         0.0000 
     31 H31         2.1011   57.5112   30.1931 H         1 UNK         0.0000 
@<TRIPOS>BOND
     1    1    6 ar   
     2    1    2 ar   
     3    1   21 1    
     4    2    3 ar   
     5    2   22 1    
     6    3    4 ar   
     7    3   20 1    
     8    4    5 ar   
     9    4   23 1    
    10    5    6 ar   
    11    5   24 1    
    12    6    7 1    
    13    7   11 ar   
    14    7    8 ar   
    15    8    9 ar   
    16    8   12 1    
    17    9   10 ar   
    18   10   11 ar   
    19   12   17 ar   
    20   12   13 ar   
    21   13   14 ar   
    22   13   25 1    
    23   14   15 ar   
    24   14   19 1    
    25   15   16 ar   
    26   15   26 1    
    27   16   17 ar   
    28   16   18 1    
    29   17   27 1    
    30   18   28 1    
    31   18   29 1    
    32   19   30 1    
    33   19   31 1    
@<TRIPOS>SUBSTRUCTURE
     1 UNK         1 GROUP             0       ****    0 ROOT    
