@<TRIPOS>MOLECULE
ZINC08831417_3604
50   51    1
SMALL
USER_CHARGES


@<TRIPOS>ATOM
      1 C1          6.7507   55.1419   25.1194 C.3       1 UNK         0.0000 
      2 C2          5.3369   54.5954   25.2700 C.ar      1 UNK         0.0000 
      3 C3          4.5631   54.3965   24.1275 C.ar      1 UNK         0.0000 
      4 C4          3.2485   53.9559   24.2390 C.ar      1 UNK         0.0000 
      5 C5          2.7031   53.7170   25.4948 C.ar      1 UNK         0.0000 
      6 C6          3.4562   53.8971   26.6725 C.ar      1 UNK         0.0000 
      7 C7          4.7970   54.3300   26.5427 C.ar      1 UNK         0.0000 
      8 O8          5.6031   54.5339   27.6387 O.3       1 UNK         0.0000 
      9 C9          6.3105   53.3797   28.0785 C.3       1 UNK         0.0000 
     10 C10         2.8019   53.6819   28.0288 C.2       1 UNK         0.0000 
     11 O11         3.2411   54.2375   29.0402 O.2       1 UNK         0.0000 
     12 N12         1.7205   52.8593   27.9950 N.am      1 UNK         0.0000 
     13 C13         0.7515   52.5247   28.9078 C.2       1 UNK         0.0000 
     14 S14         0.7071   52.8967   30.5333 S.2       1 UNK         0.0000 
     15 N15        -0.2992   51.8096   28.4079 N.pl3     1 UNK         0.0000 
     16 C16        -0.5072   51.4460   27.0713 C.ar      1 UNK         0.0000 
     17 C17         0.3045   50.4831   26.4720 C.ar      1 UNK         0.0000 
     18 C18         0.1489   50.1841   25.1216 C.ar      1 UNK         0.0000 
     19 C19        -0.8240   50.8402   24.3658 C.ar      1 UNK         0.0000 
     20 C20        -1.6680   51.7793   24.9864 C.ar      1 UNK         0.0000 
     21 C21        -1.5121   52.0754   26.3373 C.ar      1 UNK         0.0000 
     22 N22        -0.8754   50.4890   23.0034 N.am      1 UNK         0.0000 
     23 C23        -1.5209   51.0949   21.9846 C.2       1 UNK         0.0000 
     24 O24        -2.2201   52.0998   22.0939 O.2       1 UNK         0.0000 
     25 C25        -1.3239   50.4689   20.5875 C.3       1 UNK         0.0000 
     26 C26        -2.6540   49.9240   20.0265 C.3       1 UNK         0.0000 
     27 C27        -0.6783   51.4797   19.6134 C.3       1 UNK         0.0000 
     28 Br28        2.1824   53.6947   22.6840 Br        1 UNK         0.0000 
     29 H29         6.9195   55.5862   24.1370 H         1 UNK         0.0000 
     30 H30         6.9260   55.9274   25.8554 H         1 UNK         0.0000 
     31 H31         7.4854   54.3556   25.2803 H         1 UNK         0.0000 
     32 H32         4.9696   54.5929   23.1481 H         1 UNK         0.0000 
     33 H33         1.6662   53.4103   25.5215 H         1 UNK         0.0000 
     34 H34         6.9909   53.6648   28.8815 H         1 UNK         0.0000 
     35 H35         5.6322   52.6171   28.4652 H         1 UNK         0.0000 
     36 H36         6.9103   52.9368   27.2844 H         1 UNK         0.0000 
     37 H37         1.5532   52.4638   27.0823 H         1 UNK         0.0000 
     38 H38        -1.0365   51.5636   29.0544 H         1 UNK         0.0000 
     39 H39         1.0706   49.9830   27.0437 H         1 UNK         0.0000 
     40 H40         0.8040   49.4515   24.6721 H         1 UNK         0.0000 
     41 H41        -2.4475   52.2921   24.4452 H         1 UNK         0.0000 
     42 H42        -2.1499   52.8134   26.8034 H         1 UNK         0.0000 
     43 H43        -0.3013   49.6962   22.7597 H         1 UNK         0.0000 
     44 H44        -0.6361   49.6250   20.6704 H         1 UNK         0.0000 
     45 H45        -3.0833   49.1630   20.6831 H         1 UNK         0.0000 
     46 H46        -2.5087   49.4609   19.0488 H         1 UNK         0.0000 
     47 H47        -3.3988   50.7119   19.9105 H         1 UNK         0.0000 
     48 H48         0.2784   51.8481   19.9908 H         1 UNK         0.0000 
     49 H49        -0.4849   51.0213   18.6412 H         1 UNK         0.0000 
     50 H50        -1.3184   52.3474   19.4465 H         1 UNK         0.0000 
@<TRIPOS>BOND
     1    1    2 1    
     2    1   29 1    
     3    1   30 1    
     4    1   31 1    
     5    2    7 ar   
     6    2    3 ar   
     7    3    4 ar   
     8    3   32 1    
     9    4    5 ar   
    10    4   28 1    
    11    5    6 ar   
    12    5   33 1    
    13    6    7 ar   
    14    6   10 1    
    15    7    8 1    
    16    8    9 1    
    17    9   34 1    
    18    9   35 1    
    19    9   36 1    
    20   10   11 2    
    21   10   12 am   BACKBONE|DICT|INTERRES
    22   12   13 am   BACKBONE|DICT|INTERRES
    23   12   37 1    
    24   13   14 2    
    25   13   15 1    
    26   15   16 1    
    27   15   38 1    
    28   16   21 ar   
    29   16   17 ar   
    30   17   18 ar   
    31   17   39 1    
    32   18   19 ar   
    33   18   40 1    
    34   19   20 ar   
    35   19   22 1    
    36   20   21 ar   
    37   20   41 1    
    38   21   42 1    
    39   22   23 am   BACKBONE|DICT|INTERRES
    40   22   43 1    
    41   23   24 2    
    42   23   25 1    
    43   25   26 1    
    44   25   27 1    
    45   25   44 1    
    46   26   45 1    
    47   26   46 1    
    48   26   47 1    
    49   27   48 1    
    50   27   49 1    
    51   27   50 1    
@<TRIPOS>SUBSTRUCTURE
     1 UNK         1 GROUP             0       ****    0 ROOT    
