@<TRIPOS>MOLECULE
ZINC36818912_2372
43   46    1
SMALL
USER_CHARGES


@<TRIPOS>ATOM
      1 C1          0.3919   51.6962   29.0075 C.ar      1 UNK         0.0000 
      2 C2         -0.2758   52.7170   29.6692 C.ar      1 UNK         0.0000 
      3 C3          0.3421   53.9526   29.8432 C.ar      1 UNK         0.0000 
      4 C4          1.6354   54.1734   29.3647 C.ar      1 UNK         0.0000 
      5 C5          2.3219   53.1272   28.7124 C.ar      1 UNK         0.0000 
      6 C6          1.6947   51.8876   28.5552 C.ar      1 UNK         0.0000 
      7 N7          3.6538   53.2031   28.2904 N.am      1 UNK         0.0000 
      8 C8          4.1458   54.0495   27.3686 C.2       1 UNK         0.0000 
      9 O9          3.4780   54.8965   26.7811 O.2       1 UNK         0.0000 
     10 C10         5.6283   53.8561   27.0494 C.3       1 UNK         0.0000 
     11 S11         6.3952   55.0989   25.9726 S.3       1 UNK         0.0000 
     12 C12         5.9158   54.8326   24.2922 C.ar      1 UNK         0.0000 
     13 N13         6.7517   55.3867   23.3954 N.ar      1 UNK         0.0000 
     14 C14         6.5300   55.1583   22.0843 C.ar      1 UNK         0.0000 
     15 C15         5.4239   54.3963   21.6499 C.ar      1 UNK         0.0000 
     16 C16         4.9621   53.9987   20.3529 C.2       1 UNK         0.0000 
     17 C17         3.8015   53.2311   20.4406 C.2       1 UNK         0.0000 
     18 S18         3.2531   52.9577   22.0801 S.3       1 UNK         0.0000 
     19 C19         4.5968   53.8929   22.7021 C.ar      1 UNK         0.0000 
     20 N20         4.8142   54.0860   24.0102 N.ar      1 UNK         0.0000 
     21 C21         3.0783   52.6263   19.2469 C.3       1 UNK         0.0000 
     22 C22         3.4662   53.4043   17.9733 C.3       1 UNK         0.0000 
     23 C23         4.9911   53.5642   17.8571 C.3       1 UNK         0.0000 
     24 C24         5.6013   54.3823   19.0165 C.3       1 UNK         0.0000 
     25 N25         7.4752   55.6966   21.2111 N.pl3     1 UNK         0.0000 
     26 Br26        2.3971   55.8919   29.6812 Br        1 UNK         0.0000 
     27 H27        -0.0957   50.7418   28.8674 H         1 UNK         0.0000 
     28 H28        -1.2736   52.5413   30.0415 H         1 UNK         0.0000 
     29 H29        -0.1775   54.7451   30.3638 H         1 UNK         0.0000 
     30 H30         2.2033   51.0673   28.0708 H         1 UNK         0.0000 
     31 H31         4.2247   52.3972   28.4927 H         1 UNK         0.0000 
     32 H32         6.1904   53.8459   27.9846 H         1 UNK         0.0000 
     33 H33         5.7653   52.8882   26.5744 H         1 UNK         0.0000 
     34 H34         3.3621   51.5777   19.1348 H         1 UNK         0.0000 
     35 H35         1.9967   52.6443   19.3869 H         1 UNK         0.0000 
     36 H36         3.0803   52.8793   17.0969 H         1 UNK         0.0000 
     37 H37         2.9906   54.3869   17.9765 H         1 UNK         0.0000 
     38 H38         5.4513   52.5727   17.8315 H         1 UNK         0.0000 
     39 H39         5.2464   54.0290   16.9037 H         1 UNK         0.0000 
     40 H40         5.4492   55.4475   18.8334 H         1 UNK         0.0000 
     41 H41         6.6796   54.2175   19.0292 H         1 UNK         0.0000 
     42 H42         7.3994   55.5203   20.2200 H         1 UNK         0.0000 
     43 H43         8.2909   56.1380   21.6094 H         1 UNK         0.0000 
@<TRIPOS>BOND
     1    1    6 ar   
     2    1    2 ar   
     3    1   27 1    
     4    2    3 ar   
     5    2   28 1    
     6    3    4 ar   
     7    3   29 1    
     8    4    5 ar   
     9    4   26 1    
    10    5    6 ar   
    11    5    7 1    
    12    6   30 1    
    13    7    8 am   BACKBONE|DICT|INTERRES
    14    7   31 1    
    15    8    9 2    
    16    8   10 1    
    17   10   11 1    
    18   10   32 1    
    19   10   33 1    
    20   11   12 1    
    21   12   20 ar   
    22   12   13 ar   
    23   13   14 ar   
    24   14   15 ar   
    25   14   25 1    
    26   15   19 ar   
    27   15   16 1    
    28   16   24 1    
    29   16   17 2    
    30   17   18 1    
    31   17   21 1    
    32   18   19 1    
    33   19   20 ar   
    34   21   22 1    
    35   21   34 1    
    36   21   35 1    
    37   22   23 1    
    38   22   36 1    
    39   22   37 1    
    40   23   24 1    
    41   23   38 1    
    42   23   39 1    
    43   24   40 1    
    44   24   41 1    
    45   25   42 1    
    46   25   43 1    
@<TRIPOS>SUBSTRUCTURE
     1 UNK         1 GROUP             0       ****    0 ROOT    
