@<TRIPOS>MOLECULE
ZINC19852091_4431
54   58    1
SMALL
USER_CHARGES


@<TRIPOS>ATOM
      1 C1          2.8424   52.6596   16.6183 C.2       1 UNK         0.0000 
      2 C2          3.1291   53.4724   17.7176 C.2       1 UNK         0.0000 
      3 C3          4.4385   53.9520   17.7238 C.2       1 UNK         0.0000 
      4 S4          5.3375   53.3171   16.3720 S.3       1 UNK         0.0000 
      5 C5          3.9328   52.4967   15.7802 C.2       1 UNK         0.0000 
      6 C6          5.1384   54.8569   18.7068 C.ar      1 UNK         0.0000 
      7 C7          5.5485   56.1532   18.3111 C.ar      1 UNK         0.0000 
      8 C8          6.2629   56.9394   19.2341 C.ar      1 UNK         0.0000 
      9 N9          6.5440   56.5175   20.4861 N.ar      1 UNK         0.0000 
     10 C10         6.1041   55.3009   20.8923 C.ar      1 UNK         0.0000 
     11 C11         5.4020   54.4283   20.0317 C.ar      1 UNK         0.0000 
     12 C12         4.9826   53.0994   20.4870 C.1       1 UNK         0.0000 
     13 N13         4.6531   52.0533   20.8571 N.1       1 UNK         0.0000 
     14 S14         6.5437   54.8967   22.5800 S.3       1 UNK         0.0000 
     15 C15         5.0268   54.3544   23.4459 C.3       1 UNK         0.0000 
     16 C16         5.0159   54.4967   24.9729 C.2       1 UNK         0.0000 
     17 O17         5.9313   55.0592   25.5772 O.2       1 UNK         0.0000 
     18 N18         3.9434   53.9420   25.5714 N.am      1 UNK         0.0000 
     19 C19         3.6487   53.7904   27.0035 C.3       1 UNK         0.0000 
     20 C20         4.7614   53.0114   27.7661 C.3       1 UNK         0.0000 
     21 C21         4.3620   52.7587   29.2383 C.3       1 UNK         0.0000 
     22 C22         4.2712   54.1463   29.9078 C.3       1 UNK         0.0000 
     23 C23         3.1435   54.9680   29.2381 C.3       1 UNK         0.0000 
     24 C24         3.4951   55.1344   27.7442 C.3       1 UNK         0.0000 
     25 C25         1.7888   54.2273   29.3584 C.3       1 UNK         0.0000 
     26 C26         1.8999   52.8527   28.6541 C.3       1 UNK         0.0000 
     27 C27         3.0028   52.0220   29.3427 C.3       1 UNK         0.0000 
     28 C28         2.2811   53.0562   27.1640 C.3       1 UNK         0.0000 
     29 N29         6.7045   58.2342   18.9399 N.pl3     1 UNK         0.0000 
     30 C30         5.2242   56.6882   16.9822 C.1       1 UNK         0.0000 
     31 N31         4.9691   57.1104   15.9359 N.1       1 UNK         0.0000 
     32 H32         1.8817   52.1961   16.4471 H         1 UNK         0.0000 
     33 H33         2.4023   53.6967   18.4816 H         1 UNK         0.0000 
     34 H34         3.9897   51.8991   14.8829 H         1 UNK         0.0000 
     35 H35         4.1726   54.8946   23.0378 H         1 UNK         0.0000 
     36 H36         4.8835   53.2966   23.2351 H         1 UNK         0.0000 
     37 H37         3.2618   53.5115   24.9659 H         1 UNK         0.0000 
     38 H38         5.0031   52.0967   27.2630 H         1 UNK         0.0000 
     39 H39         5.7008   53.5672   27.7404 H         1 UNK         0.0000 
     40 H40         5.1046   52.1445   29.7353 H         1 UNK         0.0000 
     41 H41         4.1048   54.0106   30.9643 H         1 UNK         0.0000 
     42 H42         5.2153   54.6874   29.8164 H         1 UNK         0.0000 
     43 H43         3.0664   55.9597   29.6818 H         1 UNK         0.0000 
     44 H44         4.4295   55.6805   27.6445 H         1 UNK         0.0000 
     45 H45         2.7045   55.7034   27.2817 H         1 UNK         0.0000 
     46 H46         1.5122   54.0998   30.4059 H         1 UNK         0.0000 
     47 H47         0.9908   54.8192   28.9065 H         1 UNK         0.0000 
     48 H48         0.9473   52.3252   28.7235 H         1 UNK         0.0000 
     49 H49         3.0600   51.0369   28.8841 H         1 UNK         0.0000 
     50 H50         2.7480   51.8554   30.3904 H         1 UNK         0.0000 
     51 H51         1.4929   53.6231   26.6655 H         1 UNK         0.0000 
     52 H52         2.3032   52.0967   26.6547 H         1 UNK         0.0000 
     53 H53         6.4346   58.6568   18.0600 H         1 UNK         0.0000 
     54 H54         7.0555   58.8199   19.6777 H         1 UNK         0.0000 
@<TRIPOS>BOND
     1    1    5 2    
     2    1    2 1    
     3    1   32 1    
     4    2    3 2    
     5    2   33 1    
     6    3    4 1    
     7    3    6 1    
     8    4    5 1    
     9    5   34 1    
    10    6   11 ar   
    11    6    7 ar   
    12    7    8 ar   
    13    7   30 1    
    14    8    9 ar   
    15    8   29 1    
    16    9   10 ar   
    17   10   11 ar   
    18   10   14 1    
    19   11   12 1    
    20   12   13 3    
    21   14   15 1    
    22   15   16 1    
    23   15   35 1    
    24   15   36 1    
    25   16   17 2    
    26   16   18 am   BACKBONE|DICT|INTERRES
    27   18   19 1    
    28   18   37 1    
    29   19   24 1    
    30   19   28 1    
    31   19   20 1    
    32   20   21 1    
    33   20   38 1    
    34   20   39 1    
    35   21   27 1    
    36   21   22 1    
    37   21   40 1    
    38   22   23 1    
    39   22   41 1    
    40   22   42 1    
    41   23   24 1    
    42   23   25 1    
    43   23   43 1    
    44   24   44 1    
    45   24   45 1    
    46   25   26 1    
    47   25   46 1    
    48   25   47 1    
    49   26   27 1    
    50   26   28 1    
    51   26   48 1    
    52   27   49 1    
    53   27   50 1    
    54   28   51 1    
    55   28   52 1    
    56   29   53 1    
    57   29   54 1    
    58   30   31 3    
@<TRIPOS>SUBSTRUCTURE
     1 UNK         1 GROUP             0       ****    0 ROOT    
