ZINC23483298_4831
                    3D
 Schrodinger Suite 2024-2.
 57 59  0  0  1  0            999 V2000
    6.5250   54.2096   28.3161 C   0  0  0  0  0  0
    5.3880   53.5567   27.5194 C   0  0  1  0  0  0
    5.6088   52.4964   27.5267 H   0  0  0  0  0  0
    4.0268   53.7331   28.2181 C   0  0  0  0  0  0
    3.1100   54.6898   27.7624 C   0  0  0  0  0  0
    1.9002   54.8986   28.4272 C   0  0  0  0  0  0
    1.5715   54.1268   29.5386 C   0  0  0  0  0  0
    2.4461   53.1367   29.9738 C   0  0  0  0  0  0
    3.6673   52.9408   29.3271 C   0  0  0  0  0  0
    4.6971   51.6985   29.9370 Cl  0  0  0  0  0  0
    0.0930   54.3994   30.3849 Cl  0  0  0  0  0  0
    5.4091   53.8343   26.0757 N   0  0  0  0  0  0
    6.0577   54.7818   25.3675 C   0  0  0  0  0  0
    6.7044   55.6967   25.8692 O   0  0  0  0  0  0
    6.0128   54.6777   23.8416 C   0  0  0  0  0  0
    4.6092   53.7102   23.1895 S   0  0  0  0  0  0
    4.7022   54.0442   21.4646 C   0  0  0  0  0  0
    5.5243   54.9002   20.9120 N   0  0  0  0  0  0
    5.2564   54.9191   19.5535 N   0  0  0  0  0  0
    4.3045   54.0449   19.3293 C   0  0  0  0  0  0
    3.9193   53.4270   20.5067 N   0  0  0  0  0  0
    2.9676   52.3984   20.7010 C   0  0  0  0  0  0
    1.9249   52.5529   21.6208 C   0  0  0  0  0  0
    1.0319   51.5057   21.8381 C   0  0  0  0  0  0
    1.1806   50.3130   21.1333 C   0  0  0  0  0  0
    2.2116   50.1583   20.2097 C   0  0  0  0  0  0
    3.1043   51.2032   19.9943 C   0  0  0  0  0  0
    0.3153   49.2959   21.3460 F   0  0  0  0  0  0
    3.6645   53.8012   17.9648 C   0  0  1  0  0  0
    2.7482   53.2173   18.0741 H   0  0  0  0  0  0
    3.3156   55.1127   17.2264 C   0  0  0  0  0  0
    4.5916   52.8967   17.1045 N   0  3  0  0  0  0
    3.8630   52.2647   15.8961 C   0  0  0  0  0  0
    5.9456   53.5067   16.6727 C   0  0  0  0  0  0
    6.6581   53.7415   29.2815 H   0  0  0  0  0  0
    7.4865   54.1278   27.8085 H   0  0  0  0  0  0
    6.3044   55.2654   28.4719 H   0  0  0  0  0  0
    3.3491   55.2965   26.9025 H   0  0  0  0  0  0
    1.2182   55.6619   28.0817 H   0  0  0  0  0  0
    2.1782   52.5255   30.8235 H   0  0  0  0  0  0
    4.8869   53.1659   25.5279 H   0  0  0  0  0  0
    6.0084   55.6882   23.4407 H   0  0  0  0  0  0
    6.9427   54.2166   23.5069 H   0  0  0  0  0  0
    1.8054   53.4793   22.1653 H   0  0  0  0  0  0
    0.2291   51.6127   22.5521 H   0  0  0  0  0  0
    2.3246   49.2326   19.6651 H   0  0  0  0  0  0
    3.9042   51.0781   19.2830 H   0  0  0  0  0  0
    2.6187   55.7045   17.8214 H   0  0  0  0  0  0
    4.1923   55.7373   17.0529 H   0  0  0  0  0  0
    2.8343   54.9335   16.2662 H   0  0  0  0  0  0
    3.5929   53.0531   15.1916 H   0  0  0  0  0  0
    4.5472   51.5469   15.4400 H   0  0  0  0  0  0
    2.9848   51.7409   16.2776 H   0  0  0  0  0  0
    5.7503   54.3507   16.0102 H   0  0  0  0  0  0
    6.4897   53.8113   17.5654 H   0  0  0  0  0  0
    6.5017   52.7238   16.1551 H   0  0  0  0  0  0
    4.8250   52.0835   17.6817 H   0  0  0  0  0  0
  1  2  1  0  0  0
  1 35  1  0  0  0
  1 36  1  0  0  0
  1 37  1  0  0  0
  2  3  1  0  0  0
  2  4  1  0  0  0
  2 12  1  0  0  0
  4  9  2  0  0  0
  4  5  1  0  0  0
  5  6  2  0  0  0
  5 38  1  0  0  0
  6  7  1  0  0  0
  6 39  1  0  0  0
  7  8  2  0  0  0
  7 11  1  0  0  0
  8  9  1  0  0  0
  8 40  1  0  0  0
  9 10  1  0  0  0
 12 13  1  0  0  0
 12 41  1  0  0  0
 13 14  2  0  0  0
 13 15  1  0  0  0
 15 16  1  0  0  0
 15 42  1  0  0  0
 15 43  1  0  0  0
 16 17  1  0  0  0
 17 21  1  0  0  0
 17 18  2  0  0  0
 18 19  1  0  0  0
 19 20  2  0  0  0
 20 21  1  0  0  0
 20 29  1  0  0  0
 21 22  1  0  0  0
 22 27  2  0  0  0
 22 23  1  0  0  0
 23 24  2  0  0  0
 23 44  1  0  0  0
 24 25  1  0  0  0
 24 45  1  0  0  0
 25 26  2  0  0  0
 25 28  1  0  0  0
 26 27  1  0  0  0
 26 46  1  0  0  0
 27 47  1  0  0  0
 29 30  1  0  0  0
 29 31  1  0  0  0
 29 32  1  0  0  0
 31 48  1  0  0  0
 31 49  1  0  0  0
 31 50  1  0  0  0
 32 33  1  0  0  0
 32 34  1  0  0  0
 32 57  1  0  0  0
 33 51  1  0  0  0
 33 52  1  0  0  0
 33 53  1  0  0  0
 34 54  1  0  0  0
 34 55  1  0  0  0
 34 56  1  0  0  0
M  CHG  1  32   1
M  END
> <i_i_glide_confnum>
192

> <i_i_glide_lignum>
4832

> <i_i_glide_posenum>
292

> <i_i_glide_rotatable_bonds>
9

> <i_m_Source_File_Index>
2835

> <b_m_subgroup_collapsed>
0

> <r_i_docking_score>
-6.87059

> <r_i_glide_ecoul>
-8.29467

> <r_i_glide_eff_state_penalty>
0

> <r_i_glide_einternal>
8.4707

> <r_i_glide_emodel>
-73.5103

> <r_i_glide_energy>
-52.355

> <r_i_glide_erotb>
0.577078

> <r_i_glide_esite>
-0.0958395

> <r_i_glide_evdw>
-44.0603

> <r_i_glide_gscore>
-6.87059

> <r_i_glide_hbond>
-0.52

> <r_i_glide_ligand_efficiency>
-0.214706

> <r_i_glide_ligand_efficiency_ln>
-1.53851

> <r_i_glide_ligand_efficiency_sa>
-0.681649

> <r_i_glide_lipo>
-2.6864

> <r_i_glide_metal>
0

> <r_i_glide_rewards>
-0.698218

> <s_i_glide_gridfile>
wee1_glide-grid

> <s_m_Source_File>
wee1_decoys_glide_SP.sdf

> <s_m_Source_Path>
/Users/zhangxujun/Desktop

> <s_m_entry_id>
3110

> <s_m_entry_name>
wee1_decoys_glide_SP.2835

> <s_m_subgroup_title>
wee1_decoys_glide_SP

> <s_m_subgroupid>
wee1_decoys_glide_SP


$$$$
