@<TRIPOS>MOLECULE
ZINC37579721_1580
36   36    1
SMALL
USER_CHARGES


@<TRIPOS>ATOM
      1 C1         -0.3000   51.8988   29.6325 C.3       1 UNK         0.0000 
      2 C2          0.7515   52.5289   28.7297 C.ar      1 UNK         0.0000 
      3 C3          1.8129   53.2042   29.3420 C.ar      1 UNK         0.0000 
      4 C4          2.8262   53.7834   28.5804 C.ar      1 UNK         0.0000 
      5 C5          2.7883   53.6946   27.1895 C.ar      1 UNK         0.0000 
      6 C6          1.7291   53.0310   26.5668 C.ar      1 UNK         0.0000 
      7 C7          0.7076   52.4389   27.3214 C.ar      1 UNK         0.0000 
      8 S8         -0.6063   51.5789   26.4267 S.o2      1 UNK         0.0000 
      9 O9         -1.8403   51.6966   27.2092 O.2       1 UNK         0.0000 
     10 O10        -0.5752   52.0651   25.0428 O.2       1 UNK         0.0000 
     11 N11        -0.0956   49.8863   26.4817 N.pl3     1 UNK         0.0000 
     12 C12         0.1258   49.0213   25.2794 C.3       1 UNK         0.0000 
     13 H13         0.7811   48.2287   25.6420 H         1 UNK         0.0000 
     14 C14         0.8379   49.7103   24.1104 C.3       1 UNK         0.0000 
     15 C15        -1.1973   48.3380   24.8301 C.2       1 UNK         0.0000 
     16 O16        -1.2934   47.8337   23.7131 O.2       1 UNK         0.0000 
     17 N17        -2.2221   48.2526   25.6816 N.am      1 UNK         0.0000 
     18 C18         3.8568   54.2755   26.3907 C.1       1 UNK         0.0000 
     19 C19         4.7519   54.7421   25.7031 C.1       1 UNK         0.0000 
     20 C20         5.8108   55.2958   24.8495 C.3       1 UNK         0.0000 
     21 O21         7.1044   54.8995   25.2374 O.3       1 UNK         0.0000 
     22 H22         0.0412   51.7946   30.6629 H         1 UNK         0.0000 
     23 H23        -1.2141   52.4907   29.6305 H         1 UNK         0.0000 
     24 H24        -0.5489   50.8966   29.2910 H         1 UNK         0.0000 
     25 H25         1.8560   53.2772   30.4186 H         1 UNK         0.0000 
     26 H26         3.6421   54.2929   29.0743 H         1 UNK         0.0000 
     27 H27         1.7098   52.9602   25.4878 H         1 UNK         0.0000 
     28 H28        -0.4759   49.3675   27.2885 H         1 UNK         0.0000 
     29 H29         1.3287   48.9655   23.4831 H         1 UNK         0.0000 
     30 H30         0.1382   50.2643   23.4835 H         1 UNK         0.0000 
     31 H31         1.5909   50.4021   24.4807 H         1 UNK         0.0000 
     32 H32        -2.0917   48.4963   26.6637 H         1 UNK         0.0000 
     33 H33        -3.0798   47.8168   25.3879 H         1 UNK         0.0000 
     34 H34         5.7483   56.3834   24.8824 H         1 UNK         0.0000 
     35 H35         5.6200   54.9740   23.8250 H         1 UNK         0.0000 
     36 H36         7.6961   54.9852   24.4805 H         1 UNK         0.0000 
@<TRIPOS>BOND
     1    1    2 1    
     2    1   22 1    
     3    1   23 1    
     4    1   24 1    
     5    2    7 ar   
     6    2    3 ar   
     7    3    4 ar   
     8    3   25 1    
     9    4    5 ar   
    10    4   26 1    
    11    5    6 ar   
    12    5   18 1    
    13    6    7 ar   
    14    6   27 1    
    15    7    8 1    
    16    8    9 2    
    17    8   10 2    
    18    8   11 1    
    19   11   12 1    
    20   11   28 1    
    21   12   13 1    
    22   12   14 1    
    23   12   15 1    
    24   14   29 1    
    25   14   30 1    
    26   14   31 1    
    27   15   16 2    
    28   15   17 am   BACKBONE|DICT|INTERRES
    29   17   32 1    
    30   17   33 1    
    31   18   19 3    
    32   19   20 1    
    33   20   21 1    
    34   20   34 1    
    35   20   35 1    
    36   21   36 1    
@<TRIPOS>SUBSTRUCTURE
     1 UNK         1 GROUP             0       ****    0 ROOT    
