ZINC39253057_5054
                    3D
 Schrodinger Suite 2024-2.
 48 51  0  0  1  0            999 V2000
    3.0642   54.0534   26.6166 C   0  0  0  0  0  0
    3.8755   54.4973   25.5714 C   0  0  0  0  0  0
    5.2487   54.6390   25.7566 C   0  0  0  0  0  0
    5.8092   54.3214   26.9963 C   0  0  0  0  0  0
    4.9983   53.8635   28.0333 C   0  0  0  0  0  0
    3.6111   53.7215   27.8662 C   0  0  0  0  0  0
    2.7832   53.2556   29.0099 C   0  0  0  0  0  0
    3.2594   52.7609   30.0814 N   0  0  0  0  0  0
    2.3601   52.4912   30.9328 N   0  0  0  0  0  0
    1.2158   52.7846   30.4931 C   0  0  0  0  0  0
    1.2645   53.3388   29.0960 C   0  0  2  0  0  0
    0.9488   54.3820   29.1035 H   0  0  0  0  0  0
    0.4855   52.5352   28.0484 C   0  0  0  0  0  0
    0.1740   51.2972   28.1463 N   0  0  0  0  0  0
   -0.3334   50.6005   27.0661 N   0  0  0  0  0  0
   -0.0478   50.7308   25.7426 C   0  0  0  0  0  0
    0.6801   51.6141   25.2741 O   0  0  0  0  0  0
   -0.6932   49.6907   24.7948 C   0  0  1  0  0  0
   -1.3964   49.0795   25.3647 H   0  0  0  0  0  0
   -1.3506   50.3346   23.6033 C   0  0  0  0  0  0
   -0.5652   50.1452   22.5312 C   0  0  0  0  0  0
    0.5490   49.3734   22.8848 N   0  0  0  0  0  0
    0.3043   48.8214   24.2029 N   0  0  0  0  0  0
    1.8955   49.9158   22.6785 C   0  0  0  0  0  0
    2.1230   50.5135   21.2910 C   0  0  0  0  0  0
    2.3537   51.8907   21.1844 C   0  0  0  0  0  0
    2.5477   52.4808   19.9365 C   0  0  0  0  0  0
    2.5050   51.7011   18.7834 C   0  0  0  0  0  0
    2.2863   50.3280   18.8813 C   0  0  0  0  0  0
    2.1101   49.7265   20.1272 C   0  0  0  0  0  0
    1.8964   48.0119   20.1899 Cl  0  0  0  0  0  0
    2.7295   52.4340   17.2376 Cl  0  0  0  0  0  0
    7.4986   54.4962   27.2834 Cl  0  0  0  0  0  0
    6.2242   55.2198   24.4509 Cl  0  0  0  0  0  0
    2.0095   53.9780   26.4178 H   0  0  0  0  0  0
    3.4318   54.7430   24.6171 H   0  0  0  0  0  0
    5.4682   53.6277   28.9774 H   0  0  0  0  0  0
    0.3093   52.6387   31.0760 H   0  0  0  0  0  0
    0.2058   53.1412   27.1922 H   0  0  0  0  0  0
   -0.7685   49.7272   27.3520 H   0  0  0  0  0  0
   -2.2662   50.9034   23.6603 H   0  0  0  0  0  0
   -0.6791   50.5221   21.5249 H   0  0  0  0  0  0
    1.1892   48.8625   24.6923 H   0  0  0  0  0  0
    2.1050   50.6716   23.4346 H   0  0  0  0  0  0
    2.6301   49.1265   22.8396 H   0  0  0  0  0  0
    2.3733   52.5136   22.0677 H   0  0  0  0  0  0
    2.7238   53.5431   19.8605 H   0  0  0  0  0  0
    2.2976   49.7234   17.9851 H   0  0  0  0  0  0
  1  6  2  0  0  0
  1  2  1  0  0  0
  1 35  1  0  0  0
  2  3  2  0  0  0
  2 36  1  0  0  0
  3  4  1  0  0  0
  3 34  1  0  0  0
  4  5  2  0  0  0
  4 33  1  0  0  0
  5  6  1  0  0  0
  5 37  1  0  0  0
  6  7  1  0  0  0
  7 11  1  0  0  0
  7  8  2  0  0  0
  8  9  1  0  0  0
  9 10  2  0  0  0
 10 11  1  0  0  0
 10 38  1  0  0  0
 11 12  1  0  0  0
 11 13  1  0  0  0
 13 14  2  0  0  0
 13 39  1  0  0  0
 14 15  1  0  0  0
 15 16  1  0  0  0
 15 40  1  0  0  0
 16 17  2  0  0  0
 16 18  1  0  0  0
 18 19  1  0  0  0
 18 23  1  0  0  0
 18 20  1  0  0  0
 20 21  2  0  0  0
 20 41  1  0  0  0
 21 22  1  0  0  0
 21 42  1  0  0  0
 22 23  1  0  0  0
 22 24  1  0  0  0
 23 43  1  0  0  0
 24 25  1  0  0  0
 24 44  1  0  0  0
 24 45  1  0  0  0
 25 30  2  0  0  0
 25 26  1  0  0  0
 26 27  2  0  0  0
 26 46  1  0  0  0
 27 28  1  0  0  0
 27 47  1  0  0  0
 28 29  2  0  0  0
 28 32  1  0  0  0
 29 30  1  0  0  0
 29 48  1  0  0  0
 30 31  1  0  0  0
M  END
> <i_i_glide_confnum>
42

> <i_i_glide_lignum>
5055

> <i_i_glide_posenum>
360

> <i_i_glide_rotatable_bonds>
7

> <i_m_Source_File_Index>
747

> <b_m_subgroup_collapsed>
0

> <r_i_docking_score>
-6.30801

> <r_i_glide_ecoul>
-9.16084

> <r_i_glide_eff_state_penalty>
0

> <r_i_glide_einternal>
8.51325

> <r_i_glide_emodel>
-69.263

> <r_i_glide_energy>
-52.7524

> <r_i_glide_erotb>
0.550869

> <r_i_glide_esite>
-0.183022

> <r_i_glide_evdw>
-43.5916

> <r_i_glide_gscore>
-6.30801

> <r_i_glide_hbond>
-0.228123

> <r_i_glide_ligand_efficiency>
-0.197125

> <r_i_glide_ligand_efficiency_ln>
-1.41253

> <r_i_glide_ligand_efficiency_sa>
-0.625833

> <r_i_glide_lipo>
-2.29889

> <r_i_glide_metal>
0

> <r_i_glide_rewards>
-0.595138

> <s_i_glide_gridfile>
wee1_glide-grid

> <s_m_Source_File>
wee1_decoys_glide_SP.sdf

> <s_m_Source_Path>
/Users/zhangxujun/Desktop

> <s_m_entry_id>
1022

> <s_m_entry_name>
wee1_decoys_glide_SP.747

> <s_m_subgroup_title>
wee1_decoys_glide_SP

> <s_m_subgroupid>
wee1_decoys_glide_SP


$$$$
