@<TRIPOS>MOLECULE
ZINC67254966_2585
48   50    1
SMALL
USER_CHARGES


@<TRIPOS>ATOM
      1 C1          1.9308   46.0403   16.3951 C.3       1 UNK         0.0000 
      2 N2          1.9044   47.1306   17.3616 N.am      1 UNK         0.0000 
      3 C3          1.1099   47.1873   18.4484 C.2       1 UNK         0.0000 
      4 O4          0.3103   46.2926   18.7318 O.2       1 UNK         0.0000 
      5 C5          1.2702   48.4009   19.3419 C.ar      1 UNK         0.0000 
      6 C6          2.1402   49.4416   18.9957 C.ar      1 UNK         0.0000 
      7 C7          2.3465   50.5155   19.8416 C.ar      1 UNK         0.0000 
      8 C8          1.7082   50.5705   21.0885 C.ar      1 UNK         0.0000 
      9 C9          0.7901   49.5716   21.4195 C.ar      1 UNK         0.0000 
     10 C10         0.5665   48.5008   20.5505 C.ar      1 UNK         0.0000 
     11 N11         1.9482   51.5838   22.0429 N.am      1 UNK         0.0000 
     12 C12         2.9988   52.4323   22.0803 C.2       1 UNK         0.0000 
     13 O13         3.9148   52.4424   21.2598 O.2       1 UNK         0.0000 
     14 N14         2.9529   53.2982   23.1031 N.am      1 UNK         0.0000 
     15 C15         3.7760   54.5114   23.1669 C.3       1 UNK         0.0000 
     16 C16         5.1636   54.3592   23.8706 C.3       1 UNK         0.0000 
     17 C17         6.2448   53.6631   23.0552 C.3       1 UNK         0.0000 
     18 C18         6.2697   55.1518   23.1521 C.3       1 UNK         0.0000 
     19 C19         5.1892   54.2830   25.4113 C.ar      1 UNK         0.0000 
     20 C20         6.4101   54.3450   26.0969 C.ar      1 UNK         0.0000 
     21 C21         6.4551   54.2778   27.4856 C.ar      1 UNK         0.0000 
     22 C22         5.2752   54.1557   28.2117 C.ar      1 UNK         0.0000 
     23 C23         4.0391   54.0966   27.5596 C.ar      1 UNK         0.0000 
     24 C24         4.0083   54.1508   26.1608 C.ar      1 UNK         0.0000 
     25 C25         2.7447   53.9816   28.3604 C.3       1 UNK         0.0000 
     26 F26         1.8673   53.1898   27.7387 F         1 UNK         0.0000 
     27 F27         2.9589   53.4939   29.5848 F         1 UNK         0.0000 
     28 F28         2.2079   55.1959   28.4843 F         1 UNK         0.0000 
     29 H29         2.8599   46.0776   15.8275 H         1 UNK         0.0000 
     30 H30         1.0972   46.1310   15.6967 H         1 UNK         0.0000 
     31 H31         1.8731   45.0666   16.8816 H         1 UNK         0.0000 
     32 H32         2.5547   47.8914   17.1898 H         1 UNK         0.0000 
     33 H33         2.7042   49.4388   18.0814 H         1 UNK         0.0000 
     34 H34         3.0285   51.2707   19.4926 H         1 UNK         0.0000 
     35 H35         0.2690   49.5991   22.3672 H         1 UNK         0.0000 
     36 H36        -0.1291   47.7318   20.8443 H         1 UNK         0.0000 
     37 H37         1.3102   51.6015   22.8222 H         1 UNK         0.0000 
     38 H38         2.2788   53.1557   23.8390 H         1 UNK         0.0000 
     39 H39         3.9095   54.8766   22.1440 H         1 UNK         0.0000 
     40 H40         3.2016   55.2958   23.6550 H         1 UNK         0.0000 
     41 H41         7.0377   53.1094   23.5530 H         1 UNK         0.0000 
     42 H42         5.9539   53.2062   22.1154 H         1 UNK         0.0000 
     43 H43         6.0670   55.6949   22.2282 H         1 UNK         0.0000 
     44 H44         7.0544   55.6447   23.7259 H         1 UNK         0.0000 
     45 H45         7.3394   54.4298   25.5548 H         1 UNK         0.0000 
     46 H46         7.3994   54.3306   28.0044 H         1 UNK         0.0000 
     47 H47         5.3353   54.1193   29.2863 H         1 UNK         0.0000 
     48 H48         3.0501   54.0994   25.6678 H         1 UNK         0.0000 
@<TRIPOS>BOND
     1    1    2 1    
     2    1   29 1    
     3    1   30 1    
     4    1   31 1    
     5    2    3 am   BACKBONE|DICT|INTERRES
     6    2   32 1    
     7    3    4 2    
     8    3    5 1    
     9    5   10 ar   
    10    5    6 ar   
    11    6    7 ar   
    12    6   33 1    
    13    7    8 ar   
    14    7   34 1    
    15    8    9 ar   
    16    8   11 1    
    17    9   10 ar   
    18    9   35 1    
    19   10   36 1    
    20   11   12 am   BACKBONE|DICT|INTERRES
    21   11   37 1    
    22   12   13 2    
    23   12   14 am   BACKBONE|DICT|INTERRES
    24   14   15 1    
    25   14   38 1    
    26   15   16 1    
    27   15   39 1    
    28   15   40 1    
    29   16   18 1    
    30   16   17 1    
    31   16   19 1    
    32   17   18 1    
    33   17   41 1    
    34   17   42 1    
    35   18   43 1    
    36   18   44 1    
    37   19   24 ar   
    38   19   20 ar   
    39   20   21 ar   
    40   20   45 1    
    41   21   22 ar   
    42   21   46 1    
    43   22   23 ar   
    44   22   47 1    
    45   23   24 ar   
    46   23   25 1    
    47   24   48 1    
    48   25   26 1    
    49   25   27 1    
    50   25   28 1    
@<TRIPOS>SUBSTRUCTURE
     1 UNK         1 GROUP             0       ****    0 ROOT    
