ZINC45683796_1544
                    3D
 Schrodinger Suite 2024-2.
 50 54  0  0  1  0            999 V2000
   -0.0958   52.7416   30.2586 C   0  0  0  0  0  0
   -0.0878   51.9336   29.1242 C   0  0  0  0  0  0
    0.7681   52.2349   28.0685 C   0  0  0  0  0  0
    1.6202   53.3454   28.1531 C   0  0  0  0  0  0
    1.5988   54.1583   29.2934 C   0  0  0  0  0  0
    0.7341   53.8572   30.3440 C   0  0  0  0  0  0
    2.5106   53.6408   27.0953 N   0  0  0  0  0  0
    3.8094   54.0753   27.1682 C   0  0  0  0  0  0
    4.2534   54.2071   25.8842 C   0  0  0  0  0  0
    3.1967   53.7917   25.0543 C   0  0  0  0  0  0
    2.1479   53.4730   25.8052 N   0  0  0  0  0  0
    3.2679   53.6984   23.6091 C   0  0  0  0  0  0
    4.2609   54.0921   22.9897 O   0  0  0  0  0  0
    2.2084   53.0814   23.0437 N   0  0  0  0  0  0
    2.2256   52.7900   21.6806 N   0  0  0  0  0  0
    2.2922   51.4856   21.3202 C   0  0  0  0  0  0
    2.4920   50.5733   22.1310 O   0  0  0  0  0  0
    2.1047   51.1537   19.8194 C   0  0  2  0  0  0
    2.9974   51.5084   19.2986 H   0  0  0  0  0  0
    0.8116   51.8170   19.2566 C   0  0  0  0  0  0
    0.6519   51.4701   17.8775 O   0  0  0  0  0  0
    0.8100   50.1207   17.6284 C   0  0  0  0  0  0
    0.3057   49.6148   16.4311 C   0  0  0  0  0  0
    0.4742   48.2614   16.1273 C   0  0  0  0  0  0
    1.1478   47.4184   17.0156 C   0  0  0  0  0  0
    1.6599   47.9251   18.2117 C   0  0  0  0  0  0
    1.5033   49.2765   18.5117 C   0  0  0  0  0  0
    1.9901   49.7226   19.7229 O   0  0  0  0  0  0
    5.6703   54.7207   25.8691 C   0  0  0  0  0  0
    6.1182   54.4712   27.3243 C   0  0  0  0  0  0
    4.8551   54.3729   28.2061 C   0  0  0  0  0  0
   -0.7531   52.4978   31.0828 H   0  0  0  0  0  0
   -0.7357   51.0691   29.0681 H   0  0  0  0  0  0
    0.7749   51.5913   27.1999 H   0  0  0  0  0  0
    2.2388   55.0260   29.3665 H   0  0  0  0  0  0
    0.7069   54.4806   31.2257 H   0  0  0  0  0  0
    1.2931   53.0214   23.4646 H   0  0  0  0  0  0
    1.9087   53.5497   21.0910 H   0  0  0  0  0  0
   -0.0645   51.4704   19.8103 H   0  0  0  0  0  0
    0.8575   52.9044   19.3123 H   0  0  0  0  0  0
   -0.2064   50.2688   15.7413 H   0  0  0  0  0  0
    0.0883   47.8676   15.1991 H   0  0  0  0  0  0
    1.2807   46.3745   16.7739 H   0  0  0  0  0  0
    2.1854   47.2835   18.9010 H   0  0  0  0  0  0
    6.3112   54.2061   25.1514 H   0  0  0  0  0  0
    5.7031   55.7858   25.6381 H   0  0  0  0  0  0
    6.8041   55.2415   27.6787 H   0  0  0  0  0  0
    6.6618   53.5250   27.3714 H   0  0  0  0  0  0
    4.6544   55.2968   28.7465 H   0  0  0  0  0  0
    4.9599   53.5781   28.9451 H   0  0  0  0  0  0
  1  6  2  0  0  0
  1  2  1  0  0  0
  1 32  1  0  0  0
  2  3  2  0  0  0
  2 33  1  0  0  0
  3  4  1  0  0  0
  3 34  1  0  0  0
  4  5  2  0  0  0
  4  7  1  0  0  0
  5  6  1  0  0  0
  5 35  1  0  0  0
  6 36  1  0  0  0
  7 11  1  0  0  0
  7  8  1  0  0  0
  8 31  1  0  0  0
  8  9  2  0  0  0
  9 10  1  0  0  0
  9 29  1  0  0  0
 10 11  2  0  0  0
 10 12  1  0  0  0
 12 13  2  0  0  0
 12 14  1  0  0  0
 14 15  1  0  0  0
 14 37  1  0  0  0
 15 16  1  0  0  0
 15 38  1  0  0  0
 16 17  2  0  0  0
 16 18  1  0  0  0
 18 19  1  0  0  0
 18 28  1  0  0  0
 18 20  1  0  0  0
 20 21  1  0  0  0
 20 39  1  0  0  0
 20 40  1  0  0  0
 21 22  1  0  0  0
 22 27  2  0  0  0
 22 23  1  0  0  0
 23 24  2  0  0  0
 23 41  1  0  0  0
 24 25  1  0  0  0
 24 42  1  0  0  0
 25 26  2  0  0  0
 25 43  1  0  0  0
 26 27  1  0  0  0
 26 44  1  0  0  0
 27 28  1  0  0  0
 29 30  1  0  0  0
 29 45  1  0  0  0
 29 46  1  0  0  0
 30 31  1  0  0  0
 30 47  1  0  0  0
 30 48  1  0  0  0
 31 49  1  0  0  0
 31 50  1  0  0  0
M  END
> <i_i_glide_confnum>
50

> <i_i_glide_lignum>
1545

> <i_i_glide_posenum>
108

> <i_i_glide_rotatable_bonds>
6

> <i_m_Source_File_Index>
5627

> <b_m_subgroup_collapsed>
0

> <r_i_docking_score>
-5.89679

> <r_i_glide_ecoul>
-2.02024

> <r_i_glide_eff_state_penalty>
0

> <r_i_glide_einternal>
1.32014

> <r_i_glide_emodel>
-65.2276

> <r_i_glide_energy>
-46.0256

> <r_i_glide_erotb>
0.600501

> <r_i_glide_esite>
0

> <r_i_glide_evdw>
-44.0053

> <r_i_glide_gscore>
-5.89679

> <r_i_glide_hbond>
-0.32

> <r_i_glide_ligand_efficiency>
-0.19656

> <r_i_glide_ligand_efficiency_ln>
-1.33982

> <r_i_glide_ligand_efficiency_sa>
-0.610757

> <r_i_glide_lipo>
-2.30461

> <r_i_glide_metal>
0

> <r_i_glide_rewards>
-1.36938

> <s_i_glide_gridfile>
wee1_glide-grid

> <s_m_Source_File>
wee1_decoys_glide_SP.sdf

> <s_m_Source_Path>
/Users/zhangxujun/Desktop

> <s_m_entry_id>
5902

> <s_m_entry_name>
wee1_decoys_glide_SP.5627

> <s_m_subgroup_title>
wee1_decoys_glide_SP

> <s_m_subgroupid>
wee1_decoys_glide_SP


$$$$
