@<TRIPOS>MOLECULE
ZINC12206295_564
76   80    1
SMALL
USER_CHARGES


@<TRIPOS>ATOM
      1 C1          6.7044   55.2964   24.3571 C.ar      1 UNK         0.0000 
      2 C2          5.8857   55.0554   25.4508 C.ar      1 UNK         0.0000 
      3 C3          4.6506   54.4164   25.2744 C.ar      1 UNK         0.0000 
      4 C4          4.2502   54.0596   23.9782 C.ar      1 UNK         0.0000 
      5 C5          5.0801   54.2803   22.8659 C.ar      1 UNK         0.0000 
      6 C6          6.3199   54.8957   23.0850 C.ar      1 UNK         0.0000 
      7 N7          4.6518   53.9568   21.5790 N.pl3     1 UNK         0.0000 
      8 C8          5.2919   54.5664   20.3960 C.3       1 UNK         0.0000 
      9 C9          4.4304   54.4845   19.1249 C.3       1 UNK         0.0000 
     10 C10         4.0212   53.0455   18.7801 C.3       1 UNK         0.0000 
     11 C11         3.3868   52.4231   20.0389 C.3       1 UNK         0.0000 
     12 C12         4.2728   52.5618   21.2899 C.3       1 UNK         0.0000 
     13 C13         2.4876   51.8372   17.0416 C.3       1 UNK         0.0000 
     14 C14         0.9797   51.9188   16.7237 C.3       1 UNK         0.0000 
     15 H15         0.6809   50.9255   16.3794 H         1 UNK         0.0000 
     16 C16         0.5952   52.8720   15.5829 C.3       1 UNK         0.0000 
     17 C17        -0.9053   52.7182   15.2919 C.3       1 UNK         0.0000 
     18 C18        -1.7812   52.8389   16.5647 C.3       1 UNK         0.0000 
     19 N19        -1.3309   51.9870   17.6907 N.pl3     1 UNK         0.0000 
     20 C20         0.0981   52.2557   17.9537 C.3       1 UNK         0.0000 
     21 C21        -2.2087   51.5141   18.6730 C.ar      1 UNK         0.0000 
     22 N22        -1.6737   51.0198   19.8266 N.ar      1 UNK         0.0000 
     23 C23        -2.5269   50.4555   20.7187 C.ar      1 UNK         0.0000 
     24 C24        -3.8971   50.3586   20.4819 C.ar      1 UNK         0.0000 
     25 C25        -4.3659   50.8901   19.2805 C.ar      1 UNK         0.0000 
     26 N26        -3.5398   51.4711   18.3716 N.ar      1 UNK         0.0000 
     27 N27         3.7613   54.1469   26.3323 N.am      1 UNK         0.0000 
     28 C28         4.0110   54.0995   27.6605 C.2       1 UNK         0.0000 
     29 O29         5.1252   54.2254   28.1639 O.2       1 UNK         0.0000 
     30 C30         2.8243   53.8767   28.6143 C.3       1 UNK         0.0000 
     31 C31         1.4760   53.4445   27.9850 C.3       1 UNK         0.0000 
     32 C32         1.5176   52.0886   27.2514 C.3       1 UNK         0.0000 
     33 C33         0.1536   51.4184   27.4736 C.3       1 UNK         0.0000 
     34 C34        -0.6729   52.3864   28.3133 C.3       1 UNK         0.0000 
     35 C35         0.3584   53.2634   29.0189 C.3       1 UNK         0.0000 
     36 H36         7.6457   55.8053   24.4868 H         1 UNK         0.0000 
     37 H37         6.2212   55.3899   26.4207 H         1 UNK         0.0000 
     38 H38         3.2824   53.6048   23.8285 H         1 UNK         0.0000 
     39 H39         6.9981   55.0940   22.2694 H         1 UNK         0.0000 
     40 H40         5.4828   55.6223   20.5962 H         1 UNK         0.0000 
     41 H41         6.2618   54.0995   20.2259 H         1 UNK         0.0000 
     42 H42         3.5523   55.1144   19.2827 H         1 UNK         0.0000 
     43 H43         4.9320   54.9481   18.2746 H         1 UNK         0.0000 
     44 H44         4.9068   52.4972   18.4515 H         1 UNK         0.0000 
     45 H45         3.1301   51.3776   19.8640 H         1 UNK         0.0000 
     46 H46         2.4260   52.8932   20.2594 H         1 UNK         0.0000 
     47 H47         5.1795   51.9654   21.1854 H         1 UNK         0.0000 
     48 H48         3.7149   52.1360   22.1197 H         1 UNK         0.0000 
     49 H49         3.1161   51.6898   16.1607 H         1 UNK         0.0000 
     50 H50         2.7092   51.0175   17.7281 H         1 UNK         0.0000 
     51 H51         0.8544   53.9019   15.8309 H         1 UNK         0.0000 
     52 H52         1.1736   52.6397   14.6866 H         1 UNK         0.0000 
     53 H53        -1.2127   53.4781   14.5714 H         1 UNK         0.0000 
     54 H54        -1.1125   51.7670   14.7975 H         1 UNK         0.0000 
     55 H55        -1.8454   53.8764   16.8978 H         1 UNK         0.0000 
     56 H56        -2.7896   52.5493   16.2699 H         1 UNK         0.0000 
     57 H57         0.4465   51.5961   18.7486 H         1 UNK         0.0000 
     58 H58         0.2572   53.2695   18.3317 H         1 UNK         0.0000 
     59 H59        -2.0882   50.0650   21.6258 H         1 UNK         0.0000 
     60 H60        -4.5647   49.8976   21.1962 H         1 UNK         0.0000 
     61 H61        -5.4160   50.8509   19.0273 H         1 UNK         0.0000 
     62 H62         2.8185   53.9235   26.0553 H         1 UNK         0.0000 
     63 H63         2.6799   54.8068   29.1670 H         1 UNK         0.0000 
     64 H64         3.1318   53.1308   29.3498 H         1 UNK         0.0000 
     65 H65         1.1130   54.1975   27.2834 H         1 UNK         0.0000 
     66 H66         2.2651   51.4366   27.7100 H         1 UNK         0.0000 
     67 H67         1.7573   52.1905   26.1914 H         1 UNK         0.0000 
     68 H68         0.2806   50.4965   28.0315 H         1 UNK         0.0000 
     69 H69        -0.3447   51.1613   26.5386 H         1 UNK         0.0000 
     70 H70        -1.3300   51.8697   29.0135 H         1 UNK         0.0000 
     71 H71        -1.2953   52.9887   27.6533 H         1 UNK         0.0000 
     72 H72        -0.0358   54.2054   29.3986 H         1 UNK         0.0000 
     73 H73         0.7353   52.7102   29.8826 H         1 UNK         0.0000 
     74 N74         2.9545   53.1582   17.6808 N.4       1 UNK         0.0000 
     75 H75         2.1580   53.6064   18.1109 H         1 UNK         0.0000 
     76 H76         3.2665   53.8046   16.9691 H         1 UNK         0.0000 
@<TRIPOS>BOND
     1    1    6 ar   
     2    1    2 ar   
     3    1   36 1    
     4    2    3 ar   
     5    2   37 1    
     6    3    4 ar   
     7    3   27 1    
     8    4    5 ar   
     9    4   38 1    
    10    5    6 ar   
    11    5    7 1    
    12    6   39 1    
    13    7   12 1    
    14    7    8 1    
    15    8    9 1    
    16    8   40 1    
    17    8   41 1    
    18    9   10 1    
    19    9   42 1    
    20    9   43 1    
    21   10   11 1    
    22   10   44 1    
    23   10   74 1    
    24   11   12 1    
    25   11   45 1    
    26   11   46 1    
    27   12   47 1    
    28   12   48 1    
    29   13   14 1    
    30   13   49 1    
    31   13   50 1    
    32   13   74 1    
    33   14   15 1    
    34   14   20 1    
    35   14   16 1    
    36   16   17 1    
    37   16   51 1    
    38   16   52 1    
    39   17   18 1    
    40   17   53 1    
    41   17   54 1    
    42   18   19 1    
    43   18   55 1    
    44   18   56 1    
    45   19   20 1    
    46   19   21 1    
    47   20   57 1    
    48   20   58 1    
    49   21   26 ar   
    50   21   22 ar   
    51   22   23 ar   
    52   23   24 ar   
    53   23   59 1    
    54   24   25 ar   
    55   24   60 1    
    56   25   26 ar   
    57   25   61 1    
    58   27   28 am   BACKBONE|DICT|INTERRES
    59   27   62 1    
    60   28   29 2    
    61   28   30 1    
    62   30   31 1    
    63   30   63 1    
    64   30   64 1    
    65   31   35 1    
    66   31   32 1    
    67   31   65 1    
    68   32   33 1    
    69   32   66 1    
    70   32   67 1    
    71   33   34 1    
    72   33   68 1    
    73   33   69 1    
    74   34   35 1    
    75   34   70 1    
    76   34   71 1    
    77   35   72 1    
    78   35   73 1    
    79   74   75 1    
    80   74   76 1    
@<TRIPOS>SUBSTRUCTURE
     1 UNK         1 GROUP             0       ****    0 ROOT    
