@<TRIPOS>MOLECULE
ZINC00716531_4110
50   53    1
SMALL
USER_CHARGES


@<TRIPOS>ATOM
      1 C1          3.8460   54.0177   22.1997 C.ar      1 UNK         0.0000 
      2 C2          3.5172   53.8203   23.5467 C.ar      1 UNK         0.0000 
      3 C3          4.4883   54.0953   24.5197 C.ar      1 UNK         0.0000 
      4 C4          5.7550   54.5791   24.1188 C.ar      1 UNK         0.0000 
      5 C5          6.0901   54.7628   22.7738 C.ar      1 UNK         0.0000 
      6 C6          5.1047   54.4972   21.8113 C.ar      1 UNK         0.0000 
      7 N7          5.3159   54.7418   20.4410 N.am      1 UNK         0.0000 
      8 C8          6.0595   55.7321   19.8926 C.2       1 UNK         0.0000 
      9 O9          6.7059   56.5660   20.5334 O.2       1 UNK         0.0000 
     10 C10         5.9682   55.8521   18.3923 C.ar      1 UNK         0.0000 
     11 C11         5.6749   57.1095   17.8410 C.ar      1 UNK         0.0000 
     12 C12         5.5953   57.2870   16.4610 C.ar      1 UNK         0.0000 
     13 C13         5.8249   56.2106   15.6081 C.ar      1 UNK         0.0000 
     14 C14         6.1451   54.9625   16.1374 C.ar      1 UNK         0.0000 
     15 C15         6.2325   54.7757   17.5193 C.ar      1 UNK         0.0000 
     16 Cl16        6.7020   53.2058   18.0821 Cl        1 UNK         0.0000 
     17 Cl17        5.7336   56.4264   13.8979 Cl        1 UNK         0.0000 
     18 S18         6.7044   54.8960   25.5418 S.3       1 UNK         0.0000 
     19 C19         5.4671   54.1403   26.4936 C.2       1 UNK         0.0000 
     20 N20         4.3545   53.8730   25.8597 N.2       1 UNK         0.0000 
     21 S21         5.8690   53.7496   28.1636 S.3       1 UNK         0.0000 
     22 C22         4.6124   52.5033   28.6227 C.3       1 UNK         0.0000 
     23 C23         3.5521   53.0025   29.5952 C.2       1 UNK         0.0000 
     24 O24         3.6362   54.1227   30.0895 O.2       1 UNK         0.0000 
     25 N25         2.5077   52.1819   29.8035 N.am      1 UNK         0.0000 
     26 C26         1.2702   52.5845   30.4846 C.3       1 UNK         0.0000 
     27 C27         0.2931   53.3987   29.5998 C.3       1 UNK         0.0000 
     28 H28        -0.6563   53.5629   30.1089 H         1 UNK         0.0000 
     29 C29         0.0913   52.9068   28.1575 C.3       1 UNK         0.0000 
     30 C30         1.1445   53.6180   27.3459 C.3       1 UNK         0.0000 
     31 C31         1.2763   54.9550   28.0825 C.3       1 UNK         0.0000 
     32 O32         0.8618   54.6988   29.4243 O.3       1 UNK         0.0000 
     33 H33         3.0939   53.8200   21.4463 H         1 UNK         0.0000 
     34 H34         2.5461   53.4443   23.8295 H         1 UNK         0.0000 
     35 H35         7.0715   55.1272   22.5028 H         1 UNK         0.0000 
     36 H36         4.7596   54.1945   19.8005 H         1 UNK         0.0000 
     37 H37         5.5058   57.9658   18.4778 H         1 UNK         0.0000 
     38 H38         5.3594   58.2625   16.0564 H         1 UNK         0.0000 
     39 H39         6.3423   54.1340   15.4727 H         1 UNK         0.0000 
     40 H40         5.1047   51.6794   29.1260 H         1 UNK         0.0000 
     41 H41         4.1327   52.0975   27.7349 H         1 UNK         0.0000 
     42 H42         2.4705   51.3162   29.2852 H         1 UNK         0.0000 
     43 H43         1.5023   53.1470   31.3913 H         1 UNK         0.0000 
     44 H44         0.7499   51.6968   30.8253 H         1 UNK         0.0000 
     45 H45        -0.8929   53.2062   27.8051 H         1 UNK         0.0000 
     46 H46         0.1100   51.8184   28.0729 H         1 UNK         0.0000 
     47 H47         0.8941   53.6957   26.2910 H         1 UNK         0.0000 
     48 H48         2.0781   53.0669   27.3572 H         1 UNK         0.0000 
     49 H49         0.5948   55.6961   27.6818 H         1 UNK         0.0000 
     50 H50         2.3003   55.3264   28.0375 H         1 UNK         0.0000 
@<TRIPOS>BOND
     1    1    6 ar   
     2    1    2 ar   
     3    1   33 1    
     4    2    3 ar   
     5    2   34 1    
     6    3   20 1    
     7    3    4 ar   
     8    4    5 ar   
     9    4   18 1    
    10    5    6 ar   
    11    5   35 1    
    12    6    7 1    
    13    7    8 am   BACKBONE|DICT|INTERRES
    14    7   36 1    
    15    8    9 2    
    16    8   10 1    
    17   10   15 ar   
    18   10   11 ar   
    19   11   12 ar   
    20   11   37 1    
    21   12   13 ar   
    22   12   38 1    
    23   13   14 ar   
    24   13   17 1    
    25   14   15 ar   
    26   14   39 1    
    27   15   16 1    
    28   18   19 1    
    29   19   20 2    
    30   19   21 1    
    31   21   22 1    
    32   22   23 1    
    33   22   40 1    
    34   22   41 1    
    35   23   24 2    
    36   23   25 am   BACKBONE|DICT|INTERRES
    37   25   26 1    
    38   25   42 1    
    39   26   27 1    
    40   26   43 1    
    41   26   44 1    
    42   27   28 1    
    43   27   32 1    
    44   27   29 1    
    45   29   30 1    
    46   29   45 1    
    47   29   46 1    
    48   30   31 1    
    49   30   47 1    
    50   30   48 1    
    51   31   32 1    
    52   31   49 1    
    53   31   50 1    
@<TRIPOS>SUBSTRUCTURE
     1 UNK         1 GROUP             0       ****    0 ROOT    
