@<TRIPOS>MOLECULE
ZINC04063481_1368
45   47    1
SMALL
USER_CHARGES


@<TRIPOS>ATOM
      1 C1          5.4577   54.8593   25.7957 C.3       1 UNK         0.0000 
      2 C2          3.9509   54.6410   25.6008 C.3       1 UNK         0.0000 
      3 H3          3.5045   55.6225   25.7422 H         1 UNK         0.0000 
      4 C4          3.3592   53.6833   26.6619 C.3       1 UNK         0.0000 
      5 C5          2.0044   53.0489   26.2936 C.3       1 UNK         0.0000 
      6 O6          2.0455   52.4984   24.9908 O.3       1 UNK         0.0000 
      7 P7          2.3197   53.5368   23.7691 P.3       1 UNK         0.0000 
      8 O8          1.1980   54.4965   23.5897 O.2       1 UNK         0.0000 
      9 O9          3.6928   54.2778   24.2505 O.3       1 UNK         0.0000 
     10 C10         2.7379   52.4689   22.2832 C.3       1 UNK         0.0000 
     11 H11         3.5267   51.7537   22.4816 H         1 UNK         0.0000 
     12 C12         1.5230   51.6307   21.8881 C.ar      1 UNK         0.0000 
     13 C13         0.5806   52.0794   20.9569 C.ar      1 UNK         0.0000 
     14 C14        -0.5311   51.2987   20.6544 C.ar      1 UNK         0.0000 
     15 C15        -0.7265   50.0613   21.2840 C.ar      1 UNK         0.0000 
     16 C16         0.2199   49.6198   22.2189 C.ar      1 UNK         0.0000 
     17 C17         1.3342   50.3973   22.5168 C.ar      1 UNK         0.0000 
     18 N18        -1.9174   49.2350   20.9695 N.pl3     1 UNK         0.0000 
     19 O19        -2.7835   49.7111   20.2400 O.co2     1 UNK         0.0000 
     20 O20        -1.9939   48.1079   21.4523 O.co2     1 UNK         0.0000 
     21 N21         3.2455   53.2966   21.1831 N.pl3     1 UNK         0.0000 
     22 C22         4.5165   53.9011   21.2040 C.ar      1 UNK         0.0000 
     23 C23         4.8317   54.7609   20.1514 C.ar      1 UNK         0.0000 
     24 C24         6.0150   55.4931   20.1740 C.ar      1 UNK         0.0000 
     25 C25         6.8779   55.3695   21.2584 C.ar      1 UNK         0.0000 
     26 C26         6.5920   54.4967   22.3038 C.ar      1 UNK         0.0000 
     27 C27         5.4447   53.7138   22.2380 C.ar      1 UNK         0.0000 
     28 O28         8.0322   56.0949   21.2815 O.3       1 UNK         0.0000 
     29 H29         5.6907   55.1578   26.8183 H         1 UNK         0.0000 
     30 H30         5.8260   55.6406   25.1301 H         1 UNK         0.0000 
     31 H31         6.0156   53.9482   25.5765 H         1 UNK         0.0000 
     32 H32         4.0757   52.8835   26.8402 H         1 UNK         0.0000 
     33 H33         3.2655   54.2050   27.6151 H         1 UNK         0.0000 
     34 H34         1.7535   52.2568   27.0005 H         1 UNK         0.0000 
     35 H35         1.2001   53.7813   26.3583 H         1 UNK         0.0000 
     36 H36         0.7038   53.0328   20.4670 H         1 UNK         0.0000 
     37 H37        -1.2407   51.6636   19.9258 H         1 UNK         0.0000 
     38 H38         0.0947   48.6747   22.7285 H         1 UNK         0.0000 
     39 H39         2.0452   50.0408   23.2496 H         1 UNK         0.0000 
     40 H40         2.5481   53.7990   20.6439 H         1 UNK         0.0000 
     41 H41         4.1417   54.8951   19.3299 H         1 UNK         0.0000 
     42 H42         6.2508   56.1670   19.3633 H         1 UNK         0.0000 
     43 H43         7.2762   54.3847   23.1323 H         1 UNK         0.0000 
     44 H44         5.2639   53.0102   23.0345 H         1 UNK         0.0000 
     45 H45         8.6095   55.8583   22.0156 H         1 UNK         0.0000 
@<TRIPOS>BOND
     1    1    2 1    
     2    1   29 1    
     3    1   30 1    
     4    1   31 1    
     5    2    3 1    
     6    2    9 1    
     7    2    4 1    
     8    4    5 1    
     9    4   32 1    
    10    4   33 1    
    11    5    6 1    
    12    5   34 1    
    13    5   35 1    
    14    6    7 1    
    15    7    8 2    
    16    7    9 1    
    17    7   10 1    
    18   10   11 1    
    19   10   12 1    
    20   10   21 1    
    21   12   17 ar   
    22   12   13 ar   
    23   13   14 ar   
    24   13   36 1    
    25   14   15 ar   
    26   14   37 1    
    27   15   16 ar   
    28   15   18 1    
    29   16   17 ar   
    30   16   38 1    
    31   17   39 1    
    32   18   19 2    
    33   18   20 1    
    34   21   22 1    
    35   21   40 1    
    36   22   27 ar   
    37   22   23 ar   
    38   23   24 ar   
    39   23   41 1    
    40   24   25 ar   
    41   24   42 1    
    42   25   26 ar   
    43   25   28 1    
    44   26   27 ar   
    45   26   43 1    
    46   27   44 1    
    47   28   45 1    
@<TRIPOS>SUBSTRUCTURE
     1 UNK         1 GROUP             0       ****    0 ROOT    
