@<TRIPOS>MOLECULE
ZINC03220312_669
65   69    1
SMALL
USER_CHARGES


@<TRIPOS>ATOM
      1 C1         -2.9662   50.0581   24.2713 C.3       1 UNK         0.0000 
      2 C2         -1.6259   50.5225   23.6613 C.3       1 UNK         0.0000 
      3 H3         -0.8345   50.0844   24.2686 H         1 UNK         0.0000 
      4 C4         -1.3736   49.9471   22.2635 C.2       1 UNK         0.0000 
      5 O5         -2.3163   49.7088   21.5062 O.2       1 UNK         0.0000 
      6 N6         -0.0745   49.7678   21.9472 N.am      1 UNK         0.0000 
      7 C7          0.4523   49.1996   20.7874 C.ar      1 UNK         0.0000 
      8 C8         -0.2083   48.2044   20.0530 C.ar      1 UNK         0.0000 
      9 C9          0.3846   47.6726   18.9148 C.ar      1 UNK         0.0000 
     10 C10         1.6464   48.1301   18.5109 C.ar      1 UNK         0.0000 
     11 C11         2.3040   49.1109   19.2558 C.ar      1 UNK         0.0000 
     12 C12         1.7145   49.6403   20.3964 C.ar      1 UNK         0.0000 
     13 N13         2.3043   47.6964   17.3521 N.am      1 UNK         0.0000 
     14 C14         2.1010   46.5828   16.6202 C.2       1 UNK         0.0000 
     15 O15         1.2896   45.6954   16.8794 O.2       1 UNK         0.0000 
     16 C16         2.9906   46.4352   15.3965 C.3       1 UNK         0.0000 
     17 S17        -1.4973   52.3491   23.6228 S.3       1 UNK         0.0000 
     18 C18         0.1870   52.6501   24.2336 C.ar      1 UNK         0.0000 
     19 N19         0.9934   53.1045   23.3355 N.2       1 UNK         0.0000 
     20 C20         2.2430   53.4570   23.7278 C.ar      1 UNK         0.0000 
     21 C21         2.6942   53.4597   25.0384 C.ar      1 UNK         0.0000 
     22 C22         4.0264   53.9128   25.1573 C.2       1 UNK         0.0000 
     23 C23         4.6130   54.1257   23.8994 C.2       1 UNK         0.0000 
     24 S24         3.4747   53.9137   22.6007 S.3       1 UNK         0.0000 
     25 C25         6.0592   54.5560   23.6732 C.3       1 UNK         0.0000 
     26 C26         6.8672   54.3526   24.9720 C.3       1 UNK         0.0000 
     27 C27         6.1173   54.8701   26.2095 C.3       1 UNK         0.0000 
     28 C28         4.8024   54.1012   26.4630 C.3       1 UNK         0.0000 
     29 C29         1.7804   53.0270   26.0951 C.ar      1 UNK         0.0000 
     30 O30         2.0484   53.0833   27.2948 O.2       1 UNK         0.0000 
     31 N31         0.5926   52.4924   25.5709 N.pl3     1 UNK         0.0000 
     32 C32        -0.2814   51.7029   26.5045 C.3       1 UNK         0.0000 
     33 C33         0.4022   50.6963   27.4456 C.3       1 UNK         0.0000 
     34 C34         0.1474   51.2071   28.8784 C.3       1 UNK         0.0000 
     35 C35        -0.5769   52.5481   28.7681 C.3       1 UNK         0.0000 
     36 C36        -1.2414   52.4974   27.3919 C.3       1 UNK         0.0000 
     37 H37        -3.0482   48.9697   24.2862 H         1 UNK         0.0000 
     38 H38        -3.0749   50.4036   25.2992 H         1 UNK         0.0000 
     39 H39        -3.8176   50.4464   23.7105 H         1 UNK         0.0000 
     40 H40         0.6086   50.1753   22.5682 H         1 UNK         0.0000 
     41 H41        -1.1770   47.8346   20.3518 H         1 UNK         0.0000 
     42 H42        -0.1588   46.9288   18.3509 H         1 UNK         0.0000 
     43 H43         3.2717   49.4765   18.9399 H         1 UNK         0.0000 
     44 H44         2.2395   50.4028   20.9553 H         1 UNK         0.0000 
     45 H45         3.0644   48.3155   17.0348 H         1 UNK         0.0000 
     46 H46         3.9056   45.9107   15.6815 H         1 UNK         0.0000 
     47 H47         3.2642   47.4063   14.9780 H         1 UNK         0.0000 
     48 H48         2.4837   45.8567   14.6224 H         1 UNK         0.0000 
     49 H49         6.5181   53.9923   22.8608 H         1 UNK         0.0000 
     50 H50         6.1134   55.6083   23.3957 H         1 UNK         0.0000 
     51 H51         7.1002   53.2967   25.1066 H         1 UNK         0.0000 
     52 H52         7.8235   54.8676   24.8818 H         1 UNK         0.0000 
     53 H53         6.7547   54.8084   27.0934 H         1 UNK         0.0000 
     54 H54         5.8985   55.9258   26.0673 H         1 UNK         0.0000 
     55 H55         4.2089   54.6399   27.2033 H         1 UNK         0.0000 
     56 H56         5.0296   53.1248   26.8966 H         1 UNK         0.0000 
     57 H57        -0.9720   51.1168   25.9233 H         1 UNK         0.0000 
     58 H58        -0.0867   49.7291   27.2867 H         1 UNK         0.0000 
     59 H59         1.4641   50.5351   27.2607 H         1 UNK         0.0000 
     60 H60        -0.4964   50.5052   29.4056 H         1 UNK         0.0000 
     61 H61         1.0724   51.2963   29.4493 H         1 UNK         0.0000 
     62 H62        -1.2938   52.6632   29.5821 H         1 UNK         0.0000 
     63 H63         0.1150   53.3874   28.8366 H         1 UNK         0.0000 
     64 H64        -1.5484   53.4489   26.9670 H         1 UNK         0.0000 
     65 H65        -2.1650   51.9256   27.4995 H         1 UNK         0.0000 
@<TRIPOS>BOND
     1    1    2 1    
     2    1   37 1    
     3    1   38 1    
     4    1   39 1    
     5    2    3 1    
     6    2    4 1    
     7    2   17 1    
     8    4    5 2    
     9    4    6 am   BACKBONE|DICT|INTERRES
    10    6    7 1    
    11    6   40 1    
    12    7   12 ar   
    13    7    8 ar   
    14    8    9 ar   
    15    8   41 1    
    16    9   10 ar   
    17    9   42 1    
    18   10   11 ar   
    19   10   13 1    
    20   11   12 ar   
    21   11   43 1    
    22   12   44 1    
    23   13   14 am   BACKBONE|DICT|INTERRES
    24   13   45 1    
    25   14   15 2    
    26   14   16 1    
    27   16   46 1    
    28   16   47 1    
    29   16   48 1    
    30   17   18 1    
    31   18   31 ar   
    32   18   19 ar   
    33   19   20 ar   
    34   20   24 1    
    35   20   21 ar   
    36   21   22 1    
    37   21   29 ar   
    38   22   28 1    
    39   22   23 2    
    40   23   24 1    
    41   23   25 1    
    42   25   26 1    
    43   25   49 1    
    44   25   50 1    
    45   26   27 1    
    46   26   51 1    
    47   26   52 1    
    48   27   28 1    
    49   27   53 1    
    50   27   54 1    
    51   28   55 1    
    52   28   56 1    
    53   29   30 2    
    54   29   31 ar   
    55   31   32 1    
    56   32   36 1    
    57   32   33 1    
    58   32   57 1    
    59   33   34 1    
    60   33   58 1    
    61   33   59 1    
    62   34   35 1    
    63   34   60 1    
    64   34   61 1    
    65   35   36 1    
    66   35   62 1    
    67   35   63 1    
    68   36   64 1    
    69   36   65 1    
@<TRIPOS>SUBSTRUCTURE
     1 UNK         1 GROUP             0       ****    0 ROOT    
