@<TRIPOS>MOLECULE
ZINC41183667_3778
36   39    1
SMALL
USER_CHARGES


@<TRIPOS>ATOM
      1 C1          3.4458   53.9619   25.7889 C.ar      1 UNK         0.0000 
      2 C2          4.7020   54.3523   26.2787 C.ar      1 UNK         0.0000 
      3 C3          5.7280   54.6270   25.3608 C.ar      1 UNK         0.0000 
      4 C4          5.5222   54.4967   23.9863 C.ar      1 UNK         0.0000 
      5 C5          4.2704   54.0964   23.5126 C.ar      1 UNK         0.0000 
      6 C6          3.2286   53.8433   24.4194 C.ar      1 UNK         0.0000 
      7 O7          1.9873   53.3974   24.0132 O.3       1 UNK         0.0000 
      8 C8          1.7174   53.6183   22.6266 C.3       1 UNK         0.0000 
      9 C9          2.9406   53.2169   21.7686 C.3       1 UNK         0.0000 
     10 O10         4.0853   53.9888   22.1463 O.3       1 UNK         0.0000 
     11 Cl11        6.8173   54.8384   22.8945 Cl        1 UNK         0.0000 
     12 C12         4.9774   54.4971   27.7822 C.3       1 UNK         0.0000 
     13 H13         5.3119   55.5248   27.9048 H         1 UNK         0.0000 
     14 C14         3.7758   54.2712   28.7068 C.2       1 UNK         0.0000 
     15 N15         3.5558   53.1505   29.3687 N.2       1 UNK         0.0000 
     16 C16         2.4135   53.1953   30.0223 C.2       1 UNK         0.0000 
     17 C17         1.6703   54.3359   29.9197 C.2       1 UNK         0.0000 
     18 S18         2.4899   55.4526   28.8940 S.3       1 UNK         0.0000 
     19 C19         0.3848   54.3008   30.6932 C.3       1 UNK         0.0000 
     20 C20         0.4054   52.8737   31.2788 C.3       1 UNK         0.0000 
     21 C21         1.7169   52.1691   30.8607 C.3       1 UNK         0.0000 
     22 N22         6.1402   53.7084   28.1626 N.3       1 UNK         0.0000 
     23 H23         2.6310   53.7263   26.4565 H         1 UNK         0.0000 
     24 H24         6.6996   54.9285   25.7221 H         1 UNK         0.0000 
     25 H25         0.8335   53.0539   22.3286 H         1 UNK         0.0000 
     26 H26         1.5049   54.6783   22.4818 H         1 UNK         0.0000 
     27 H27         3.1560   52.1588   21.9287 H         1 UNK         0.0000 
     28 H28         2.7353   53.3499   20.7066 H         1 UNK         0.0000 
     29 H29        -0.4929   54.4488   30.0646 H         1 UNK         0.0000 
     30 H30         0.3535   55.0512   31.4833 H         1 UNK         0.0000 
     31 H31        -0.4559   52.3062   30.9190 H         1 UNK         0.0000 
     32 H32         0.3080   52.9007   32.3661 H         1 UNK         0.0000 
     33 H33         2.2955   51.8507   31.7292 H         1 UNK         0.0000 
     34 H34         1.5044   51.2968   30.2494 H         1 UNK         0.0000 
     35 H35         6.6165   54.1509   28.9391 H         1 UNK         0.0000 
     36 H36         5.8493   52.7882   28.4611 H         1 UNK         0.0000 
@<TRIPOS>BOND
     1    1    6 ar   
     2    1    2 ar   
     3    1   23 1    
     4    2    3 ar   
     5    2   12 1    
     6    3    4 ar   
     7    3   24 1    
     8    4    5 ar   
     9    4   11 1    
    10    5   10 1    
    11    5    6 ar   
    12    6    7 1    
    13    7    8 1    
    14    8    9 1    
    15    8   25 1    
    16    8   26 1    
    17    9   10 1    
    18    9   27 1    
    19    9   28 1    
    20   12   13 1    
    21   12   14 1    
    22   12   22 1    
    23   14   18 1    
    24   14   15 2    
    25   15   16 1    
    26   16   21 1    
    27   16   17 2    
    28   17   18 1    
    29   17   19 1    
    30   19   20 1    
    31   19   29 1    
    32   19   30 1    
    33   20   21 1    
    34   20   31 1    
    35   20   32 1    
    36   21   33 1    
    37   21   34 1    
    38   22   35 1    
    39   22   36 1    
@<TRIPOS>SUBSTRUCTURE
     1 UNK         1 GROUP             0       ****    0 ROOT    
