@<TRIPOS>MOLECULE
ZINC21157939_2127
46   49    1
SMALL
USER_CHARGES


@<TRIPOS>ATOM
      1 C1          2.6697   50.0451   18.9218 C.3       1 UNK         0.0000 
      2 O2          2.1617   50.5648   20.1428 O.3       1 UNK         0.0000 
      3 C3          1.8439   49.7402   21.1631 C.2       1 UNK         0.0000 
      4 O4          1.9045   48.5075   21.1087 O.2       1 UNK         0.0000 
      5 C5          1.3553   50.4889   22.3350 C.2       1 UNK         0.0000 
      6 C6          0.5386   49.9092   23.3411 C.2       1 UNK         0.0000 
      7 C7          0.1204   50.7802   24.3232 C.2       1 UNK         0.0000 
      8 S8          0.6776   52.3811   24.0809 S.3       1 UNK         0.0000 
      9 C9          1.5458   51.8636   22.6643 C.2       1 UNK         0.0000 
     10 N10         2.2634   52.8971   22.0815 N.am      1 UNK         0.0000 
     11 C11         3.5550   52.8652   21.6961 C.2       1 UNK         0.0000 
     12 O12         4.2651   51.8595   21.6812 O.2       1 UNK         0.0000 
     13 C13         4.1327   54.2379   21.3187 C.3       1 UNK         0.0000 
     14 S14         5.9073   54.4971   21.6856 S.3       1 UNK         0.0000 
     15 C15         5.9302   54.4970   23.4541 C.ar      1 UNK         0.0000 
     16 N16         4.9016   54.3175   24.2403 N.2       1 UNK         0.0000 
     17 H17         7.9829   54.8825   23.9060 H         1 UNK         0.0000 
     18 C18         5.4105   54.3853   25.4657 C.ar      1 UNK         0.0000 
     19 N19         6.7048   54.6445   25.5256 N.2       1 UNK         0.0000 
     20 N20         7.0346   54.7032   24.2334 N.pl3     1 UNK         0.0000 
     21 C21         4.5640   54.1153   26.6810 C.ar      1 UNK         0.0000 
     22 C22         5.0827   54.2315   27.9777 C.ar      1 UNK         0.0000 
     23 C23         4.2972   53.9019   29.0816 C.ar      1 UNK         0.0000 
     24 C24         2.9955   53.4414   28.8961 C.ar      1 UNK         0.0000 
     25 C25         2.4563   53.3535   27.6181 C.ar      1 UNK         0.0000 
     26 C26         3.2354   53.6970   26.5192 C.ar      1 UNK         0.0000 
     27 Br27        1.9470   52.8963   30.3883 Br        1 UNK         0.0000 
     28 C28        -0.7635   50.1442   25.3599 C.3       1 UNK         0.0000 
     29 C29        -1.1317   48.8266   24.6665 C.3       1 UNK         0.0000 
     30 C30        -0.0324   48.5363   23.6315 C.3       1 UNK         0.0000 
     31 H31         3.0302   50.8584   18.2911 H         1 UNK         0.0000 
     32 H32         3.5038   49.3648   19.0998 H         1 UNK         0.0000 
     33 H33         1.8967   49.5033   18.3754 H         1 UNK         0.0000 
     34 H34         1.8987   53.8219   22.2492 H         1 UNK         0.0000 
     35 H35         3.9902   54.3677   20.2458 H         1 UNK         0.0000 
     36 H36         3.5698   55.0333   21.8058 H         1 UNK         0.0000 
     37 H37         6.0998   54.5616   28.1358 H         1 UNK         0.0000 
     38 H38         4.7013   53.9863   30.0778 H         1 UNK         0.0000 
     39 H39         1.4457   52.9994   27.4775 H         1 UNK         0.0000 
     40 H40         2.8089   53.5993   25.5337 H         1 UNK         0.0000 
     41 H41        -1.6602   50.7239   25.5818 H         1 UNK         0.0000 
     42 H42        -0.2402   49.9714   26.3024 H         1 UNK         0.0000 
     43 H43        -2.0902   48.9398   24.1557 H         1 UNK         0.0000 
     44 H44        -1.2514   48.0124   25.3851 H         1 UNK         0.0000 
     45 H45         0.7044   47.8723   24.0804 H         1 UNK         0.0000 
     46 H46        -0.4446   48.0451   22.7499 H         1 UNK         0.0000 
@<TRIPOS>BOND
     1    1    2 1    
     2    1   31 1    
     3    1   32 1    
     4    1   33 1    
     5    2    3 1    
     6    3    4 2    
     7    3    5 1    
     8    5    9 2    
     9    5    6 1    
    10    6   30 1    
    11    6    7 2    
    12    7    8 1    
    13    7   28 1    
    14    8    9 1    
    15    9   10 am   BACKBONE|DICT|INTERRES
    16   10   11 am   BACKBONE|DICT|INTERRES
    17   10   34 1    
    18   11   12 2    
    19   11   13 1    
    20   13   35 1    
    21   13   36 1    
    22   13   14 1    
    23   14   15 1    
    24   15   16 ar   
    25   15   20 ar   
    26   16   18 ar   
    27   17   20 1    
    28   18   21 1    
    29   18   19 ar   
    30   19   20 ar   
    31   21   26 ar   
    32   21   22 ar   
    33   22   23 ar   
    34   22   37 1    
    35   23   24 ar   
    36   23   38 1    
    37   24   25 ar   
    38   24   27 1    
    39   25   26 ar   
    40   25   39 1    
    41   26   40 1    
    42   28   29 1    
    43   28   41 1    
    44   28   42 1    
    45   29   30 1    
    46   29   43 1    
    47   29   44 1    
    48   30   45 1    
    49   30   46 1    
@<TRIPOS>SUBSTRUCTURE
     1 UNK         1 GROUP             0       ****    0 ROOT    
