@<TRIPOS>MOLECULE
ZINC13432915_1946
56   59    1
SMALL
USER_CHARGES


@<TRIPOS>ATOM
      1 C1          4.6630   53.8756   18.8101 C.3       1 UNK         0.0000 
      2 C2          5.5041   54.3486   19.9923 C.ar      1 UNK         0.0000 
      3 C3          6.6885   55.0367   19.7245 C.ar      1 UNK         0.0000 
      4 C4          7.4792   55.5095   20.7645 C.ar      1 UNK         0.0000 
      5 C5          7.0900   55.2968   22.0832 C.ar      1 UNK         0.0000 
      6 C6          5.9031   54.6170   22.4083 C.ar      1 UNK         0.0000 
      7 C7          5.1073   54.1297   21.3307 C.ar      1 UNK         0.0000 
      8 N8          3.8669   53.5176   21.5649 N.am      1 UNK         0.0000 
      9 C9          3.5981   52.1952   21.5411 C.2       1 UNK         0.0000 
     10 O10         4.4461   51.3400   21.2800 O.2       1 UNK         0.0000 
     11 C11         2.1435   51.7648   21.8805 C.3       1 UNK         0.0000 
     12 C12         2.1192   50.4840   22.7828 C.3       1 UNK         0.0000 
     13 C13         0.7122   50.1659   23.3418 C.3       1 UNK         0.0000 
     14 N14         0.0944   51.3934   23.8889 N.pl3     1 UNK         0.0000 
     15 C15        -0.0908   52.4836   22.9224 C.3       1 UNK         0.0000 
     16 C16         1.2864   52.9463   22.4415 C.3       1 UNK         0.0000 
     17 S17        -0.8362   51.3709   25.3942 S.o2      1 UNK         0.0000 
     18 O18        -1.8188   52.4607   25.3569 O.2       1 UNK         0.0000 
     19 O19        -1.2468   49.9900   25.6677 O.2       1 UNK         0.0000 
     20 C20         0.3257   51.8344   26.6807 C.ar      1 UNK         0.0000 
     21 C21         0.1587   51.3027   27.9609 C.ar      1 UNK         0.0000 
     22 C22         1.0034   51.6971   28.9984 C.ar      1 UNK         0.0000 
     23 C23         2.0444   52.5910   28.7521 C.ar      1 UNK         0.0000 
     24 C24         2.2200   53.1237   27.4734 C.ar      1 UNK         0.0000 
     25 C25         1.3494   52.7631   26.4415 C.ar      1 UNK         0.0000 
     26 C26         3.3571   54.1202   27.4643 C.3       1 UNK         0.0000 
     27 C27         4.0058   53.9710   28.8424 C.3       1 UNK         0.0000 
     28 C28         3.0250   53.1998   29.7283 C.3       1 UNK         0.0000 
     29 C29         5.5267   54.4968   23.8699 C.2       1 UNK         0.0000 
     30 O30         6.4049   54.7536   24.7267 O.co2     1 UNK         0.0000 
     31 H31         4.5790   52.7875   18.8223 H         1 UNK         0.0000 
     32 H32         3.6534   54.2863   18.8716 H         1 UNK         0.0000 
     33 H33         5.0891   54.1694   17.8494 H         1 UNK         0.0000 
     34 H34         7.0020   55.2085   18.7056 H         1 UNK         0.0000 
     35 H35         8.3965   56.0401   20.5481 H         1 UNK         0.0000 
     36 H36         7.7178   55.6990   22.8641 H         1 UNK         0.0000 
     37 H37         3.1448   54.1257   21.9224 H         1 UNK         0.0000 
     38 H38         1.7367   51.4321   20.9237 H         1 UNK         0.0000 
     39 H39         2.4777   49.6017   22.2491 H         1 UNK         0.0000 
     40 H40         2.7043   50.6421   23.6821 H         1 UNK         0.0000 
     41 H41         0.0752   49.8000   22.5366 H         1 UNK         0.0000 
     42 H42         0.7470   49.3952   24.1120 H         1 UNK         0.0000 
     43 H43        -0.6864   52.1100   22.0876 H         1 UNK         0.0000 
     44 H44        -0.6471   53.2977   23.3859 H         1 UNK         0.0000 
     45 H45         1.7670   53.3979   23.3117 H         1 UNK         0.0000 
     46 H46         1.1139   53.6968   21.6815 H         1 UNK         0.0000 
     47 H47        -0.6373   50.5929   28.1533 H         1 UNK         0.0000 
     48 H48         0.8373   51.2982   29.9857 H         1 UNK         0.0000 
     49 H49         1.4678   53.2052   25.4643 H         1 UNK         0.0000 
     50 H50         4.0894   53.9201   26.6842 H         1 UNK         0.0000 
     51 H51         2.9882   55.1372   27.3318 H         1 UNK         0.0000 
     52 H52         4.2810   54.9347   29.2729 H         1 UNK         0.0000 
     53 H53         4.9302   53.3988   28.7462 H         1 UNK         0.0000 
     54 H54         2.5049   53.8861   30.3977 H         1 UNK         0.0000 
     55 H55         3.5473   52.4590   30.3355 H         1 UNK         0.0000 
     56 O56         4.3482   54.1979   24.1703 O.co2     1 UNK         0.0000 
@<TRIPOS>BOND
     1    1    2 1    
     2    1   31 1    
     3    1   32 1    
     4    1   33 1    
     5    2    7 ar   
     6    2    3 ar   
     7    3    4 ar   
     8    3   34 1    
     9    4    5 ar   
    10    4   35 1    
    11    5    6 ar   
    12    5   36 1    
    13    6    7 ar   
    14    6   29 1    
    15    7    8 1    
    16    8    9 am   BACKBONE|DICT|INTERRES
    17    8   37 1    
    18    9   10 2    
    19    9   11 1    
    20   11   16 1    
    21   11   12 1    
    22   11   38 1    
    23   12   13 1    
    24   12   39 1    
    25   12   40 1    
    26   13   14 1    
    27   13   41 1    
    28   13   42 1    
    29   14   15 1    
    30   14   17 1    
    31   15   16 1    
    32   15   43 1    
    33   15   44 1    
    34   16   45 1    
    35   16   46 1    
    36   17   18 2    
    37   17   19 2    
    38   17   20 1    
    39   20   25 ar   
    40   20   21 ar   
    41   21   22 ar   
    42   21   47 1    
    43   22   23 ar   
    44   22   48 1    
    45   23   28 1    
    46   23   24 ar   
    47   24   25 ar   
    48   24   26 1    
    49   25   49 1    
    50   26   27 1    
    51   26   50 1    
    52   26   51 1    
    53   27   28 1    
    54   27   52 1    
    55   27   53 1    
    56   28   54 1    
    57   28   55 1    
    58   29   30 2    
    59   29   56 1    
@<TRIPOS>SUBSTRUCTURE
     1 UNK         1 GROUP             0       ****    0 ROOT    
