@<TRIPOS>MOLECULE
ZINC44866120_1852
28   28    1
SMALL
USER_CHARGES


@<TRIPOS>ATOM
      1 C1         -1.2926   52.5622   23.9134 C.3       1 UNK         0.0000 
      2 C2         -0.3350   51.5318   24.5694 C.3       1 UNK         0.0000 
      3 H3         -0.2893   50.6954   23.8689 H         1 UNK         0.0000 
      4 C4         -0.8422   50.9930   25.9305 C.2       1 UNK         0.0000 
      5 N5         -1.3743   51.8349   26.7316 N.2       1 UNK         0.0000 
      6 O6         -1.8439   51.2967   27.9527 O.3       1 UNK         0.0000 
      7 N7         -0.6266   49.6343   26.0817 N.pl3     1 UNK         0.0000 
      8 C8          1.1043   52.0970   24.6449 C.2       1 UNK         0.0000 
      9 O9          1.8971   51.7873   23.7549 O.2       1 UNK         0.0000 
     10 N10         1.4311   52.8969   25.6879 N.am      1 UNK         0.0000 
     11 C11         2.7029   53.4387   25.9633 C.ar      1 UNK         0.0000 
     12 C12         3.4582   54.1282   24.9944 C.ar      1 UNK         0.0000 
     13 C13         4.7311   54.6048   25.3086 C.ar      1 UNK         0.0000 
     14 C14         5.2518   54.4330   26.5877 C.ar      1 UNK         0.0000 
     15 C15         4.4947   53.7904   27.5642 C.ar      1 UNK         0.0000 
     16 C16         3.2235   53.2968   27.2615 C.ar      1 UNK         0.0000 
     17 Br17        2.2540   52.3829   28.6306 Br        1 UNK         0.0000 
     18 F18         6.4881   54.8969   26.8808 F         1 UNK         0.0000 
     19 F19         2.9669   54.3673   23.7557 F         1 UNK         0.0000 
     20 H20        -1.3550   53.4899   24.4817 H         1 UNK         0.0000 
     21 H21        -0.9627   52.8227   22.9065 H         1 UNK         0.0000 
     22 H22        -2.3044   52.1637   23.8231 H         1 UNK         0.0000 
     23 H23        -1.6956   50.3449   27.8720 H         1 UNK         0.0000 
     24 H24        -0.8956   49.1343   26.9341 H         1 UNK         0.0000 
     25 H25        -0.0728   49.1252   25.4097 H         1 UNK         0.0000 
     26 H26         0.7432   52.9749   26.4249 H         1 UNK         0.0000 
     27 H27         5.3153   55.1156   24.5585 H         1 UNK         0.0000 
     28 H28         4.9053   53.6620   28.5546 H         1 UNK         0.0000 
@<TRIPOS>BOND
     1    1    2 1    
     2    1   20 1    
     3    1   21 1    
     4    1   22 1    
     5    2    3 1    
     6    2    4 1    
     7    2    8 1    
     8    4    5 2    
     9    4    7 1    
    10    5    6 1    
    11    6   23 1    
    12    7   24 1    
    13    7   25 1    
    14    8    9 2    
    15    8   10 am   BACKBONE|DICT|INTERRES
    16   10   11 1    
    17   10   26 1    
    18   11   16 ar   
    19   11   12 ar   
    20   12   13 ar   
    21   12   19 1    
    22   13   14 ar   
    23   13   27 1    
    24   14   15 ar   
    25   14   18 1    
    26   15   16 ar   
    27   15   28 1    
    28   16   17 1    
@<TRIPOS>SUBSTRUCTURE
     1 UNK         1 GROUP             0       ****    0 ROOT    
