@<TRIPOS>MOLECULE
ZINC12006320_3208
48   51    1
SMALL
USER_CHARGES


@<TRIPOS>ATOM
      1 C1          2.9195   54.4780   28.9332 C.3       1 UNK         0.0000 
      2 C2          4.0103   54.3378   27.8966 C.ar      1 UNK         0.0000 
      3 C3          5.3245   54.4982   28.1619 C.ar      1 UNK         0.0000 
      4 C4          6.2902   54.4318   27.0941 C.ar      1 UNK         0.0000 
      5 O5          7.4999   54.4955   27.2454 O.2       1 UNK         0.0000 
      6 N6          5.7179   54.2844   25.8791 N.pl3     1 UNK         0.0000 
      7 H7          6.3721   54.2373   25.1158 H         1 UNK         0.0000 
      8 C8          4.3745   54.1198   25.6278 C.ar      1 UNK         0.0000 
      9 N9          3.5435   54.1389   26.6269 N.2       1 UNK         0.0000 
     10 N10         3.9081   53.9199   24.3119 N.pl3     1 UNK         0.0000 
     11 C11         2.6851   53.4345   23.8673 C.ar      1 UNK         0.0000 
     12 C12         2.7715   53.4240   22.4845 C.ar      1 UNK         0.0000 
     13 C13         4.0543   53.8870   22.1798 C.ar      1 UNK         0.0000 
     14 N14         4.7270   54.1715   23.2693 N.2       1 UNK         0.0000 
     15 C15         4.6336   54.0625   20.8683 C.2       1 UNK         0.0000 
     16 C16         5.6787   54.8223   20.3526 C.2       1 UNK         0.0000 
     17 C17         5.7348   54.5607   18.9817 C.2       1 UNK         0.0000 
     18 C18         4.7351   53.6389   18.7241 C.2       1 UNK         0.0000 
     19 O19         4.0681   53.3421   19.8658 O.3       1 UNK         0.0000 
     20 N20         1.6914   53.0297   24.7428 N.am      1 UNK         0.0000 
     21 C21         0.4832   52.5114   24.4496 C.2       1 UNK         0.0000 
     22 O22         0.0473   52.3825   23.3025 O.2       1 UNK         0.0000 
     23 C23        -0.3507   52.0950   25.6473 C.ar      1 UNK         0.0000 
     24 C24         0.0850   52.3228   26.9635 C.ar      1 UNK         0.0000 
     25 C25        -0.6799   51.9329   28.0636 C.ar      1 UNK         0.0000 
     26 C26        -1.9074   51.2969   27.8505 C.ar      1 UNK         0.0000 
     27 C27        -2.3681   51.0539   26.5502 C.ar      1 UNK         0.0000 
     28 C28        -1.5874   51.4591   25.4604 C.ar      1 UNK         0.0000 
     29 C29        -3.6972   50.3411   26.2981 C.3       1 UNK         0.0000 
     30 F30        -4.4470   50.2482   27.3984 F         1 UNK         0.0000 
     31 F31        -4.4010   51.0008   25.3764 F         1 UNK         0.0000 
     32 F32        -3.4596   49.1104   25.8453 F         1 UNK         0.0000 
     33 C33        -0.1378   52.2108   29.4630 C.3       1 UNK         0.0000 
     34 F34         1.0868   51.6966   29.5823 F         1 UNK         0.0000 
     35 F35        -0.8954   51.6960   30.4214 F         1 UNK         0.0000 
     36 F36        -0.0741   53.5286   29.6598 F         1 UNK         0.0000 
     37 H37         2.7416   53.5125   29.4018 H         1 UNK         0.0000 
     38 H38         3.2185   55.1817   29.7080 H         1 UNK         0.0000 
     39 H39         1.9873   54.8390   28.4949 H         1 UNK         0.0000 
     40 H40         5.6862   54.7029   29.1564 H         1 UNK         0.0000 
     41 H41         2.0168   53.1104   21.7778 H         1 UNK         0.0000 
     42 H42         6.3193   55.4920   20.9063 H         1 UNK         0.0000 
     43 H43         6.4205   54.9846   18.2615 H         1 UNK         0.0000 
     44 H44         4.3961   53.1262   17.8355 H         1 UNK         0.0000 
     45 H45         1.9335   53.1591   25.7160 H         1 UNK         0.0000 
     46 H46         1.0286   52.8084   27.1674 H         1 UNK         0.0000 
     47 H47        -2.4959   50.9696   28.6996 H         1 UNK         0.0000 
     48 H48        -1.9496   51.2604   24.4602 H         1 UNK         0.0000 
@<TRIPOS>BOND
     1    1    2 1    
     2    1   37 1    
     3    1   38 1    
     4    1   39 1    
     5    2    9 ar   
     6    2    3 ar   
     7    3    4 ar   
     8    3   40 1    
     9    4    5 2    
    10    4    6 ar   
    11    6    7 1    
    12    6    8 ar   
    13    8    9 ar   
    14    8   10 1    
    15   10   14 ar   
    16   10   11 ar   
    17   11   12 ar   
    18   11   20 1    
    19   12   13 ar   
    20   12   41 1    
    21   13   14 ar   
    22   13   15 1    
    23   15   19 1    
    24   15   16 2    
    25   16   17 1    
    26   16   42 1    
    27   17   18 2    
    28   17   43 1    
    29   18   19 1    
    30   18   44 1    
    31   20   21 am   BACKBONE|DICT|INTERRES
    32   20   45 1    
    33   21   22 2    
    34   21   23 1    
    35   23   28 ar   
    36   23   24 ar   
    37   24   25 ar   
    38   24   46 1    
    39   25   26 ar   
    40   25   33 1    
    41   26   27 ar   
    42   26   47 1    
    43   27   28 ar   
    44   27   29 1    
    45   28   48 1    
    46   29   30 1    
    47   29   31 1    
    48   29   32 1    
    49   33   34 1    
    50   33   35 1    
    51   33   36 1    
@<TRIPOS>SUBSTRUCTURE
     1 UNK         1 GROUP             0       ****    0 ROOT    
