@<TRIPOS>MOLECULE
ZINC12642171_5479
77   82    1
SMALL
USER_CHARGES


@<TRIPOS>ATOM
      1 C1          0.7041   49.4519   26.1888 C.3       1 UNK         0.0000 
      2 C2          0.3976   50.3169   24.9489 C.3       1 UNK         0.0000 
      3 C3         -0.5759   49.6389   23.9859 C.2       1 UNK         0.0000 
      4 C4         -0.2347   50.0530   22.7523 C.2       1 UNK         0.0000 
      5 C5          0.8619   51.0754   22.9973 C.3       1 UNK         0.0000 
      6 O6          1.5043   50.4397   24.0818 O.3       1 UNK         0.0000 
      7 C7          0.3660   52.3495   23.6519 C.3       1 UNK         0.0000 
      8 H8         -0.5498   52.7000   23.1750 H         1 UNK         0.0000 
      9 C9          0.0813   51.8427   25.1168 C.3       1 UNK         0.0000 
     10 H10        -0.9701   51.9739   25.3730 H         1 UNK         0.0000 
     11 C11         0.9109   52.4962   26.2679 C.2       1 UNK         0.0000 
     12 O12         2.1261   52.6364   26.1645 O.2       1 UNK         0.0000 
     13 N13         0.2616   52.8963   27.3764 N.am      1 UNK         0.0000 
     14 C14         0.8977   53.5712   28.5155 C.3       1 UNK         0.0000 
     15 C15         1.5014   54.9699   28.2054 C.3       1 UNK         0.0000 
     16 C16         2.1171   55.6815   29.4261 C.3       1 UNK         0.0000 
     17 C17         1.1471   55.7166   30.6142 C.3       1 UNK         0.0000 
     18 C18         0.6645   54.3003   30.9810 C.3       1 UNK         0.0000 
     19 C19         0.0254   53.5737   29.7885 C.3       1 UNK         0.0000 
     20 C20         1.4641   53.3818   23.3547 C.2       1 UNK         0.0000 
     21 O21         1.5046   54.5000   23.8459 O.2       1 UNK         0.0000 
     22 N22         2.3011   52.8483   22.4290 N.am      1 UNK         0.0000 
     23 C23         1.9064   51.5070   21.9564 C.3       1 UNK         0.0000 
     24 H24         2.7568   50.8243   21.9694 H         1 UNK         0.0000 
     25 C25         1.3905   51.5649   20.4979 C.2       1 UNK         0.0000 
     26 O26         0.2017   51.7884   20.2565 O.2       1 UNK         0.0000 
     27 N27         2.3177   51.3751   19.5401 N.am      1 UNK         0.0000 
     28 C28         2.0952   51.3942   18.0937 C.3       1 UNK         0.0000 
     29 C29         1.3182   50.1724   17.5408 C.3       1 UNK         0.0000 
     30 C30         1.1329   50.2048   16.0097 C.3       1 UNK         0.0000 
     31 C31         0.5404   51.5371   15.5226 C.3       1 UNK         0.0000 
     32 C32         1.3921   52.7289   15.9928 C.3       1 UNK         0.0000 
     33 C33         1.5777   52.7426   17.5232 C.3       1 UNK         0.0000 
     34 C34         3.4269   53.6340   21.8840 C.3       1 UNK         0.0000 
     35 C35         4.7456   53.5230   22.6854 C.3       1 UNK         0.0000 
     36 H36         5.1049   52.4968   22.6171 H         1 UNK         0.0000 
     37 C37         4.7153   54.0407   24.1237 C.3       1 UNK         0.0000 
     38 C38         6.1361   54.4728   24.4121 C.3       1 UNK         0.0000 
     39 C39         6.7599   54.6468   23.0272 C.3       1 UNK         0.0000 
     40 O40         5.7121   54.3833   22.0906 O.3       1 UNK         0.0000 
     41 H41        -0.2038   49.2786   26.7610 H         1 UNK         0.0000 
     42 H42         1.1041   48.4860   25.8878 H         1 UNK         0.0000 
     43 H43         1.4220   49.8921   26.8818 H         1 UNK         0.0000 
     44 H44        -1.3650   48.9659   24.2858 H         1 UNK         0.0000 
     45 H45        -0.6838   49.8227   21.7978 H         1 UNK         0.0000 
     46 H46        -0.7387   52.7797   27.4203 H         1 UNK         0.0000 
     47 H47         1.7570   52.9497   28.7835 H         1 UNK         0.0000 
     48 H48         0.7044   55.6088   27.8228 H         1 UNK         0.0000 
     49 H49         2.2576   54.8967   27.4231 H         1 UNK         0.0000 
     50 H50         2.4060   56.6983   29.1578 H         1 UNK         0.0000 
     51 H51         3.0374   55.1721   29.7143 H         1 UNK         0.0000 
     52 H52         0.3044   56.3551   30.3684 H         1 UNK         0.0000 
     53 H53         1.6061   56.2042   31.4723 H         1 UNK         0.0000 
     54 H54        -0.0380   54.3438   31.8147 H         1 UNK         0.0000 
     55 H55         1.5041   53.6966   31.3209 H         1 UNK         0.0000 
     56 H56        -0.2416   52.5556   30.0790 H         1 UNK         0.0000 
     57 H57        -0.8956   54.0961   29.5636 H         1 UNK         0.0000 
     58 H58         3.2275   51.0378   19.8174 H         1 UNK         0.0000 
     59 H59         3.1036   51.2968   17.6808 H         1 UNK         0.0000 
     60 H60         1.8290   49.2487   17.8193 H         1 UNK         0.0000 
     61 H61         0.3279   50.1430   18.0005 H         1 UNK         0.0000 
     62 H62         2.1006   50.0422   15.5309 H         1 UNK         0.0000 
     63 H63         0.4984   49.3756   15.6957 H         1 UNK         0.0000 
     64 H64         0.4712   51.5358   14.4334 H         1 UNK         0.0000 
     65 H65        -0.4793   51.6439   15.8976 H         1 UNK         0.0000 
     66 H66         2.3725   52.6876   15.5123 H         1 UNK         0.0000 
     67 H67         0.9337   53.6632   15.6658 H         1 UNK         0.0000 
     68 H68         0.6105   52.9794   17.9697 H         1 UNK         0.0000 
     69 H69         2.2559   53.5511   17.8006 H         1 UNK         0.0000 
     70 H70         3.6090   53.3411   20.8506 H         1 UNK         0.0000 
     71 H71         3.1308   54.6838   21.8445 H         1 UNK         0.0000 
     72 H72         4.0424   54.8961   24.1918 H         1 UNK         0.0000 
     73 H73         4.3063   53.3060   24.8189 H         1 UNK         0.0000 
     74 H74         6.1640   55.3966   24.9922 H         1 UNK         0.0000 
     75 H75         6.6658   53.7043   24.9781 H         1 UNK         0.0000 
     76 H76         7.1585   55.6506   22.8728 H         1 UNK         0.0000 
     77 H77         7.5783   53.9403   22.8814 H         1 UNK         0.0000 
@<TRIPOS>BOND
     1    1    2 1    
     2    1   41 1    
     3    1   42 1    
     4    1   43 1    
     5    2    6 1    
     6    2    9 1    
     7    2    3 1    
     8    3    4 2    
     9    3   44 1    
    10    4    5 1    
    11    4   45 1    
    12    5   23 1    
    13    5    6 1    
    14    5    7 1    
    15    7    8 1    
    16    7    9 1    
    17    7   20 1    
    18    9   10 1    
    19    9   11 1    
    20   11   12 2    
    21   11   13 am   BACKBONE|DICT|INTERRES
    22   13   14 1    
    23   13   46 1    
    24   14   19 1    
    25   14   15 1    
    26   14   47 1    
    27   15   16 1    
    28   15   48 1    
    29   15   49 1    
    30   16   17 1    
    31   16   50 1    
    32   16   51 1    
    33   17   18 1    
    34   17   52 1    
    35   17   53 1    
    36   18   19 1    
    37   18   54 1    
    38   18   55 1    
    39   19   56 1    
    40   19   57 1    
    41   20   21 2    
    42   20   22 am   BACKBONE|DICT|INTERRES
    43   22   23 1    
    44   22   34 1    
    45   23   24 1    
    46   23   25 1    
    47   25   26 2    
    48   25   27 am   BACKBONE|DICT|INTERRES
    49   27   28 1    
    50   27   58 1    
    51   28   33 1    
    52   28   29 1    
    53   28   59 1    
    54   29   30 1    
    55   29   60 1    
    56   29   61 1    
    57   30   31 1    
    58   30   62 1    
    59   30   63 1    
    60   31   32 1    
    61   31   64 1    
    62   31   65 1    
    63   32   33 1    
    64   32   66 1    
    65   32   67 1    
    66   33   68 1    
    67   33   69 1    
    68   34   35 1    
    69   34   70 1    
    70   34   71 1    
    71   35   36 1    
    72   35   40 1    
    73   35   37 1    
    74   37   38 1    
    75   37   72 1    
    76   37   73 1    
    77   38   39 1    
    78   38   74 1    
    79   38   75 1    
    80   39   40 1    
    81   39   76 1    
    82   39   77 1    
@<TRIPOS>SUBSTRUCTURE
     1 UNK         1 GROUP             0       ****    0 ROOT    
