@<TRIPOS>MOLECULE
ZINC16154818_2811
54   57    1
SMALL
USER_CHARGES


@<TRIPOS>ATOM
      1 C1          6.5228   54.8936   25.5216 C.ar      1 UNK         0.0000 
      2 C2          6.5907   54.6095   26.8826 C.ar      1 UNK         0.0000 
      3 C3          5.4859   54.0964   27.5564 C.ar      1 UNK         0.0000 
      4 C4          4.2747   53.8527   26.8617 C.ar      1 UNK         0.0000 
      5 C5          3.1429   53.2963   27.5061 C.ar      1 UNK         0.0000 
      6 C6          1.9752   53.0208   26.7889 C.ar      1 UNK         0.0000 
      7 C7          1.9038   53.3448   25.4336 C.ar      1 UNK         0.0000 
      8 C8          2.9919   53.9092   24.7739 C.ar      1 UNK         0.0000 
      9 C9          4.2009   54.1543   25.4680 C.ar      1 UNK         0.0000 
     10 C10         5.3442   54.6759   24.8143 C.ar      1 UNK         0.0000 
     11 S11         0.6076   52.1905   27.6128 S.o2      1 UNK         0.0000 
     12 O12         1.0048   51.9908   29.0113 O.2       1 UNK         0.0000 
     13 O13        -0.6330   52.8967   27.2818 O.2       1 UNK         0.0000 
     14 N14         0.5210   50.5650   26.9047 N.pl3     1 UNK         0.0000 
     15 C15        -0.2786   50.1573   25.8272 C.ar      1 UNK         0.0000 
     16 C16        -0.4979   48.7873   25.6799 C.ar      1 UNK         0.0000 
     17 C17        -1.2753   48.2869   24.6377 C.ar      1 UNK         0.0000 
     18 C18        -1.8368   49.1621   23.7131 C.ar      1 UNK         0.0000 
     19 C19        -1.6160   50.5364   23.8391 C.ar      1 UNK         0.0000 
     20 C20        -0.8611   51.0305   24.9059 C.ar      1 UNK         0.0000 
     21 S21        -2.2753   51.6971   22.6434 S.o2      1 UNK         0.0000 
     22 O22        -3.0452   50.8966   21.6844 O.2       1 UNK         0.0000 
     23 O23        -3.0718   52.5835   23.4977 O.2       1 UNK         0.0000 
     24 N24        -0.7669   52.4012   22.0565 N.2       1 UNK         0.0000 
     25 C25         0.1644   51.7013   21.5549 C.2       1 UNK         0.0000 
     26 C26         0.1992   50.1958   21.2511 C.3       1 UNK         0.0000 
     27 C27         0.8666   49.7468   19.9326 C.3       1 UNK         0.0000 
     28 C28         2.3975   49.6968   19.9751 C.3       1 UNK         0.0000 
     29 C29         3.1041   51.0571   20.0812 C.3       1 UNK         0.0000 
     30 C30         2.7052   51.9363   21.2742 C.3       1 UNK         0.0000 
     31 N31         1.3200   52.3885   21.2380 N.pl3     1 UNK         0.0000 
     32 H32         7.3868   55.2801   24.9999 H         1 UNK         0.0000 
     33 H33         7.5044   54.7847   27.4307 H         1 UNK         0.0000 
     34 H34         5.5534   53.8729   28.6116 H         1 UNK         0.0000 
     35 H35         3.2137   53.0498   28.5555 H         1 UNK         0.0000 
     36 H36         1.0079   53.1592   24.8672 H         1 UNK         0.0000 
     37 H37         2.9245   54.1445   23.7216 H         1 UNK         0.0000 
     38 H38         5.2995   54.8954   23.7575 H         1 UNK         0.0000 
     39 H39         0.9083   49.8301   27.4762 H         1 UNK         0.0000 
     40 H40        -0.0955   48.0974   26.4056 H         1 UNK         0.0000 
     41 H41        -1.4449   47.2240   24.5581 H         1 UNK         0.0000 
     42 H42        -2.4344   48.7711   22.9024 H         1 UNK         0.0000 
     43 H43        -0.7491   52.0961   24.9957 H         1 UNK         0.0000 
     44 H44         0.6329   49.6620   22.0975 H         1 UNK         0.0000 
     45 H45        -0.8229   49.8308   21.1829 H         1 UNK         0.0000 
     46 H46         0.5041   48.7470   19.6858 H         1 UNK         0.0000 
     47 H47         0.5393   50.3795   19.1052 H         1 UNK         0.0000 
     48 H48         2.7591   49.1964   19.0739 H         1 UNK         0.0000 
     49 H49         2.7050   49.0596   20.8052 H         1 UNK         0.0000 
     50 H50         2.9434   51.6156   19.1579 H         1 UNK         0.0000 
     51 H51         4.1809   50.8902   20.1194 H         1 UNK         0.0000 
     52 H52         3.3823   52.7861   21.3649 H         1 UNK         0.0000 
     53 H53         2.8128   51.3545   22.1911 H         1 UNK         0.0000 
     54 H54         1.2284   53.3951   21.2707 H         1 UNK         0.0000 
@<TRIPOS>BOND
     1    1   10 ar   
     2    1    2 ar   
     3    1   32 1    
     4    2    3 ar   
     5    2   33 1    
     6    3    4 ar   
     7    3   34 1    
     8    4    9 ar   
     9    4    5 ar   
    10    5    6 ar   
    11    5   35 1    
    12    6    7 ar   
    13    6   11 1    
    14    7    8 ar   
    15    7   36 1    
    16    8    9 ar   
    17    8   37 1    
    18    9   10 ar   
    19   10   38 1    
    20   11   12 2    
    21   11   13 2    
    22   11   14 1    
    23   14   15 1    
    24   14   39 1    
    25   15   20 ar   
    26   15   16 ar   
    27   16   17 ar   
    28   16   40 1    
    29   17   18 ar   
    30   17   41 1    
    31   18   19 ar   
    32   18   42 1    
    33   19   20 ar   
    34   19   21 1    
    35   20   43 1    
    36   21   22 2    
    37   21   23 2    
    38   21   24 1    
    39   24   25 2    
    40   25   31 1    
    41   25   26 1    
    42   26   27 1    
    43   26   44 1    
    44   26   45 1    
    45   27   28 1    
    46   27   46 1    
    47   27   47 1    
    48   28   29 1    
    49   28   48 1    
    50   28   49 1    
    51   29   30 1    
    52   29   50 1    
    53   29   51 1    
    54   30   31 1    
    55   30   52 1    
    56   30   53 1    
    57   31   54 1    
@<TRIPOS>SUBSTRUCTURE
     1 UNK         1 GROUP             0       ****    0 ROOT    
