@<TRIPOS>MOLECULE
ZINC53735886_1756
37   39    1
SMALL
USER_CHARGES


@<TRIPOS>ATOM
      1 C1          0.3020   53.9066   32.0144 C.3       1 UNK         0.0000 
      2 C2          0.7309   53.8176   30.5616 C.ar      1 UNK         0.0000 
      3 C3          1.1275   54.9562   29.8594 C.ar      1 UNK         0.0000 
      4 C4          1.5892   54.8435   28.5458 C.ar      1 UNK         0.0000 
      5 C5          1.6446   53.5917   27.9171 C.ar      1 UNK         0.0000 
      6 C6          1.2534   52.4511   28.6300 C.ar      1 UNK         0.0000 
      7 C7          0.7862   52.5722   29.9377 C.ar      1 UNK         0.0000 
      8 F8          1.3604   51.2211   28.0812 F         1 UNK         0.0000 
      9 N9          2.1389   53.4965   26.5940 N.pl3     1 UNK         0.0000 
     10 C10         3.3814   53.9452   26.1638 C.ar      1 UNK         0.0000 
     11 C11         4.4937   54.4974   26.8162 C.ar      1 UNK         0.0000 
     12 C12         5.5962   54.8265   26.0184 C.ar      1 UNK         0.0000 
     13 C13         5.5917   54.6360   24.6356 C.ar      1 UNK         0.0000 
     14 C14         4.4824   54.0967   23.9890 C.ar      1 UNK         0.0000 
     15 C15         3.3768   53.7223   24.7664 C.ar      1 UNK         0.0000 
     16 N16         2.2230   53.1145   24.3687 N.2       1 UNK         0.0000 
     17 C17         1.5121   52.9676   25.4642 C.ar      1 UNK         0.0000 
     18 C18         0.1301   52.2999   25.4573 C.3       1 UNK         0.0000 
     19 H19        -0.3745   52.4311   26.4150 H         1 UNK         0.0000 
     20 C20         0.1889   50.7984   25.1297 C.3       1 UNK         0.0000 
     21 O21        -0.7063   52.8959   24.4830 O.3       1 UNK         0.0000 
     22 N22         6.7041   54.9823   23.8725 N.pl3     1 UNK         0.0000 
     23 H23         0.8205   53.1537   32.6089 H         1 UNK         0.0000 
     24 H24         0.5214   54.8805   32.4509 H         1 UNK         0.0000 
     25 H25        -0.7600   53.6965   32.1161 H         1 UNK         0.0000 
     26 H26         1.0967   55.9272   30.3337 H         1 UNK         0.0000 
     27 H27         1.8992   55.7369   28.0225 H         1 UNK         0.0000 
     28 H28         0.4753   51.6967   30.4848 H         1 UNK         0.0000 
     29 H29         4.5116   54.6525   27.8852 H         1 UNK         0.0000 
     30 H30         6.4698   55.2450   26.4942 H         1 UNK         0.0000 
     31 H31         4.4766   53.9370   22.9212 H         1 UNK         0.0000 
     32 H32         0.7648   50.2464   25.8715 H         1 UNK         0.0000 
     33 H33        -0.8047   50.3502   25.1138 H         1 UNK         0.0000 
     34 H34         0.6521   50.6191   24.1576 H         1 UNK         0.0000 
     35 H35        -1.4298   52.2921   24.2986 H         1 UNK         0.0000 
     36 H36         7.6142   55.0738   24.3072 H         1 UNK         0.0000 
     37 H37         6.6688   54.7726   22.8862 H         1 UNK         0.0000 
@<TRIPOS>BOND
     1    1    2 1    
     2    1   23 1    
     3    1   24 1    
     4    1   25 1    
     5    2    7 ar   
     6    2    3 ar   
     7    3    4 ar   
     8    3   26 1    
     9    4    5 ar   
    10    4   27 1    
    11    5    6 ar   
    12    5    9 1    
    13    6    7 ar   
    14    6    8 1    
    15    7   28 1    
    16    9   17 ar   
    17    9   10 ar   
    18   10   15 ar   
    19   10   11 ar   
    20   11   12 ar   
    21   11   29 1    
    22   12   13 ar   
    23   12   30 1    
    24   13   14 ar   
    25   13   22 1    
    26   14   15 ar   
    27   14   31 1    
    28   15   16 ar   
    29   16   17 ar   
    30   17   18 1    
    31   18   19 1    
    32   18   20 1    
    33   18   21 1    
    34   20   32 1    
    35   20   33 1    
    36   20   34 1    
    37   21   35 1    
    38   22   36 1    
    39   22   37 1    
@<TRIPOS>SUBSTRUCTURE
     1 UNK         1 GROUP             0       ****    0 ROOT    
