@<TRIPOS>MOLECULE
ZINC10642449_4175
53   57    1
SMALL
USER_CHARGES


@<TRIPOS>ATOM
      1 C1          9.8857   56.1015   17.1449 C.3       1 UNK         0.0000 
      2 C2          8.6440   55.8004   17.9482 C.2       1 UNK         0.0000 
      3 C3          7.3416   55.5728   17.5202 C.2       1 UNK         0.0000 
      4 C4          6.4337   55.3175   18.5511 C.2       1 UNK         0.0000 
      5 C5          7.0082   55.3279   19.8183 C.2       1 UNK         0.0000 
      6 S6          8.7044   55.6968   19.6821 S.3       1 UNK         0.0000 
      7 C7          6.3772   55.0752   21.1530 C.ar      1 UNK         0.0000 
      8 C8          5.1362   54.4322   21.2206 C.ar      1 UNK         0.0000 
      9 C9          4.5633   54.0911   22.4601 C.ar      1 UNK         0.0000 
     10 C10         5.2890   54.4957   23.6097 C.ar      1 UNK         0.0000 
     11 C11         5.1678   54.4676   25.0418 C.2       1 UNK         0.0000 
     12 N12         6.2240   55.0055   25.6189 N.2       1 UNK         0.0000 
     13 O13         7.1002   55.4333   24.6147 O.3       1 UNK         0.0000 
     14 C14         6.5306   55.1235   23.4181 C.ar      1 UNK         0.0000 
     15 N15         7.1036   55.4180   22.2530 N.ar      1 UNK         0.0000 
     16 C16         4.0361   53.9469   25.8983 C.3       1 UNK         0.0000 
     17 C17         3.2898   53.2860   22.4834 C.2       1 UNK         0.0000 
     18 O18         2.4017   53.5308   23.3019 O.2       1 UNK         0.0000 
     19 N19         3.2525   52.2834   21.5744 N.am      1 UNK         0.0000 
     20 C20         2.2747   51.3131   21.4646 C.2       1 UNK         0.0000 
     21 N21         1.5333   50.8463   22.4388 N.2       1 UNK         0.0000 
     22 C22         0.7672   49.8307   22.0704 C.2       1 UNK         0.0000 
     23 C23         0.8844   49.5013   20.7135 C.2       1 UNK         0.0000 
     24 S24         2.0637   50.5235   19.9416 S.3       1 UNK         0.0000 
     25 C25        -0.0924   49.1419   23.0869 C.ar      1 UNK         0.0000 
     26 C26        -1.2035   48.3797   22.7045 C.ar      1 UNK         0.0000 
     27 C27        -1.9896   47.7417   23.6656 C.ar      1 UNK         0.0000 
     28 C28        -1.6654   47.8699   25.0233 C.ar      1 UNK         0.0000 
     29 C29        -0.5629   48.6317   25.4025 C.ar      1 UNK         0.0000 
     30 C30         0.2229   49.2556   24.4462 C.ar      1 UNK         0.0000 
     31 N31        -2.4037   47.3229   26.0817 N.am      1 UNK         0.0000 
     32 C32        -3.3471   46.3648   26.0818 C.2       1 UNK         0.0000 
     33 O33        -3.6958   45.6969   25.1063 O.2       1 UNK         0.0000 
     34 C34        -3.9843   46.0969   27.4378 C.3       1 UNK         0.0000 
     35 H35         9.7002   56.0564   16.0703 H         1 UNK         0.0000 
     36 H36        10.2730   57.0968   17.3646 H         1 UNK         0.0000 
     37 H37        10.6839   55.3888   17.3639 H         1 UNK         0.0000 
     38 H38         7.0588   55.5902   16.4777 H         1 UNK         0.0000 
     39 H39         5.3877   55.1246   18.3683 H         1 UNK         0.0000 
     40 H40         4.6307   54.1684   20.3019 H         1 UNK         0.0000 
     41 H41         3.8234   52.8970   25.6883 H         1 UNK         0.0000 
     42 H42         4.2474   54.0149   26.9668 H         1 UNK         0.0000 
     43 H43         3.1148   54.5015   25.7198 H         1 UNK         0.0000 
     44 H44         3.9160   52.3206   20.8157 H         1 UNK         0.0000 
     45 H45         0.3860   48.7218   20.1588 H         1 UNK         0.0000 
     46 H46        -1.4700   48.2882   21.6625 H         1 UNK         0.0000 
     47 H47        -2.8518   47.1792   23.3436 H         1 UNK         0.0000 
     48 H48        -0.3015   48.7342   26.4487 H         1 UNK         0.0000 
     49 H49         1.0836   49.8206   24.7734 H         1 UNK         0.0000 
     50 H50        -2.1249   47.6860   27.0020 H         1 UNK         0.0000 
     51 H51        -4.3837   47.0187   27.8613 H         1 UNK         0.0000 
     52 H52        -3.2389   45.6972   28.1259 H         1 UNK         0.0000 
     53 H53        -4.7947   45.3738   27.3517 H         1 UNK         0.0000 
@<TRIPOS>BOND
     1    1    2 1    
     2    1   35 1    
     3    1   36 1    
     4    1   37 1    
     5    2    6 1    
     6    2    3 2    
     7    3    4 1    
     8    3   38 1    
     9    4    5 2    
    10    4   39 1    
    11    5    6 1    
    12    5    7 1    
    13    7   15 ar   
    14    7    8 ar   
    15    8    9 ar   
    16    8   40 1    
    17    9   10 ar   
    18    9   17 1    
    19   10   14 ar   
    20   10   11 1    
    21   11   12 2    
    22   11   16 1    
    23   12   13 1    
    24   13   14 1    
    25   14   15 ar   
    26   16   41 1    
    27   16   42 1    
    28   16   43 1    
    29   17   18 2    
    30   17   19 am   BACKBONE|DICT|INTERRES
    31   19   20 am   BACKBONE|DICT|INTERRES
    32   19   44 1    
    33   20   24 1    
    34   20   21 2    
    35   21   22 1    
    36   22   23 2    
    37   22   25 1    
    38   23   24 1    
    39   23   45 1    
    40   25   30 ar   
    41   25   26 ar   
    42   26   27 ar   
    43   26   46 1    
    44   27   28 ar   
    45   27   47 1    
    46   28   29 ar   
    47   28   31 1    
    48   29   30 ar   
    49   29   48 1    
    50   30   49 1    
    51   31   32 am   BACKBONE|DICT|INTERRES
    52   31   50 1    
    53   32   33 2    
    54   32   34 1    
    55   34   51 1    
    56   34   52 1    
    57   34   53 1    
@<TRIPOS>SUBSTRUCTURE
     1 UNK         1 GROUP             0       ****    0 ROOT    
