@<TRIPOS>MOLECULE
ZINC44714171_6197
66   69    1
SMALL
USER_CHARGES


@<TRIPOS>ATOM
      1 C1          3.0780   51.8807   18.9516 C.3       1 UNK         0.0000 
      2 C2          3.2196   52.4963   20.3206 C.ar      1 UNK         0.0000 
      3 C3          2.6481   52.2021   21.5546 C.ar      1 UNK         0.0000 
      4 C4          3.1741   53.2073   22.4137 C.ar      1 UNK         0.0000 
      5 N5          3.9973   54.0185   21.7878 N.2       1 UNK         0.0000 
      6 N6          4.0187   53.5814   20.5347 N.pl3     1 UNK         0.0000 
      7 H7          4.5622   54.0382   19.8166 H         1 UNK         0.0000 
      8 C8          2.9271   53.4623   23.8834 C.3       1 UNK         0.0000 
      9 C9          1.6548   51.0730   21.8291 C.3       1 UNK         0.0000 
     10 H10         1.0096   50.9864   20.9508 H         1 UNK         0.0000 
     11 C11         2.3499   49.7132   22.0110 C.3       1 UNK         0.0000 
     12 N12         0.7889   51.3805   22.9620 N.am      1 UNK         0.0000 
     13 C13        -0.4199   50.8468   23.2119 C.2       1 UNK         0.0000 
     14 O14        -0.9632   50.0595   22.4381 O.2       1 UNK         0.0000 
     15 C15        -1.1901   51.3269   24.4697 C.3       1 UNK         0.0000 
     16 H16        -2.1544   51.6732   24.0998 H         1 UNK         0.0000 
     17 C17        -0.5069   52.4967   25.2023 C.3       1 UNK         0.0000 
     18 N18         0.2505   51.8804   26.2960 N.am      1 UNK         0.0000 
     19 C19        -0.0921   50.4709   26.4707 C.3       1 UNK         0.0000 
     20 C20        -1.3462   50.2595   25.5952 C.3       1 UNK         0.0000 
     21 C21        -1.4809   48.7557   25.2113 C.3       1 UNK         0.0000 
     22 C22        -2.8153   48.4335   24.5154 C.3       1 UNK         0.0000 
     23 N23        -3.9570   48.8130   25.4786 N.4       1 UNK         0.0000 
     24 C24        -3.9310   50.3050   25.8630 C.3       1 UNK         0.0000 
     25 C25        -2.5674   50.6184   26.5071 C.3       1 UNK         0.0000 
     26 C26         1.1434   52.5686   27.0455 C.2       1 UNK         0.0000 
     27 O27         1.5044   53.6971   26.7139 O.2       1 UNK         0.0000 
     28 C28         1.6960   51.9518   28.3654 C.3       1 UNK         0.0000 
     29 H29         1.8934   50.8966   28.1741 H         1 UNK         0.0000 
     30 C30         0.6554   52.1191   29.5088 C.3       1 UNK         0.0000 
     31 C31         0.3362   53.5911   29.8624 C.3       1 UNK         0.0000 
     32 C32         1.6319   54.3867   29.9743 C.2       1 UNK         0.0000 
     33 C33         2.8298   53.9463   29.5332 C.2       1 UNK         0.0000 
     34 C34         3.0459   52.6254   28.7847 C.3       1 UNK         0.0000 
     35 H35         3.0894   50.7913   18.9958 H         1 UNK         0.0000 
     36 H36         3.8996   52.1561   18.2876 H         1 UNK         0.0000 
     37 H37         2.1501   52.1806   18.4648 H         1 UNK         0.0000 
     38 H38         2.7033   52.5483   24.4319 H         1 UNK         0.0000 
     39 H39         3.7961   53.8980   24.3792 H         1 UNK         0.0000 
     40 H40         2.0993   54.1571   24.0330 H         1 UNK         0.0000 
     41 H41         2.9437   49.4527   21.1345 H         1 UNK         0.0000 
     42 H42         3.0179   49.7176   22.8733 H         1 UNK         0.0000 
     43 H43         1.6287   48.9101   22.1638 H         1 UNK         0.0000 
     44 H44         1.2234   51.9091   23.7021 H         1 UNK         0.0000 
     45 H45         0.0669   53.1536   24.5478 H         1 UNK         0.0000 
     46 H46        -1.2936   53.1195   25.6306 H         1 UNK         0.0000 
     47 H47        -0.2421   50.1249   27.4941 H         1 UNK         0.0000 
     48 H48         0.7179   49.8770   26.0443 H         1 UNK         0.0000 
     49 H49        -0.6450   48.4401   24.5862 H         1 UNK         0.0000 
     50 H50        -1.3910   48.1249   26.0925 H         1 UNK         0.0000 
     51 H51        -2.9755   48.9972   23.5947 H         1 UNK         0.0000 
     52 H52        -2.9257   47.3689   24.3067 H         1 UNK         0.0000 
     53 H53        -4.8508   48.5745   25.0706 H         1 UNK         0.0000 
     54 H54        -4.1243   50.8724   24.9509 H         1 UNK         0.0000 
     55 H55        -4.7584   50.4570   26.5574 H         1 UNK         0.0000 
     56 H56        -2.5024   50.0960   27.4607 H         1 UNK         0.0000 
     57 H57        -2.5381   51.6647   26.8141 H         1 UNK         0.0000 
     58 H58        -0.2273   51.4949   29.3647 H         1 UNK         0.0000 
     59 H59         1.1058   51.6969   30.4073 H         1 UNK         0.0000 
     60 H60        -0.2058   53.6269   30.8083 H         1 UNK         0.0000 
     61 H61        -0.3206   54.0452   29.1202 H         1 UNK         0.0000 
     62 H62         1.5960   55.3600   30.4445 H         1 UNK         0.0000 
     63 H63         3.6845   54.5918   29.6787 H         1 UNK         0.0000 
     64 H64         3.5826   51.9590   29.4609 H         1 UNK         0.0000 
     65 H65         3.7164   52.7477   27.9313 H         1 UNK         0.0000 
     66 H66        -3.8591   48.2638   26.3239 H         1 UNK         0.0000 
@<TRIPOS>BOND
     1    1    2 1    
     2    1   35 1    
     3    1   36 1    
     4    1   37 1    
     5    2    6 ar   
     6    2    3 ar   
     7    3    4 ar   
     8    3    9 1    
     9    4    5 ar   
    10    4    8 1    
    11    5    6 ar   
    12    6    7 1    
    13    8   38 1    
    14    8   39 1    
    15    8   40 1    
    16    9   10 1    
    17    9   11 1    
    18    9   12 1    
    19   11   41 1    
    20   11   42 1    
    21   11   43 1    
    22   12   13 am   BACKBONE|DICT|INTERRES
    23   12   44 1    
    24   13   14 2    
    25   13   15 1    
    26   15   16 1    
    27   15   20 1    
    28   15   17 1    
    29   17   18 1    
    30   17   45 1    
    31   17   46 1    
    32   18   19 1    
    33   18   26 am   BACKBONE|DICT|INTERRES
    34   19   20 1    
    35   19   47 1    
    36   19   48 1    
    37   20   25 1    
    38   20   21 1    
    39   21   22 1    
    40   21   49 1    
    41   21   50 1    
    42   22   23 1    
    43   22   51 1    
    44   22   52 1    
    45   23   24 1    
    46   23   53 1    
    47   23   66 1    
    48   24   25 1    
    49   24   54 1    
    50   24   55 1    
    51   25   56 1    
    52   25   57 1    
    53   26   27 2    
    54   26   28 1    
    55   28   29 1    
    56   28   34 1    
    57   28   30 1    
    58   30   31 1    
    59   30   58 1    
    60   30   59 1    
    61   31   32 1    
    62   31   60 1    
    63   31   61 1    
    64   32   33 2    
    65   32   62 1    
    66   33   34 1    
    67   33   63 1    
    68   34   64 1    
    69   34   65 1    
@<TRIPOS>SUBSTRUCTURE
     1 UNK         1 GROUP             0       ****    0 ROOT    
