@<TRIPOS>MOLECULE
ZINC56933984_1387
48   51    1
SMALL
USER_CHARGES


@<TRIPOS>ATOM
      1 C1          3.0992   54.0985   24.4221 C.3       1 UNK         0.0000 
      2 C2          4.4963   54.2425   25.0177 C.ar      1 UNK         0.0000 
      3 C3          4.9853   54.2168   26.3442 C.ar      1 UNK         0.0000 
      4 N4          6.2808   54.4927   26.3277 N.2       1 UNK         0.0000 
      5 N5          6.7036   54.6196   25.0225 N.2       1 UNK         0.0000 
      6 N6          5.6305   54.4429   24.2437 N.pl3     1 UNK         0.0000 
      7 C7          5.7663   54.4965   22.8591 C.2       1 UNK         0.0000 
      8 N8          4.8963   53.9926   22.0135 N.2       1 UNK         0.0000 
      9 C9          5.2086   54.2252   20.7523 C.2       1 UNK         0.0000 
     10 C10         6.3771   54.9625   20.5447 C.2       1 UNK         0.0000 
     11 S11         7.1043   55.2970   22.0821 S.3       1 UNK         0.0000 
     12 C12         6.9958   55.2882   19.1961 C.3       1 UNK         0.0000 
     13 C13         5.9522   55.0194   18.0875 C.3       1 UNK         0.0000 
     14 C14         5.1840   53.6966   18.3047 C.3       1 UNK         0.0000 
     15 C15         4.3457   53.7184   19.6043 C.3       1 UNK         0.0000 
     16 C16         4.2284   54.0297   27.5694 C.2       1 UNK         0.0000 
     17 O17         4.6164   54.4968   28.6417 O.2       1 UNK         0.0000 
     18 N18         3.1083   53.2975   27.3989 N.am      1 UNK         0.0000 
     19 C19         2.1071   52.9321   28.3163 C.ar      1 UNK         0.0000 
     20 C20         2.1962   53.0889   29.7082 C.ar      1 UNK         0.0000 
     21 C21         1.1463   52.6758   30.5305 C.ar      1 UNK         0.0000 
     22 C22         0.0056   52.0978   29.9760 C.ar      1 UNK         0.0000 
     23 C23        -0.0974   51.9360   28.5915 C.ar      1 UNK         0.0000 
     24 C24         0.9589   52.3510   27.7694 C.ar      1 UNK         0.0000 
     25 N25        -1.2397   51.2970   28.0850 N.am      1 UNK         0.0000 
     26 C26        -1.8864   51.5823   26.9383 C.2       1 UNK         0.0000 
     27 O27        -1.5894   52.4957   26.1688 O.2       1 UNK         0.0000 
     28 C28        -3.0916   50.7046   26.6250 C.3       1 UNK         0.0000 
     29 H29         2.3004   54.2526   25.1456 H         1 UNK         0.0000 
     30 H30         2.9181   54.8401   23.6427 H         1 UNK         0.0000 
     31 H31         2.9501   53.1164   23.9728 H         1 UNK         0.0000 
     32 H32         7.3424   56.3221   19.1479 H         1 UNK         0.0000 
     33 H33         7.8648   54.6494   19.0294 H         1 UNK         0.0000 
     34 H34         5.2393   55.8445   18.0502 H         1 UNK         0.0000 
     35 H35         6.4461   55.0077   17.1153 H         1 UNK         0.0000 
     36 H36         4.5302   53.4974   17.4532 H         1 UNK         0.0000 
     37 H37         5.8909   52.8647   18.3366 H         1 UNK         0.0000 
     38 H38         3.9340   52.7275   19.8048 H         1 UNK         0.0000 
     39 H39         3.5036   54.3926   19.4672 H         1 UNK         0.0000 
     40 H40         2.9425   52.9907   26.4526 H         1 UNK         0.0000 
     41 H41         3.0725   53.5129   30.1701 H         1 UNK         0.0000 
     42 H42         1.2170   52.7904   31.6031 H         1 UNK         0.0000 
     43 H43        -0.7901   51.7627   30.6302 H         1 UNK         0.0000 
     44 H44         0.8927   52.2046   26.7014 H         1 UNK         0.0000 
     45 H45        -1.6191   50.5458   28.6477 H         1 UNK         0.0000 
     46 H46        -2.8827   49.6584   26.8600 H         1 UNK         0.0000 
     47 H47        -3.3548   50.7716   25.5648 H         1 UNK         0.0000 
     48 H48        -3.9538   51.0235   27.2163 H         1 UNK         0.0000 
@<TRIPOS>BOND
     1    1    2 1    
     2    1   29 1    
     3    1   30 1    
     4    1   31 1    
     5    2    6 ar   
     6    2    3 ar   
     7    3    4 ar   
     8    3   16 1    
     9    4    5 ar   
    10    5    6 ar   
    11    6    7 1    
    12    7   11 1    
    13    7    8 2    
    14    8    9 1    
    15    9   15 1    
    16    9   10 2    
    17   10   11 1    
    18   10   12 1    
    19   12   13 1    
    20   12   32 1    
    21   12   33 1    
    22   13   14 1    
    23   13   34 1    
    24   13   35 1    
    25   14   15 1    
    26   14   36 1    
    27   14   37 1    
    28   15   38 1    
    29   15   39 1    
    30   16   17 2    
    31   16   18 am   BACKBONE|DICT|INTERRES
    32   18   19 1    
    33   18   40 1    
    34   19   24 ar   
    35   19   20 ar   
    36   20   21 ar   
    37   20   41 1    
    38   21   22 ar   
    39   21   42 1    
    40   22   23 ar   
    41   22   43 1    
    42   23   24 ar   
    43   23   25 1    
    44   24   44 1    
    45   25   26 am   BACKBONE|DICT|INTERRES
    46   25   45 1    
    47   26   27 2    
    48   26   28 1    
    49   28   46 1    
    50   28   47 1    
    51   28   48 1    
@<TRIPOS>SUBSTRUCTURE
     1 UNK         1 GROUP             0       ****    0 ROOT    
