@<TRIPOS>MOLECULE
ZINC13499785_3214
60   64    1
SMALL
USER_CHARGES


@<TRIPOS>ATOM
      1 C1          5.6451   54.2104   18.8328 C.3       1 UNK         0.0000 
      2 C2          4.4241   53.4480   19.3868 C.3       1 UNK         0.0000 
      3 C3          4.2185   53.5038   20.9029 C.ar      1 UNK         0.0000 
      4 N4          5.2504   54.0035   21.6529 N.2       1 UNK         0.0000 
      5 C5          5.0657   54.0966   22.9724 C.ar      1 UNK         0.0000 
      6 C6          3.8718   53.7602   23.6463 C.ar      1 UNK         0.0000 
      7 C7          3.9075   53.9478   25.0572 C.2       1 UNK         0.0000 
      8 C8          5.1797   54.3753   25.4499 C.2       1 UNK         0.0000 
      9 S9          6.2886   54.6346   24.1084 S.3       1 UNK         0.0000 
     10 C10         5.5927   54.6278   26.8943 C.3       1 UNK         0.0000 
     11 C11         4.5782   53.9494   27.8482 C.3       1 UNK         0.0000 
     12 H12         4.7806   52.8760   27.8417 H         1 UNK         0.0000 
     13 C13         3.1238   54.2286   27.4150 C.3       1 UNK         0.0000 
     14 C14         2.7837   53.6276   26.0399 C.3       1 UNK         0.0000 
     15 C15         4.8041   54.4507   29.2842 C.3       1 UNK         0.0000 
     16 C16         2.8315   53.2461   22.8348 C.ar      1 UNK         0.0000 
     17 N17         3.0231   53.0812   21.4612 N.pl3     1 UNK         0.0000 
     18 C18         1.8358   52.4955   21.0296 C.ar      1 UNK         0.0000 
     19 N19         1.0001   52.3828   22.0450 N.2       1 UNK         0.0000 
     20 N20         1.6034   52.8301   23.2057 N.2       1 UNK         0.0000 
     21 S21         1.4122   51.9721   19.3983 S.3       1 UNK         0.0000 
     22 C22         2.5121   50.5215   19.2699 C.3       1 UNK         0.0000 
     23 C23         1.7658   49.1808   19.2267 C.2       1 UNK         0.0000 
     24 O24         1.1273   48.8079   20.2108 O.2       1 UNK         0.0000 
     25 N25         1.9045   48.4814   18.0818 N.am      1 UNK         0.0000 
     26 C26         1.4763   47.1845   17.7455 C.ar      1 UNK         0.0000 
     27 C27         1.9954   46.6776   16.5526 C.ar      1 UNK         0.0000 
     28 C28         1.6829   45.3858   16.1405 C.ar      1 UNK         0.0000 
     29 C29         0.8568   44.5820   16.9263 C.ar      1 UNK         0.0000 
     30 C30         0.3057   45.0950   18.1099 C.ar      1 UNK         0.0000 
     31 C31         0.6124   46.3931   18.5178 C.ar      1 UNK         0.0000 
     32 N32         0.6162   43.2841   16.4446 N.am      1 UNK         0.0000 
     33 C33         0.2766   42.1746   17.1319 C.2       1 UNK         0.0000 
     34 O34         0.1331   42.0968   18.3538 O.2       1 UNK         0.0000 
     35 C35         0.0890   40.9240   16.2803 C.3       1 UNK         0.0000 
     36 H36         5.6895   54.1331   17.7466 H         1 UNK         0.0000 
     37 H37         5.5962   55.2703   19.0854 H         1 UNK         0.0000 
     38 H38         6.5800   53.8126   19.2263 H         1 UNK         0.0000 
     39 H39         4.5061   52.4044   19.0901 H         1 UNK         0.0000 
     40 H40         3.5326   53.8505   18.9062 H         1 UNK         0.0000 
     41 H41         6.5951   54.2403   27.0824 H         1 UNK         0.0000 
     42 H42         5.6250   55.6966   27.0800 H         1 UNK         0.0000 
     43 H43         2.4322   53.8291   28.1598 H         1 UNK         0.0000 
     44 H44         2.9337   55.3000   27.4236 H         1 UNK         0.0000 
     45 H45         1.8281   54.0259   25.6955 H         1 UNK         0.0000 
     46 H46         2.6558   52.5475   26.1224 H         1 UNK         0.0000 
     47 H47         4.4093   55.4558   29.4217 H         1 UNK         0.0000 
     48 H48         4.3047   53.8071   30.0107 H         1 UNK         0.0000 
     49 H49         5.8651   54.4972   29.5281 H         1 UNK         0.0000 
     50 H50         3.2254   50.4890   20.0929 H         1 UNK         0.0000 
     51 H51         3.1042   50.6454   18.3621 H         1 UNK         0.0000 
     52 H52         2.5521   48.8881   17.4073 H         1 UNK         0.0000 
     53 H53         2.6651   47.2782   15.9512 H         1 UNK         0.0000 
     54 H54         2.1102   45.0117   15.2215 H         1 UNK         0.0000 
     55 H55        -0.3600   44.5034   18.7206 H         1 UNK         0.0000 
     56 H56         0.1773   46.7579   19.4349 H         1 UNK         0.0000 
     57 H57         0.7945   43.1600   15.4596 H         1 UNK         0.0000 
     58 H58        -0.8953   40.9334   15.8136 H         1 UNK         0.0000 
     59 H59         0.1762   40.0206   16.8841 H         1 UNK         0.0000 
     60 H60         0.8422   40.8703   15.4924 H         1 UNK         0.0000 
@<TRIPOS>BOND
     1    1    2 1    
     2    1   36 1    
     3    1   37 1    
     4    1   38 1    
     5    2    3 1    
     6    2   39 1    
     7    2   40 1    
     8    3   17 ar   
     9    3    4 ar   
    10    4    5 ar   
    11    5    9 1    
    12    5    6 ar   
    13    6    7 1    
    14    6   16 ar   
    15    7   14 1    
    16    7    8 2    
    17    8    9 1    
    18    8   10 1    
    19   10   11 1    
    20   10   41 1    
    21   10   42 1    
    22   11   12 1    
    23   11   13 1    
    24   11   15 1    
    25   13   14 1    
    26   13   43 1    
    27   13   44 1    
    28   14   45 1    
    29   14   46 1    
    30   15   47 1    
    31   15   48 1    
    32   15   49 1    
    33   16   20 ar   
    34   16   17 ar   
    35   17   18 ar   
    36   18   19 ar   
    37   18   21 1    
    38   19   20 ar   
    39   21   22 1    
    40   22   23 1    
    41   22   50 1    
    42   22   51 1    
    43   23   24 2    
    44   23   25 am   BACKBONE|DICT|INTERRES
    45   25   26 1    
    46   25   52 1    
    47   26   31 ar   
    48   26   27 ar   
    49   27   28 ar   
    50   27   53 1    
    51   28   29 ar   
    52   28   54 1    
    53   29   30 ar   
    54   29   32 1    
    55   30   31 ar   
    56   30   55 1    
    57   31   56 1    
    58   32   33 am   BACKBONE|DICT|INTERRES
    59   32   57 1    
    60   33   34 2    
    61   33   35 1    
    62   35   58 1    
    63   35   59 1    
    64   35   60 1    
@<TRIPOS>SUBSTRUCTURE
     1 UNK         1 GROUP             0       ****    0 ROOT    
