@<TRIPOS>MOLECULE
ZINC39608845_1240
70   74    1
SMALL
USER_CHARGES


@<TRIPOS>ATOM
      1 C1          0.4234   54.3784   30.9995 C.ar      1 UNK         0.0000 
      2 C2          1.1047   55.1507   30.0630 C.ar      1 UNK         0.0000 
      3 C3          1.3721   54.6229   28.8034 C.ar      1 UNK         0.0000 
      4 C4          0.9591   53.3193   28.4868 C.ar      1 UNK         0.0000 
      5 C5          0.2883   52.5512   29.4395 C.ar      1 UNK         0.0000 
      6 C6          0.0240   53.0802   30.6962 C.ar      1 UNK         0.0000 
      7 C7          1.2332   52.7010   27.1254 C.3       1 UNK         0.0000 
      8 O8          1.8935   53.6214   26.2630 O.3       1 UNK         0.0000 
      9 C9          2.2832   53.0860   25.0068 C.3       1 UNK         0.0000 
     10 H10         2.7046   52.0993   25.1662 H         1 UNK         0.0000 
     11 C11         3.3337   54.0356   24.4032 C.3       1 UNK         0.0000 
     12 C12         3.0297   54.0606   22.9098 C.3       1 UNK         0.0000 
     13 C13         1.5064   53.9869   22.8818 C.3       1 UNK         0.0000 
     14 C14         1.1027   53.0190   24.0039 C.3       1 UNK         0.0000 
     15 H15         0.1670   53.3527   24.4645 H         1 UNK         0.0000 
     16 N16         0.9075   51.6607   23.4772 N.am      1 UNK         0.0000 
     17 C17        -0.0963   51.2903   22.6616 C.2       1 UNK         0.0000 
     18 O18        -1.0410   52.0378   22.3958 O.2       1 UNK         0.0000 
     19 C19        -0.0186   49.8506   22.0955 C.3       1 UNK         0.0000 
     20 H20         0.5376   49.2252   22.7951 H         1 UNK         0.0000 
     21 C21        -1.4436   49.2830   21.9538 C.3       1 UNK         0.0000 
     22 N22        -1.3097   48.2725   20.9041 N.am      1 UNK         0.0000 
     23 C23        -0.0575   48.4235   20.1566 C.3       1 UNK         0.0000 
     24 C24         0.5897   49.7372   20.6624 C.3       1 UNK         0.0000 
     25 C25         2.1352   49.6894   20.6904 C.3       1 UNK         0.0000 
     26 C26         2.6874   49.3351   19.2987 C.3       1 UNK         0.0000 
     27 N27         2.3039   50.4598   18.3211 N.4       1 UNK         0.0000 
     28 C28         0.7832   50.7424   18.2714 C.3       1 UNK         0.0000 
     29 C29         0.2491   50.9369   19.7153 C.3       1 UNK         0.0000 
     30 C30        -2.2928   47.3636   20.6678 C.2       1 UNK         0.0000 
     31 O31        -3.3521   47.3713   21.3022 O.2       1 UNK         0.0000 
     32 C32        -2.1188   46.3196   19.5868 C.ar      1 UNK         0.0000 
     33 C33        -3.1958   46.0201   18.7384 C.ar      1 UNK         0.0000 
     34 C34        -3.0829   45.0290   17.7616 C.ar      1 UNK         0.0000 
     35 C35        -1.8977   44.3039   17.6292 C.ar      1 UNK         0.0000 
     36 C36        -0.8168   44.5803   18.4753 C.ar      1 UNK         0.0000 
     37 C37        -0.9355   45.5773   19.4445 C.ar      1 UNK         0.0000 
     38 Cl38        0.6672   43.6990   18.3666 Cl        1 UNK         0.0000 
     39 Cl39       -1.8047   43.0647   16.4252 Cl        1 UNK         0.0000 
     40 H40         0.2177   54.7790   31.9804 H         1 UNK         0.0000 
     41 H41         1.4162   56.1549   30.3106 H         1 UNK         0.0000 
     42 H42         1.8972   55.2291   28.0806 H         1 UNK         0.0000 
     43 H43        -0.0298   51.5421   29.2082 H         1 UNK         0.0000 
     44 H44        -0.4945   52.4865   31.4332 H         1 UNK         0.0000 
     45 H45         0.2853   52.3841   26.6831 H         1 UNK         0.0000 
     46 H46         1.8544   51.8161   27.2802 H         1 UNK         0.0000 
     47 H47         3.2515   55.0358   24.8298 H         1 UNK         0.0000 
     48 H48         4.3518   53.6891   24.5885 H         1 UNK         0.0000 
     49 H49         3.4131   54.9504   22.4113 H         1 UNK         0.0000 
     50 H50         3.4601   53.1909   22.4119 H         1 UNK         0.0000 
     51 H51         1.1154   53.7008   21.9063 H         1 UNK         0.0000 
     52 H52         1.1049   54.9738   23.1019 H         1 UNK         0.0000 
     53 H53         1.6152   50.9785   23.7074 H         1 UNK         0.0000 
     54 H54        -2.1360   50.0270   21.5571 H         1 UNK         0.0000 
     55 H55        -1.8158   48.8810   22.8984 H         1 UNK         0.0000 
     56 H56         0.6033   47.6255   20.4858 H         1 UNK         0.0000 
     57 H57        -0.1434   48.3576   19.0741 H         1 UNK         0.0000 
     58 H58         2.5621   50.6122   21.0850 H         1 UNK         0.0000 
     59 H59         2.4645   48.9053   21.3727 H         1 UNK         0.0000 
     60 H60         3.7725   49.2967   19.2810 H         1 UNK         0.0000 
     61 H61         2.3115   48.3996   18.8837 H         1 UNK         0.0000 
     62 H62         2.8033   51.2983   18.5901 H         1 UNK         0.0000 
     63 H63         0.6594   51.6409   17.6657 H         1 UNK         0.0000 
     64 H64         0.3297   49.9072   17.7366 H         1 UNK         0.0000 
     65 H65        -0.8348   51.0530   19.6624 H         1 UNK         0.0000 
     66 H66         0.6161   51.8853   20.1160 H         1 UNK         0.0000 
     67 H67        -4.1305   46.5577   18.8308 H         1 UNK         0.0000 
     68 H68        -3.9227   44.8189   17.1135 H         1 UNK         0.0000 
     69 H69        -0.0955   45.7381   20.0980 H         1 UNK         0.0000 
     70 H70         2.6728   50.2082   17.4055 H         1 UNK         0.0000 
@<TRIPOS>BOND
     1    1    6 ar   
     2    1    2 ar   
     3    1   40 1    
     4    2    3 ar   
     5    2   41 1    
     6    3    4 ar   
     7    3   42 1    
     8    4    5 ar   
     9    4    7 1    
    10    5    6 ar   
    11    5   43 1    
    12    6   44 1    
    13    7    8 1    
    14    7   45 1    
    15    7   46 1    
    16    8    9 1    
    17    9   10 1    
    18    9   14 1    
    19    9   11 1    
    20   11   12 1    
    21   11   47 1    
    22   11   48 1    
    23   12   13 1    
    24   12   49 1    
    25   12   50 1    
    26   13   14 1    
    27   13   51 1    
    28   13   52 1    
    29   14   15 1    
    30   14   16 1    
    31   16   17 am   BACKBONE|DICT|INTERRES
    32   16   53 1    
    33   17   18 2    
    34   17   19 1    
    35   19   20 1    
    36   19   24 1    
    37   19   21 1    
    38   21   22 1    
    39   21   54 1    
    40   21   55 1    
    41   22   23 1    
    42   22   30 am   BACKBONE|DICT|INTERRES
    43   23   24 1    
    44   23   56 1    
    45   23   57 1    
    46   24   29 1    
    47   24   25 1    
    48   25   26 1    
    49   25   58 1    
    50   25   59 1    
    51   26   27 1    
    52   26   60 1    
    53   26   61 1    
    54   27   28 1    
    55   27   62 1    
    56   27   70 1    
    57   28   29 1    
    58   28   63 1    
    59   28   64 1    
    60   29   65 1    
    61   29   66 1    
    62   30   31 2    
    63   30   32 1    
    64   32   37 ar   
    65   32   33 ar   
    66   33   34 ar   
    67   33   67 1    
    68   34   35 ar   
    69   34   68 1    
    70   35   36 ar   
    71   35   39 1    
    72   36   37 ar   
    73   36   38 1    
    74   37   69 1    
@<TRIPOS>SUBSTRUCTURE
     1 UNK         1 GROUP             0       ****    0 ROOT    
