@<TRIPOS>MOLECULE
ZINC33250887_5593
70   73    1
SMALL
USER_CHARGES


@<TRIPOS>ATOM
      1 C1          3.9120   54.0900   22.2974 C.3       1 UNK         0.0000 
      2 C2          4.6663   54.1698   23.6118 C.ar      1 UNK         0.0000 
      3 C3          6.0529   54.3267   23.6254 C.ar      1 UNK         0.0000 
      4 C4          6.7330   54.4104   24.8390 C.ar      1 UNK         0.0000 
      5 C5          6.0497   54.3284   26.0531 C.ar      1 UNK         0.0000 
      6 C6          4.6529   54.1807   26.0396 C.ar      1 UNK         0.0000 
      7 C7          3.9700   54.1133   24.8205 C.ar      1 UNK         0.0000 
      8 C8          3.8765   54.0931   27.2769 C.2       1 UNK         0.0000 
      9 C9          3.9486   53.0447   28.1130 C.2       1 UNK         0.0000 
     10 C10         3.2495   52.8202   29.3548 C.2       1 UNK         0.0000 
     11 C11         1.9645   53.0254   29.8349 C.2       1 UNK         0.0000 
     12 C12         1.9673   52.4968   31.1237 C.2       1 UNK         0.0000 
     13 N13         3.1663   52.0960   31.4700 N.2       1 UNK         0.0000 
     14 O14         3.9654   52.2355   30.3439 O.3       1 UNK         0.0000 
     15 C15         0.8329   52.3632   32.1111 C.3       1 UNK         0.0000 
     16 S16         0.5619   53.8124   29.0285 S.o2      1 UNK         0.0000 
     17 O17        -0.4169   54.0968   30.0802 O.2       1 UNK         0.0000 
     18 O18         1.0999   54.8816   28.1843 O.2       1 UNK         0.0000 
     19 N19        -0.0880   52.5335   27.9953 N.pl3     1 UNK         0.0000 
     20 C20         0.7155   51.9509   26.8944 C.3       1 UNK         0.0000 
     21 C21        -0.2100   51.5108   25.7235 C.3       1 UNK         0.0000 
     22 C22        -1.4959   50.7470   26.1688 C.3       1 UNK         0.0000 
     23 C23        -2.1713   51.5096   27.3418 C.3       1 UNK         0.0000 
     24 H24        -2.4662   52.4926   26.9675 H         1 UNK         0.0000 
     25 C25        -1.1619   51.6581   28.5035 C.3       1 UNK         0.0000 
     26 C26        -3.5451   50.9181   27.7405 C.2       1 UNK         0.0000 
     27 O27        -4.4472   50.9088   26.8986 O.2       1 UNK         0.0000 
     28 N28        -3.7056   50.4614   29.0011 N.am      1 UNK         0.0000 
     29 C29        -4.9114   50.0240   29.5771 C.ar      1 UNK         0.0000 
     30 C30        -4.8973   48.7588   30.1710 C.ar      1 UNK         0.0000 
     31 C31        -6.0370   48.2618   30.8075 C.ar      1 UNK         0.0000 
     32 C32        -7.1920   49.0394   30.8584 C.ar      1 UNK         0.0000 
     33 C33        -7.2103   50.3076   30.2835 C.ar      1 UNK         0.0000 
     34 C34        -6.0716   50.8246   29.6400 C.ar      1 UNK         0.0000 
     35 O35        -6.0322   52.0974   29.0990 O.3       1 UNK         0.0000 
     36 C36        -7.1807   52.9308   29.1612 C.3       1 UNK         0.0000 
     37 C37        -6.0212   46.8949   31.4621 C.3       1 UNK         0.0000 
     38 C38         6.8296   54.4101   27.3626 C.3       1 UNK         0.0000 
     39 H39         4.5585   54.2721   21.4370 H         1 UNK         0.0000 
     40 H40         3.1154   54.8347   22.2757 H         1 UNK         0.0000 
     41 H41         3.4466   53.1102   22.1836 H         1 UNK         0.0000 
     42 H42         6.6095   54.3837   22.7015 H         1 UNK         0.0000 
     43 H43         7.8045   54.5225   24.8310 H         1 UNK         0.0000 
     44 H44         2.8945   54.0007   24.8092 H         1 UNK         0.0000 
     45 H45         3.2589   54.9465   27.4894 H         1 UNK         0.0000 
     46 H46         4.6276   52.2441   27.8658 H         1 UNK         0.0000 
     47 H47         0.6328   53.3004   32.6276 H         1 UNK         0.0000 
     48 H48        -0.0951   52.0677   31.6222 H         1 UNK         0.0000 
     49 H49         1.0206   51.6155   32.8812 H         1 UNK         0.0000 
     50 H50         1.4753   52.6627   26.5708 H         1 UNK         0.0000 
     51 H51         1.2148   51.0623   27.2828 H         1 UNK         0.0000 
     52 H52        -0.5057   52.4017   25.1681 H         1 UNK         0.0000 
     53 H53         0.3564   50.9015   25.0176 H         1 UNK         0.0000 
     54 H54        -2.1465   50.6935   25.2949 H         1 UNK         0.0000 
     55 H55        -1.1775   49.7492   26.4789 H         1 UNK         0.0000 
     56 H56        -0.6990   50.7015   28.7472 H         1 UNK         0.0000 
     57 H57        -1.5984   52.0910   29.4037 H         1 UNK         0.0000 
     58 H58        -2.8654   50.1860   29.4961 H         1 UNK         0.0000 
     59 H59        -3.9978   48.1594   30.1368 H         1 UNK         0.0000 
     60 H60        -8.0771   48.6649   31.3514 H         1 UNK         0.0000 
     61 H61        -8.1210   50.8802   30.3604 H         1 UNK         0.0000 
     62 H62        -6.9696   53.8628   28.6386 H         1 UNK         0.0000 
     63 H63        -8.0435   52.4758   28.6787 H         1 UNK         0.0000 
     64 H64        -7.4306   53.1769   30.1938 H         1 UNK         0.0000 
     65 H65        -6.4183   46.9594   32.4775 H         1 UNK         0.0000 
     66 H66        -6.6488   46.1964   30.9052 H         1 UNK         0.0000 
     67 H67        -5.0080   46.4977   31.5333 H         1 UNK         0.0000 
     68 H68         6.3076   55.0381   28.0847 H         1 UNK         0.0000 
     69 H69         6.9439   53.4182   27.7991 H         1 UNK         0.0000 
     70 H70         7.8148   54.8528   27.2418 H         1 UNK         0.0000 
@<TRIPOS>BOND
     1    1    2 1    
     2    1   39 1    
     3    1   40 1    
     4    1   41 1    
     5    2    7 ar   
     6    2    3 ar   
     7    3    4 ar   
     8    3   42 1    
     9    4    5 ar   
    10    4   43 1    
    11    5    6 ar   
    12    5   38 1    
    13    6    7 ar   
    14    6    8 1    
    15    7   44 1    
    16    8    9 2    
    17    8   45 1    
    18    9   10 1    
    19    9   46 1    
    20   10   14 1    
    21   10   11 2    
    22   11   12 1    
    23   11   16 1    
    24   12   13 2    
    25   12   15 1    
    26   13   14 1    
    27   15   47 1    
    28   15   48 1    
    29   15   49 1    
    30   16   17 2    
    31   16   18 2    
    32   16   19 1    
    33   19   25 1    
    34   19   20 1    
    35   20   21 1    
    36   20   50 1    
    37   20   51 1    
    38   21   22 1    
    39   21   52 1    
    40   21   53 1    
    41   22   23 1    
    42   22   54 1    
    43   22   55 1    
    44   23   24 1    
    45   23   25 1    
    46   23   26 1    
    47   25   56 1    
    48   25   57 1    
    49   26   27 2    
    50   26   28 am   BACKBONE|DICT|INTERRES
    51   28   29 1    
    52   28   58 1    
    53   29   34 ar   
    54   29   30 ar   
    55   30   31 ar   
    56   30   59 1    
    57   31   32 ar   
    58   31   37 1    
    59   32   33 ar   
    60   32   60 1    
    61   33   34 ar   
    62   33   61 1    
    63   34   35 1    
    64   35   36 1    
    65   36   62 1    
    66   36   63 1    
    67   36   64 1    
    68   37   65 1    
    69   37   66 1    
    70   37   67 1    
    71   38   68 1    
    72   38   69 1    
    73   38   70 1    
@<TRIPOS>SUBSTRUCTURE
     1 UNK         1 GROUP             0       ****    0 ROOT    
