@<TRIPOS>MOLECULE
ZINC05353953_3849
45   48    1
SMALL
USER_CHARGES


@<TRIPOS>ATOM
      1 C1          4.7949   53.5759   21.2855 C.ar      1 UNK         0.0000 
      2 C2          5.1426   54.0159   22.5749 C.ar      1 UNK         0.0000 
      3 C3          4.1764   53.9641   23.6215 C.ar      1 UNK         0.0000 
      4 C4          2.8946   53.4298   23.3564 C.ar      1 UNK         0.0000 
      5 C5          2.6163   52.9672   22.0793 C.ar      1 UNK         0.0000 
      6 C6          3.5333   53.0405   21.0799 C.ar      1 UNK         0.0000 
      7 O7          3.0185   52.4978   19.9478 O.3       1 UNK         0.0000 
      8 C8          1.7103   52.0970   20.2604 C.3       1 UNK         0.0000 
      9 O9          1.4789   52.3871   21.6159 O.3       1 UNK         0.0000 
     10 C10         4.5835   54.4372   24.9529 C.2       1 UNK         0.0000 
     11 C11         3.8179   54.1768   26.0845 C.2       1 UNK         0.0000 
     12 C12         4.2253   53.8473   27.3426 C.2       1 UNK         0.0000 
     13 S13         5.8023   53.6966   28.0819 S.3       1 UNK         0.0000 
     14 N14         3.3451   53.5279   28.3535 N.pl3     1 UNK         0.0000 
     15 C15         1.8845   53.4777   28.3134 C.3       1 UNK         0.0000 
     16 C16         1.3717   52.3804   29.2788 C.3       1 UNK         0.0000 
     17 C17         1.2626   52.8304   30.7483 C.3       1 UNK         0.0000 
     18 C18         0.5372   54.1783   30.8873 C.3       1 UNK         0.0000 
     19 C19         1.2383   55.2746   30.0728 C.3       1 UNK         0.0000 
     20 C20         1.3304   54.8973   28.5801 C.3       1 UNK         0.0000 
     21 N21         5.7026   55.1285   25.1175 N.pl3     1 UNK         0.0000 
     22 C22         6.6688   55.4783   24.0452 C.3       1 UNK         0.0000 
     23 C23         6.5773   54.4627   22.8809 C.3       1 UNK         0.0000 
     24 H24         5.5052   53.6069   20.4736 H         1 UNK         0.0000 
     25 H25         2.1365   53.3445   24.1183 H         1 UNK         0.0000 
     26 H26         1.6157   51.0229   20.0889 H         1 UNK         0.0000 
     27 H27         1.0154   52.6707   19.6455 H         1 UNK         0.0000 
     28 H28         2.7578   54.2103   25.9092 H         1 UNK         0.0000 
     29 H29         3.7299   53.4336   29.2804 H         1 UNK         0.0000 
     30 H30         1.6474   53.1585   27.2987 H         1 UNK         0.0000 
     31 H31         0.3476   52.1477   28.9859 H         1 UNK         0.0000 
     32 H32         1.9423   51.4563   29.1844 H         1 UNK         0.0000 
     33 H33         0.7344   52.0774   31.3341 H         1 UNK         0.0000 
     34 H34         2.2612   52.8962   31.1794 H         1 UNK         0.0000 
     35 H35        -0.4934   54.0707   30.5475 H         1 UNK         0.0000 
     36 H36         0.4822   54.4683   31.9377 H         1 UNK         0.0000 
     37 H37         0.7063   56.2201   30.1845 H         1 UNK         0.0000 
     38 H38         2.2409   55.4476   30.4659 H         1 UNK         0.0000 
     39 H39         1.8688   55.6640   28.0222 H         1 UNK         0.0000 
     40 H40         0.3040   54.8988   28.2202 H         1 UNK         0.0000 
     41 H41         5.8976   55.4527   26.0607 H         1 UNK         0.0000 
     42 H42         6.4361   56.4964   23.7471 H         1 UNK         0.0000 
     43 H43         7.6530   55.4631   24.5054 H         1 UNK         0.0000 
     44 H44         7.1447   53.5743   23.1617 H         1 UNK         0.0000 
     45 H45         7.0658   54.8693   21.9950 H         1 UNK         0.0000 
@<TRIPOS>BOND
     1    1    6 ar   
     2    1    2 ar   
     3    1   24 1    
     4    2   23 1    
     5    2    3 ar   
     6    3    4 ar   
     7    3   10 1    
     8    4    5 ar   
     9    4   25 1    
    10    5    9 1    
    11    5    6 ar   
    12    6    7 1    
    13    7    8 1    
    14    8    9 1    
    15    8   26 1    
    16    8   27 1    
    17   10   11 1    
    18   10   21 2    
    19   11   12 2    
    20   11   28 1    
    21   12   13 1    
    22   12   14 1    
    23   14   15 1    
    24   14   29 1    
    25   15   20 1    
    26   15   16 1    
    27   15   30 1    
    28   16   17 1    
    29   16   31 1    
    30   16   32 1    
    31   17   18 1    
    32   17   33 1    
    33   17   34 1    
    34   18   19 1    
    35   18   35 1    
    36   18   36 1    
    37   19   20 1    
    38   19   37 1    
    39   19   38 1    
    40   20   39 1    
    41   20   40 1    
    42   21   22 1    
    43   21   41 1    
    44   22   23 1    
    45   22   42 1    
    46   22   43 1    
    47   23   44 1    
    48   23   45 1    
@<TRIPOS>SUBSTRUCTURE
     1 UNK         1 GROUP             0       ****    0 ROOT    
