@<TRIPOS>MOLECULE
ZINC02891196_2541
44   45    1
SMALL
USER_CHARGES


@<TRIPOS>ATOM
      1 C1         -2.8782   50.1717   25.2948 C.3       1 UNK         0.0000 
      2 C2         -1.5326   50.8642   25.4589 C.ar      1 UNK         0.0000 
      3 C3         -0.9723   50.9271   26.7335 C.ar      1 UNK         0.0000 
      4 C4          0.2713   51.5114   26.9205 C.ar      1 UNK         0.0000 
      5 C5          0.9670   52.0251   25.8315 C.ar      1 UNK         0.0000 
      6 C6          0.4534   51.9574   24.5191 C.ar      1 UNK         0.0000 
      7 C7         -0.8369   51.3943   24.3547 C.ar      1 UNK         0.0000 
      8 O8         -1.4332   51.3392   23.1172 O.3       1 UNK         0.0000 
      9 C9         -2.3598   52.3897   22.8718 C.3       1 UNK         0.0000 
     10 C10         1.2740   52.4657   23.3304 C.2       1 UNK         0.0000 
     11 O11         0.7997   52.4992   22.1937 O.2       1 UNK         0.0000 
     12 N12         2.5230   52.8985   23.6390 N.am      1 UNK         0.0000 
     13 C13         3.5719   53.3989   22.9052 C.2       1 UNK         0.0000 
     14 S14         3.8586   53.2045   21.2754 S.2       1 UNK         0.0000 
     15 N15         4.5249   54.0958   23.5955 N.pl3     1 UNK         0.0000 
     16 C16         4.6874   54.2829   24.9860 C.ar      1 UNK         0.0000 
     17 C17         3.5902   54.4967   25.8301 C.ar      1 UNK         0.0000 
     18 C18         3.7404   54.5768   27.2127 C.ar      1 UNK         0.0000 
     19 C19         5.0225   54.4769   27.7668 C.ar      1 UNK         0.0000 
     20 C20         6.1316   54.3324   26.9287 C.ar      1 UNK         0.0000 
     21 C21         5.9738   54.2434   25.5466 C.ar      1 UNK         0.0000 
     22 O22         7.1025   54.1005   24.7800 O.3       1 UNK         0.0000 
     23 C23         5.2295   54.5387   29.2659 C.3       1 UNK         0.0000 
     24 C24         2.5081   54.7956   28.0821 C.3       1 UNK         0.0000 
     25 Br25        1.0421   51.5696   28.6602 Br        1 UNK         0.0000 
     26 H26        -3.6966   50.8838   25.4026 H         1 UNK         0.0000 
     27 H27        -2.9570   49.6842   24.3221 H         1 UNK         0.0000 
     28 H28        -3.0021   49.3848   26.0408 H         1 UNK         0.0000 
     29 H29        -1.4934   50.5064   27.5832 H         1 UNK         0.0000 
     30 H30         1.9395   52.4338   26.0482 H         1 UNK         0.0000 
     31 H31        -2.4943   52.4943   21.7961 H         1 UNK         0.0000 
     32 H32        -3.3326   52.1643   23.3072 H         1 UNK         0.0000 
     33 H33        -2.0231   53.3523   23.2643 H         1 UNK         0.0000 
     34 H34         2.7365   52.8107   24.6189 H         1 UNK         0.0000 
     35 H35         5.2883   54.4358   23.0303 H         1 UNK         0.0000 
     36 H36         2.6024   54.6017   25.4147 H         1 UNK         0.0000 
     37 H37         7.1239   54.2755   27.3523 H         1 UNK         0.0000 
     38 H38         6.9420   54.0266   23.8378 H         1 UNK         0.0000 
     39 H39         4.7044   53.7104   29.7429 H         1 UNK         0.0000 
     40 H40         6.2884   54.4968   29.5161 H         1 UNK         0.0000 
     41 H41         4.8257   55.4607   29.6793 H         1 UNK         0.0000 
     42 H42         2.4949   55.8118   28.4777 H         1 UNK         0.0000 
     43 H43         1.5797   54.6156   27.5384 H         1 UNK         0.0000 
     44 H44         2.5111   54.1123   28.9309 H         1 UNK         0.0000 
@<TRIPOS>BOND
     1    1    2 1    
     2    1   26 1    
     3    1   27 1    
     4    1   28 1    
     5    2    7 ar   
     6    2    3 ar   
     7    3    4 ar   
     8    3   29 1    
     9    4    5 ar   
    10    4   25 1    
    11    5    6 ar   
    12    5   30 1    
    13    6    7 ar   
    14    6   10 1    
    15    7    8 1    
    16    8    9 1    
    17    9   31 1    
    18    9   32 1    
    19    9   33 1    
    20   10   11 2    
    21   10   12 am   BACKBONE|DICT|INTERRES
    22   12   13 am   BACKBONE|DICT|INTERRES
    23   12   34 1    
    24   13   14 2    
    25   13   15 1    
    26   15   16 1    
    27   15   35 1    
    28   16   21 ar   
    29   16   17 ar   
    30   17   18 ar   
    31   17   36 1    
    32   18   19 ar   
    33   18   24 1    
    34   19   20 ar   
    35   19   23 1    
    36   20   21 ar   
    37   20   37 1    
    38   21   22 1    
    39   22   38 1    
    40   23   39 1    
    41   23   40 1    
    42   23   41 1    
    43   24   42 1    
    44   24   43 1    
    45   24   44 1    
@<TRIPOS>SUBSTRUCTURE
     1 UNK         1 GROUP             0       ****    0 ROOT    
