@<TRIPOS>MOLECULE
ZINC09236853_2032
49   52    1
SMALL
USER_CHARGES


@<TRIPOS>ATOM
      1 C1          6.4262   54.0836   28.2978 C.3       1 UNK         0.0000 
      2 C2          5.2516   54.0809   27.3386 C.ar      1 UNK         0.0000 
      3 C3          5.4799   54.1929   25.9623 C.ar      1 UNK         0.0000 
      4 C4          4.4040   54.1837   25.0606 C.ar      1 UNK         0.0000 
      5 C5          3.1020   54.0923   25.5572 C.ar      1 UNK         0.0000 
      6 C6          2.8712   53.9801   26.9256 C.ar      1 UNK         0.0000 
      7 C7          3.9392   53.9692   27.8188 C.ar      1 UNK         0.0000 
      8 Br8         3.5680   53.7938   29.6817 Br        1 UNK         0.0000 
      9 N9          4.5257   54.2567   23.6629 N.am      1 UNK         0.0000 
     10 C10         5.5924   54.0056   22.8764 C.2       1 UNK         0.0000 
     11 O11         6.7044   53.6967   23.3060 O.2       1 UNK         0.0000 
     12 C12         5.3861   54.0786   21.3419 C.3       1 UNK         0.0000 
     13 H13         5.9023   53.2009   20.9689 H         1 UNK         0.0000 
     14 C14         3.9072   53.9989   20.8249 C.3       1 UNK         0.0000 
     15 H15         3.3872   54.8851   21.1876 H         1 UNK         0.0000 
     16 N16         3.9047   54.0308   19.3613 N.3       1 UNK         0.0000 
     17 N17         4.4918   55.1724   18.8278 N.pl3     1 UNK         0.0000 
     18 C18         4.1168   55.8332   17.6822 C.ar      1 UNK         0.0000 
     19 N19         4.8985   56.8624   17.4685 N.2       1 UNK         0.0000 
     20 N20         5.8261   56.8964   18.5045 N.2       1 UNK         0.0000 
     21 C21         5.5615   55.8931   19.3059 C.ar      1 UNK         0.0000 
     22 S22         6.3857   55.5291   20.8186 S.3       1 UNK         0.0000 
     23 C23         2.9537   55.4326   16.8027 C.3       1 UNK         0.0000 
     24 C24         3.1282   52.7716   21.3255 C.ar      1 UNK         0.0000 
     25 C25         3.4637   51.4867   20.8834 C.ar      1 UNK         0.0000 
     26 C26         2.7613   50.3815   21.3554 C.ar      1 UNK         0.0000 
     27 C27         1.7447   50.5295   22.2965 C.ar      1 UNK         0.0000 
     28 C28         1.3930   51.8180   22.7230 C.ar      1 UNK         0.0000 
     29 C29         2.0675   52.9295   22.2236 C.ar      1 UNK         0.0000 
     30 O30         1.1460   49.3669   22.7416 O.3       1 UNK         0.0000 
     31 C31         0.2648   49.4239   23.8587 C.3       1 UNK         0.0000 
     32 H32         7.3868   54.2016   27.7958 H         1 UNK         0.0000 
     33 H33         6.4423   53.1613   28.8754 H         1 UNK         0.0000 
     34 H34         6.3034   54.8966   29.0091 H         1 UNK         0.0000 
     35 H35         6.4957   54.2812   25.6106 H         1 UNK         0.0000 
     36 H36         2.2555   54.0913   24.8871 H         1 UNK         0.0000 
     37 H37         1.8593   53.8969   27.2946 H         1 UNK         0.0000 
     38 H38         3.6610   54.4231   23.1749 H         1 UNK         0.0000 
     39 H39         2.9371   54.0319   19.0655 H         1 UNK         0.0000 
     40 H40         2.8335   56.1034   15.9512 H         1 UNK         0.0000 
     41 H41         3.0800   54.4267   16.4020 H         1 UNK         0.0000 
     42 H42         2.0133   55.4480   17.3513 H         1 UNK         0.0000 
     43 H43         4.2627   51.3420   20.1672 H         1 UNK         0.0000 
     44 H44         3.0289   49.3924   21.0088 H         1 UNK         0.0000 
     45 H45         0.5965   51.9729   23.4355 H         1 UNK         0.0000 
     46 H46         1.7679   53.9166   22.5462 H         1 UNK         0.0000 
     47 H47        -0.0361   48.4124   24.1316 H         1 UNK         0.0000 
     48 H48         0.7511   49.8682   24.7294 H         1 UNK         0.0000 
     49 H49        -0.6405   49.9879   23.6271 H         1 UNK         0.0000 
@<TRIPOS>BOND
     1    1    2 1    
     2    1   32 1    
     3    1   33 1    
     4    1   34 1    
     5    2    7 ar   
     6    2    3 ar   
     7    3    4 ar   
     8    3   35 1    
     9    4    5 ar   
    10    4    9 1    
    11    5    6 ar   
    12    5   36 1    
    13    6    7 ar   
    14    6   37 1    
    15    7    8 1    
    16    9   10 am   BACKBONE|DICT|INTERRES
    17    9   38 1    
    18   10   11 2    
    19   10   12 1    
    20   12   13 1    
    21   12   22 1    
    22   12   14 1    
    23   14   15 1    
    24   14   16 1    
    25   14   24 1    
    26   16   17 1    
    27   16   39 1    
    28   17   21 ar   
    29   17   18 ar   
    30   18   19 ar   
    31   18   23 1    
    32   19   20 ar   
    33   20   21 ar   
    34   21   22 1    
    35   23   40 1    
    36   23   41 1    
    37   23   42 1    
    38   24   29 ar   
    39   24   25 ar   
    40   25   26 ar   
    41   25   43 1    
    42   26   27 ar   
    43   26   44 1    
    44   27   28 ar   
    45   27   30 1    
    46   28   29 ar   
    47   28   45 1    
    48   29   46 1    
    49   30   31 1    
    50   31   47 1    
    51   31   48 1    
    52   31   49 1    
@<TRIPOS>SUBSTRUCTURE
     1 UNK         1 GROUP             0       ****    0 ROOT    
