@<TRIPOS>MOLECULE
ZINC64428262_1312
55   59    1
SMALL
USER_CHARGES


@<TRIPOS>ATOM
      1 C1          6.5617   53.1145   15.6076 C.ar      1 UNK         0.0000 
      2 C2          6.1488   54.0085   14.6204 C.ar      1 UNK         0.0000 
      3 C3          5.3265   55.0839   14.9557 C.ar      1 UNK         0.0000 
      4 C4          4.9151   55.2676   16.2758 C.ar      1 UNK         0.0000 
      5 C5          5.3260   54.3746   17.2762 C.ar      1 UNK         0.0000 
      6 C6          6.1548   53.2971   16.9288 C.ar      1 UNK         0.0000 
      7 C7          4.8725   54.5813   18.7271 C.3       1 UNK         0.0000 
      8 H8          4.1073   55.3576   18.7145 H         1 UNK         0.0000 
      9 C9          4.2409   53.3254   19.3764 C.3       1 UNK         0.0000 
     10 O10         3.8149   53.6051   20.7105 O.3       1 UNK         0.0000 
     11 C11         4.8066   54.1009   21.5283 C.ar      1 UNK         0.0000 
     12 C12         4.6696   53.8261   22.8855 C.ar      1 UNK         0.0000 
     13 C13         5.6173   54.2741   23.8074 C.ar      1 UNK         0.0000 
     14 C14         6.7078   55.0142   23.3303 C.ar      1 UNK         0.0000 
     15 C15         6.8395   55.3064   21.9739 C.ar      1 UNK         0.0000 
     16 C16         5.8840   54.8636   21.0516 C.ar      1 UNK         0.0000 
     17 C17         6.0166   55.1529   19.5945 C.2       1 UNK         0.0000 
     18 O18         6.9722   55.7983   19.1581 O.2       1 UNK         0.0000 
     19 O19         5.4153   53.8885   25.1202 O.3       1 UNK         0.0000 
     20 C20         5.9818   54.4511   26.2207 C.2       1 UNK         0.0000 
     21 O21         6.7043   55.4528   26.2379 O.2       1 UNK         0.0000 
     22 C22         5.5855   53.6734   27.4783 C.3       1 UNK         0.0000 
     23 H23         5.4138   52.6296   27.2090 H         1 UNK         0.0000 
     24 C24         4.2840   54.2194   28.1389 C.3       1 UNK         0.0000 
     25 C25         2.9955   53.5841   27.6114 C.2       1 UNK         0.0000 
     26 C26         1.9674   53.0123   28.2743 C.2       1 UNK         0.0000 
     27 C27         1.7326   52.8198   29.7150 C.2       1 UNK         0.0000 
     28 C28         0.6069   52.2251   30.1606 C.2       1 UNK         0.0000 
     29 C29        -0.3507   51.7414   29.1766 C.2       1 UNK         0.0000 
     30 C30        -0.1569   51.9173   27.8437 C.2       1 UNK         0.0000 
     31 C31         0.9908   52.5701   27.3737 C.2       1 UNK         0.0000 
     32 N32         1.3339   52.8608   26.1446 N.pl3     1 UNK         0.0000 
     33 C33         2.6443   53.5255   26.1364 C.3       1 UNK         0.0000 
     34 N34         6.7108   53.6967   28.4327 N.3       1 UNK         0.0000 
     35 F35         4.1158   56.3169   16.5778 F         1 UNK         0.0000 
     36 H36         7.1942   52.2771   15.3515 H         1 UNK         0.0000 
     37 H37         6.4639   53.8669   13.5970 H         1 UNK         0.0000 
     38 H38         5.0049   55.7785   14.1942 H         1 UNK         0.0000 
     39 H39         6.4820   52.5886   17.6767 H         1 UNK         0.0000 
     40 H40         4.9521   52.4963   19.3920 H         1 UNK         0.0000 
     41 H41         3.3781   52.9921   18.7978 H         1 UNK         0.0000 
     42 H42         3.8224   53.2455   23.2153 H         1 UNK         0.0000 
     43 H43         7.4975   55.3509   23.9850 H         1 UNK         0.0000 
     44 H44         7.7066   55.8666   21.6494 H         1 UNK         0.0000 
     45 H45         4.2098   55.2973   28.0337 H         1 UNK         0.0000 
     46 H46         4.3126   54.0382   29.2135 H         1 UNK         0.0000 
     47 H47         2.4419   53.1607   30.4531 H         1 UNK         0.0000 
     48 H48         0.4142   52.0954   31.2185 H         1 UNK         0.0000 
     49 H49        -1.2282   51.2056   29.5179 H         1 UNK         0.0000 
     50 H50        -0.8961   51.5210   27.1613 H         1 UNK         0.0000 
     51 H51         3.3054   52.8966   25.5516 H         1 UNK         0.0000 
     52 H52         2.5539   54.4961   25.6495 H         1 UNK         0.0000 
     53 H53         6.9469   54.6402   28.7348 H         1 UNK         0.0000 
     54 H54         6.5181   53.1712   29.2725 H         1 UNK         0.0000 
     55 H55         0.7935   52.6405   25.3117 H         1 UNK         0.0000 
@<TRIPOS>BOND
     1    1    6 ar   
     2    1    2 ar   
     3    1   36 1    
     4    2    3 ar   
     5    2   37 1    
     6    3    4 ar   
     7    3   38 1    
     8    4    5 ar   
     9    4   35 1    
    10    5    6 ar   
    11    5    7 1    
    12    6   39 1    
    13    7    8 1    
    14    7   17 1    
    15    7    9 1    
    16    9   10 1    
    17    9   40 1    
    18    9   41 1    
    19   10   11 1    
    20   11   16 ar   
    21   11   12 ar   
    22   12   13 ar   
    23   12   42 1    
    24   13   14 ar   
    25   13   19 1    
    26   14   15 ar   
    27   14   43 1    
    28   15   16 ar   
    29   15   44 1    
    30   16   17 1    
    31   17   18 2    
    32   19   20 1    
    33   20   21 2    
    34   20   22 1    
    35   22   23 1    
    36   22   24 1    
    37   22   34 1    
    38   24   25 1    
    39   24   45 1    
    40   24   46 1    
    41   25   33 1    
    42   25   26 2    
    43   26   31 1    
    44   26   27 1    
    45   27   28 2    
    46   27   47 1    
    47   28   29 1    
    48   28   48 1    
    49   29   30 2    
    50   29   49 1    
    51   30   31 1    
    52   30   50 1    
    53   31   32 2    
    54   32   33 1    
    55   32   55 1    
    56   33   51 1    
    57   33   52 1    
    58   34   53 1    
    59   34   54 1    
@<TRIPOS>SUBSTRUCTURE
     1 UNK         1 GROUP             0       ****    0 ROOT    
