@<TRIPOS>MOLECULE
ZINC39836238_4245
55   58    1
SMALL
USER_CHARGES


@<TRIPOS>ATOM
      1 C1          2.5258   55.4874   29.2798 C.3       1 UNK         0.0000 
      2 C2          3.3767   54.2021   29.1988 C.3       1 UNK         0.0000 
      3 H3          3.7208   53.9916   30.2119 H         1 UNK         0.0000 
      4 C4          2.5797   52.9577   28.7569 C.3       1 UNK         0.0000 
      5 C5          1.9806   53.1368   27.3435 C.3       1 UNK         0.0000 
      6 C6          3.0538   53.6671   26.3740 C.2       1 UNK         0.0000 
      7 C7          4.2616   54.2071   26.8556 C.2       1 UNK         0.0000 
      8 S8          5.3230   54.6952   25.5856 S.3       1 UNK         0.0000 
      9 C9          4.1726   54.2096   24.3910 C.2       1 UNK         0.0000 
     10 C10         2.9830   53.6957   24.9522 C.2       1 UNK         0.0000 
     11 C11         1.8044   53.3561   24.1850 C.2       1 UNK         0.0000 
     12 O12         1.3975   54.0846   23.2814 O.2       1 UNK         0.0000 
     13 N13         1.2403   52.1793   24.5124 N.am      1 UNK         0.0000 
     14 C14         0.0869   51.5656   23.8553 C.3       1 UNK         0.0000 
     15 H15         0.3071   51.5989   22.7828 H         1 UNK         0.0000 
     16 C16        -0.0959   50.0981   24.3050 C.3       1 UNK         0.0000 
     17 C17        -0.6901   50.0869   25.7280 C.3       1 UNK         0.0000 
     18 S18        -1.7563   51.6304   25.8237 S.o2      1 UNK         0.0000 
     19 O19        -1.2425   52.4966   26.8925 O.2       1 UNK         0.0000 
     20 O20        -3.1777   51.2821   25.7588 O.2       1 UNK         0.0000 
     21 C21        -1.2271   52.3019   24.1542 C.3       1 UNK         0.0000 
     22 N22         4.5837   54.4230   23.0814 N.am      1 UNK         0.0000 
     23 C23         4.4051   53.5986   22.0255 C.2       1 UNK         0.0000 
     24 O24         3.8485   52.5004   22.0813 O.2       1 UNK         0.0000 
     25 C25         4.9512   54.0924   20.7037 C.ar      1 UNK         0.0000 
     26 C26         5.9561   55.0713   20.6313 C.ar      1 UNK         0.0000 
     27 C27         6.4347   55.5034   19.3960 C.ar      1 UNK         0.0000 
     28 C28         5.9274   54.9709   18.2112 C.ar      1 UNK         0.0000 
     29 C29         4.9387   53.9715   18.2563 C.ar      1 UNK         0.0000 
     30 C30         4.4577   53.5530   19.5062 C.ar      1 UNK         0.0000 
     31 N31         4.3531   53.3861   17.0311 N.pl3     1 UNK         0.0000 
     32 O32         3.1389   53.2068   17.0122 O.co2     1 UNK         0.0000 
     33 O33         5.0968   53.1008   16.0985 O.co2     1 UNK         0.0000 
     34 Cl34        6.5365   55.6076   16.7213 Cl        1 UNK         0.0000 
     35 C35         4.6462   54.3431   28.3287 C.3       1 UNK         0.0000 
     36 H36         2.1564   55.7964   28.3009 H         1 UNK         0.0000 
     37 H37         1.6605   55.3504   29.9303 H         1 UNK         0.0000 
     38 H38         3.1035   56.3207   29.6802 H         1 UNK         0.0000 
     39 H39         3.2225   52.0745   28.7763 H         1 UNK         0.0000 
     40 H40         1.7596   52.7691   29.4499 H         1 UNK         0.0000 
     41 H41         1.1291   53.8162   27.3766 H         1 UNK         0.0000 
     42 H42         1.5843   52.1691   27.0374 H         1 UNK         0.0000 
     43 H43         1.7038   51.6151   25.2057 H         1 UNK         0.0000 
     44 H44         0.8435   49.5417   24.2566 H         1 UNK         0.0000 
     45 H45        -0.7700   49.5922   23.6113 H         1 UNK         0.0000 
     46 H46         0.0997   50.1941   26.4699 H         1 UNK         0.0000 
     47 H47        -1.2736   49.2120   26.0231 H         1 UNK         0.0000 
     48 H48        -1.9816   51.9460   23.4538 H         1 UNK         0.0000 
     49 H49        -1.2271   53.3914   24.1689 H         1 UNK         0.0000 
     50 H50         5.2901   55.1332   22.9655 H         1 UNK         0.0000 
     51 H51         6.3892   55.5049   21.5187 H         1 UNK         0.0000 
     52 H52         7.2030   56.2625   19.3562 H         1 UNK         0.0000 
     53 H53         3.6916   52.7898   19.5369 H         1 UNK         0.0000 
     54 H54         5.3659   53.5695   28.6027 H         1 UNK         0.0000 
     55 H55         5.1387   55.2959   28.5232 H         1 UNK         0.0000 
@<TRIPOS>BOND
     1    1    2 1    
     2    1   36 1    
     3    1   37 1    
     4    1   38 1    
     5    2    3 1    
     6    2   35 1    
     7    2    4 1    
     8    4    5 1    
     9    4   39 1    
    10    4   40 1    
    11    5    6 1    
    12    5   41 1    
    13    5   42 1    
    14    6   10 1    
    15    6    7 2    
    16    7    8 1    
    17    7   35 1    
    18    8    9 1    
    19    9   10 2    
    20    9   22 am   BACKBONE|DICT|INTERRES
    21   10   11 1    
    22   11   12 2    
    23   11   13 am   BACKBONE|DICT|INTERRES
    24   13   14 1    
    25   13   43 1    
    26   14   15 1    
    27   14   21 1    
    28   14   16 1    
    29   16   17 1    
    30   16   44 1    
    31   16   45 1    
    32   17   18 1    
    33   17   46 1    
    34   17   47 1    
    35   18   19 2    
    36   18   20 2    
    37   18   21 1    
    38   21   48 1    
    39   21   49 1    
    40   22   23 am   BACKBONE|DICT|INTERRES
    41   22   50 1    
    42   23   24 2    
    43   23   25 1    
    44   25   30 ar   
    45   25   26 ar   
    46   26   27 ar   
    47   26   51 1    
    48   27   28 ar   
    49   27   52 1    
    50   28   29 ar   
    51   28   34 1    
    52   29   30 ar   
    53   29   31 1    
    54   30   53 1    
    55   31   32 2    
    56   31   33 1    
    57   35   54 1    
    58   35   55 1    
@<TRIPOS>SUBSTRUCTURE
     1 UNK         1 GROUP             0       ****    0 ROOT    
