@<TRIPOS>MOLECULE
ZINC65919965_3601
49   52    1
SMALL
USER_CHARGES


@<TRIPOS>ATOM
      1 C1          2.2996   49.6741   21.7319 C.3       1 UNK         0.0000 
      2 C2          2.1813   51.1234   21.2736 C.3       1 UNK         0.0000 
      3 C3          1.2033   51.7269   22.2845 C.3       1 UNK         0.0000 
      4 C4          0.1990   50.6045   22.6280 C.3       1 UNK         0.0000 
      5 C5          0.8804   49.2969   22.1581 C.3       1 UNK         0.0000 
      6 N6         -0.0954   50.5954   24.0594 N.am      1 UNK         0.0000 
      7 C7         -1.0144   49.8295   24.6878 C.2       1 UNK         0.0000 
      8 O8         -1.8335   49.1496   24.0700 O.2       1 UNK         0.0000 
      9 N9         -1.0064   49.8346   26.0432 N.am      1 UNK         0.0000 
     10 N10        -0.0139   50.4971   26.7840 N.am      1 UNK         0.0000 
     11 C11        -0.1317   51.8132   27.0742 C.2       1 UNK         0.0000 
     12 O12        -1.0924   52.4962   26.7073 O.2       1 UNK         0.0000 
     13 C13         1.0368   52.4927   27.8490 C.3       1 UNK         0.0000 
     14 C14         1.9047   51.4593   28.6320 C.3       1 UNK         0.0000 
     15 C15         3.0765   52.1696   29.3618 C.3       1 UNK         0.0000 
     16 C16         2.4986   53.2010   30.3523 C.3       1 UNK         0.0000 
     17 C17         1.6484   54.2566   29.5925 C.3       1 UNK         0.0000 
     18 C18         0.4767   53.5433   28.8663 C.3       1 UNK         0.0000 
     19 C19         2.5371   54.9846   28.5472 C.3       1 UNK         0.0000 
     20 C20         3.1041   53.9286   27.5628 C.3       1 UNK         0.0000 
     21 C21         3.9732   52.9172   28.3422 C.3       1 UNK         0.0000 
     22 C22         1.9531   53.2142   26.8123 C.3       1 UNK         0.0000 
     23 Br23        4.2659   54.8068   26.2009 Br        1 UNK         0.0000 
     24 H24         2.7032   49.0246   20.9515 H         1 UNK         0.0000 
     25 H25         2.9750   49.6055   22.5892 H         1 UNK         0.0000 
     26 H26         1.7683   51.1684   20.2633 H         1 UNK         0.0000 
     27 H27         3.1450   51.6365   21.2621 H         1 UNK         0.0000 
     28 H28         0.7138   52.6301   21.9142 H         1 UNK         0.0000 
     29 H29         1.7733   52.0233   23.1682 H         1 UNK         0.0000 
     30 H30        -0.6946   50.7565   22.0174 H         1 UNK         0.0000 
     31 H31         0.8959   48.5027   22.9079 H         1 UNK         0.0000 
     32 H32         0.3516   48.9080   21.2842 H         1 UNK         0.0000 
     33 H33         0.4439   51.2339   24.6247 H         1 UNK         0.0000 
     34 H34        -1.6174   49.2757   26.6273 H         1 UNK         0.0000 
     35 H35         0.7300   49.8895   27.0912 H         1 UNK         0.0000 
     36 H36         2.3040   50.6975   27.9648 H         1 UNK         0.0000 
     37 H37         1.2859   50.9168   29.3458 H         1 UNK         0.0000 
     38 H38         3.6788   51.4344   29.8986 H         1 UNK         0.0000 
     39 H39         1.8993   52.7021   31.1192 H         1 UNK         0.0000 
     40 H40         3.3285   53.6884   30.8635 H         1 UNK         0.0000 
     41 H41         1.2463   54.9832   30.3034 H         1 UNK         0.0000 
     42 H42        -0.1772   53.0579   29.5957 H         1 UNK         0.0000 
     43 H43        -0.1405   54.2871   28.3616 H         1 UNK         0.0000 
     44 H44         1.9564   55.7406   28.0206 H         1 UNK         0.0000 
     45 H45         3.3507   55.5154   29.0462 H         1 UNK         0.0000 
     46 H46         4.7893   53.4295   28.8556 H         1 UNK         0.0000 
     47 H47         4.4483   52.2182   27.6652 H         1 UNK         0.0000 
     48 H48         1.3955   53.9443   26.2251 H         1 UNK         0.0000 
     49 H49         2.3665   52.5015   26.0964 H         1 UNK         0.0000 
@<TRIPOS>BOND
     1    1    5 1    
     2    1    2 1    
     3    1   24 1    
     4    1   25 1    
     5    2    3 1    
     6    2   26 1    
     7    2   27 1    
     8    3    4 1    
     9    3   28 1    
    10    3   29 1    
    11    4    5 1    
    12    4    6 1    
    13    4   30 1    
    14    5   31 1    
    15    5   32 1    
    16    6    7 am   BACKBONE|DICT|INTERRES
    17    6   33 1    
    18    7    8 2    
    19    7    9 am   BACKBONE|DICT|INTERRES
    20    9   10 1    
    21    9   34 1    
    22   10   11 am   BACKBONE|DICT|INTERRES
    23   10   35 1    
    24   11   12 2    
    25   11   13 1    
    26   13   18 1    
    27   13   22 1    
    28   13   14 1    
    29   14   15 1    
    30   14   36 1    
    31   14   37 1    
    32   15   21 1    
    33   15   16 1    
    34   15   38 1    
    35   16   17 1    
    36   16   39 1    
    37   16   40 1    
    38   17   18 1    
    39   17   19 1    
    40   17   41 1    
    41   18   42 1    
    42   18   43 1    
    43   19   20 1    
    44   19   44 1    
    45   19   45 1    
    46   20   21 1    
    47   20   22 1    
    48   20   23 1    
    49   21   46 1    
    50   21   47 1    
    51   22   48 1    
    52   22   49 1    
@<TRIPOS>SUBSTRUCTURE
     1 UNK         1 GROUP             0       ****    0 ROOT    
