ZINC02625100_718
                    3D
 Schrodinger Suite 2024-2.
 51 53  0  0  1  0            999 V2000
    4.4912   51.3178   20.7591 C   0  0  0  0  0  0
    3.6324   52.3516   20.0045 C   0  0  1  0  0  0
    2.7688   52.6354   20.6061 H   0  0  0  0  0  0
    4.4832   53.5678   19.5912 C   0  0  0  0  0  0
    4.7575   53.8983   18.3505 N   0  0  0  0  0  0
    5.5426   55.0369   18.3750 N   0  0  0  0  0  0
    5.7568   55.3415   19.6290 C   0  0  0  0  0  0
    5.1102   54.4435   20.4694 N   0  0  0  0  0  0
    5.1008   54.4217   21.8885 C   0  0  0  0  0  0
    6.3040   54.5313   22.5981 C   0  0  0  0  0  0
    6.2979   54.4965   23.9895 C   0  0  0  0  0  0
    5.0952   54.3492   24.6746 C   0  0  0  0  0  0
    3.8944   54.2340   23.9788 C   0  0  0  0  0  0
    3.8936   54.2798   22.5865 C   0  0  0  0  0  0
    5.0928   54.3236   26.0262 F   0  0  0  0  0  0
    6.7044   56.7445   20.1428 S   0  0  0  0  0  0
    6.3458   57.9434   18.8035 C   0  0  0  0  0  0
    7.4565   58.1035   17.7603 C   0  0  0  0  0  0
    8.2541   57.1879   17.5516 O   0  0  0  0  0  0
    7.5045   59.2964   17.1313 N   0  0  0  0  0  0
    8.4694   59.6651   16.1831 C   0  0  0  0  0  0
    8.6123   58.9785   14.9655 C   0  0  0  0  0  0
    9.5773   59.3915   14.0443 C   0  0  0  0  0  0
   10.3924   60.4892   14.3273 C   0  0  0  0  0  0
   10.2422   61.1810   15.5307 C   0  0  0  0  0  0
    9.2802   60.7743   16.4568 C   0  0  0  0  0  0
    9.1529   61.4491   17.6265 F   0  0  0  0  0  0
   11.0326   62.2459   15.8026 F   0  0  0  0  0  0
   11.3275   60.8857   13.4329 F   0  0  0  0  0  0
    9.7195   58.7301   12.8717 F   0  0  0  0  0  0
    7.8122   57.9277   14.6629 F   0  0  0  0  0  0
    2.3976   50.2719   18.9438 C   0  0  0  0  0  0
    1.8610   52.5967   18.1321 C   0  0  0  0  0  0
    5.0176   51.7525   21.6074 H   0  0  0  0  0  0
    3.8974   50.4969   21.1583 H   0  0  0  0  0  0
    5.2423   50.9145   20.0830 H   0  0  0  0  0  0
    7.2463   54.6556   22.0838 H   0  0  0  0  0  0
    7.2223   54.5834   24.5385 H   0  0  0  0  0  0
    2.9666   54.1297   24.5216 H   0  0  0  0  0  0
    2.9477   54.2318   22.0697 H   0  0  0  0  0  0
    6.2082   58.9139   19.2817 H   0  0  0  0  0  0
    5.4088   57.7026   18.3020 H   0  0  0  0  0  0
    6.8515   60.0335   17.4048 H   0  0  0  0  0  0
    1.6596   50.2979   19.7464 H   0  0  0  0  0  0
    1.9559   49.9617   17.9952 H   0  0  0  0  0  0
    3.2280   49.6046   19.1733 H   0  0  0  0  0  0
    1.0293   52.6398   18.8371 H   0  0  0  0  0  0
    2.2563   53.5957   17.9529 H   0  0  0  0  0  0
    1.5596   52.1398   17.1880 H   0  0  0  0  0  0
    2.9622   51.7004   18.7536 N   0  3  0  0  0  0
    3.7203   51.5859   18.0822 H   0  0  0  0  0  0
  1  2  1  0  0  0
  1 34  1  0  0  0
  1 35  1  0  0  0
  1 36  1  0  0  0
  2  3  1  0  0  0
  2  4  1  0  0  0
  2 50  1  0  0  0
  4  8  1  0  0  0
  4  5  2  0  0  0
  5  6  1  0  0  0
  6  7  2  0  0  0
  7  8  1  0  0  0
  7 16  1  0  0  0
  8  9  1  0  0  0
  9 14  2  0  0  0
  9 10  1  0  0  0
 10 11  2  0  0  0
 10 37  1  0  0  0
 11 12  1  0  0  0
 11 38  1  0  0  0
 12 13  2  0  0  0
 12 15  1  0  0  0
 13 14  1  0  0  0
 13 39  1  0  0  0
 14 40  1  0  0  0
 16 17  1  0  0  0
 17 18  1  0  0  0
 17 41  1  0  0  0
 17 42  1  0  0  0
 18 19  2  0  0  0
 18 20  1  0  0  0
 20 21  1  0  0  0
 20 43  1  0  0  0
 21 26  2  0  0  0
 21 22  1  0  0  0
 22 23  2  0  0  0
 22 31  1  0  0  0
 23 24  1  0  0  0
 23 30  1  0  0  0
 24 25  2  0  0  0
 24 29  1  0  0  0
 25 26  1  0  0  0
 25 28  1  0  0  0
 26 27  1  0  0  0
 32 44  1  0  0  0
 32 45  1  0  0  0
 32 46  1  0  0  0
 32 50  1  0  0  0
 33 47  1  0  0  0
 33 48  1  0  0  0
 33 49  1  0  0  0
 33 50  1  0  0  0
 50 51  1  0  0  0
M  CHG  1  50   1
M  END
> <i_i_glide_confnum>
30

> <i_i_glide_lignum>
719

> <i_i_glide_posenum>
161

> <i_i_glide_rotatable_bonds>
8

> <i_m_Source_File_Index>
309

> <b_m_subgroup_collapsed>
0

> <r_i_docking_score>
-4.3199

> <r_i_glide_ecoul>
-5.63272

> <r_i_glide_eff_state_penalty>
0

> <r_i_glide_einternal>
5.38317

> <r_i_glide_emodel>
-43.984

> <r_i_glide_energy>
-33.7656

> <r_i_glide_erotb>
0.507628

> <r_i_glide_esite>
-0.354667

> <r_i_glide_evdw>
-28.1328

> <r_i_glide_gscore>
-4.3199

> <r_i_glide_hbond>
-0.272704

> <r_i_glide_ligand_efficiency>
-0.130906

> <r_i_glide_ligand_efficiency_ln>
-0.960723

> <r_i_glide_ligand_efficiency_sa>
-0.419885

> <r_i_glide_lipo>
-1.29756

> <r_i_glide_metal>
0

> <r_i_glide_rewards>
-0.651049

> <s_i_glide_gridfile>
wee1_glide-grid

> <s_m_Source_File>
wee1_decoys_glide_SP.sdf

> <s_m_Source_Path>
/Users/zhangxujun/Desktop

> <s_m_entry_id>
584

> <s_m_entry_name>
wee1_decoys_glide_SP.309

> <s_m_subgroup_title>
wee1_decoys_glide_SP

> <s_m_subgroupid>
wee1_decoys_glide_SP


$$$$
