@<TRIPOS>MOLECULE
ZINC21710629_2103
67   70    1
SMALL
USER_CHARGES


@<TRIPOS>ATOM
      1 C1          2.7081   59.2698   15.7230 C.3       1 UNK         0.0000 
      2 C2          3.0308   57.7633   15.5400 C.3       1 UNK         0.0000 
      3 C3          1.8791   56.9545   16.1910 C.3       1 UNK         0.0000 
      4 C4          3.0573   57.4825   14.0172 C.3       1 UNK         0.0000 
      5 C5          4.3798   57.3460   16.1797 C.ar      1 UNK         0.0000 
      6 C6          5.1920   58.2514   16.8818 C.ar      1 UNK         0.0000 
      7 C7          6.3564   57.8244   17.5151 C.ar      1 UNK         0.0000 
      8 C8          6.7340   56.4849   17.4388 C.ar      1 UNK         0.0000 
      9 C9          5.9735   55.5857   16.6911 C.ar      1 UNK         0.0000 
     10 C10         4.8014   56.0130   16.0777 C.ar      1 UNK         0.0000 
     11 S11         8.1594   55.9028   18.3585 S.o2      1 UNK         0.0000 
     12 O12         8.3222   54.4669   18.1048 O.2       1 UNK         0.0000 
     13 O13         9.2473   56.8537   18.1111 O.2       1 UNK         0.0000 
     14 N14         7.7278   56.0983   20.0682 N.pl3     1 UNK         0.0000 
     15 C15         6.8037   55.2966   20.7504 C.ar      1 UNK         0.0000 
     16 C16         5.8847   54.4793   20.0841 C.ar      1 UNK         0.0000 
     17 C17         5.0517   53.6213   20.7964 C.ar      1 UNK         0.0000 
     18 C18         5.1046   53.5969   22.1870 C.ar      1 UNK         0.0000 
     19 C19         5.9483   54.4735   22.8864 C.ar      1 UNK         0.0000 
     20 C20         6.8163   55.2962   22.1475 C.ar      1 UNK         0.0000 
     21 C21         5.9831   54.5257   24.4016 C.2       1 UNK         0.0000 
     22 O22         7.0829   54.6435   24.9496 O.2       1 UNK         0.0000 
     23 N23         4.8213   54.4966   25.1224 N.am      1 UNK         0.0000 
     24 C24         4.8776   54.5961   26.5989 C.3       1 UNK         0.0000 
     25 C25         4.0529   53.4359   27.1959 C.3       1 UNK         0.0000 
     26 C26         2.6090   53.3793   26.6589 C.3       1 UNK         0.0000 
     27 C27         2.6438   53.3984   25.1114 C.3       1 UNK         0.0000 
     28 H28         3.1047   52.4805   24.7782 H         1 UNK         0.0000 
     29 C29         3.4569   54.5965   24.5531 C.3       1 UNK         0.0000 
     30 C30         1.2415   53.2655   24.4871 C.2       1 UNK         0.0000 
     31 O31         0.8319   54.0968   23.6817 O.2       1 UNK         0.0000 
     32 N32         0.5206   52.1857   24.8386 N.am      1 UNK         0.0000 
     33 C33        -0.8371   51.9092   24.3821 C.3       1 UNK         0.0000 
     34 C34        -1.0847   51.6444   22.9126 C.3       1 UNK         0.0000 
     35 C35        -1.1599   50.5108   23.9100 C.3       1 UNK         0.0000 
     36 H36         1.7286   59.5291   15.3201 H         1 UNK         0.0000 
     37 H37         3.4376   59.9001   15.2120 H         1 UNK         0.0000 
     38 H38         2.7043   59.5614   16.7743 H         1 UNK         0.0000 
     39 H39         1.9692   55.8851   15.9981 H         1 UNK         0.0000 
     40 H40         1.8545   57.0828   17.2745 H         1 UNK         0.0000 
     41 H41         0.9047   57.2625   15.8095 H         1 UNK         0.0000 
     42 H42         3.1860   56.4227   13.7942 H         1 UNK         0.0000 
     43 H43         2.1296   57.7946   13.5354 H         1 UNK         0.0000 
     44 H44         3.8726   58.0194   13.5300 H         1 UNK         0.0000 
     45 H45         4.9313   59.2965   16.9709 H         1 UNK         0.0000 
     46 H46         6.9472   58.5351   18.0759 H         1 UNK         0.0000 
     47 H47         6.2625   54.5473   16.6133 H         1 UNK         0.0000 
     48 H48         4.2101   55.2904   15.5369 H         1 UNK         0.0000 
     49 H49         8.3967   56.6201   20.6130 H         1 UNK         0.0000 
     50 H50         5.8350   54.4434   19.0107 H         1 UNK         0.0000 
     51 H51         4.3808   52.9596   20.2680 H         1 UNK         0.0000 
     52 H52         4.4682   52.8982   22.7098 H         1 UNK         0.0000 
     53 H53         7.5143   55.9387   22.6670 H         1 UNK         0.0000 
     54 H54         5.8905   54.5795   27.0042 H         1 UNK         0.0000 
     55 H55         4.4279   55.5440   26.8812 H         1 UNK         0.0000 
     56 H56         4.5727   52.4971   27.0048 H         1 UNK         0.0000 
     57 H57         4.0345   53.5339   28.2820 H         1 UNK         0.0000 
     58 H58         2.1655   52.4632   27.0544 H         1 UNK         0.0000 
     59 H59         2.1013   54.2643   27.0465 H         1 UNK         0.0000 
     60 H60         3.0211   55.5309   24.8829 H         1 UNK         0.0000 
     61 H61         3.4128   54.6649   23.4695 H         1 UNK         0.0000 
     62 H62         0.8539   51.6165   25.6015 H         1 UNK         0.0000 
     63 H63        -1.6033   52.4613   24.9321 H         1 UNK         0.0000 
     64 H64        -2.0031   52.0306   22.4720 H         1 UNK         0.0000 
     65 H65        -0.2377   51.6974   22.2256 H         1 UNK         0.0000 
     66 H66        -0.3682   49.7593   23.9225 H         1 UNK         0.0000 
     67 H67        -2.1323   50.0932   24.1740 H         1 UNK         0.0000 
@<TRIPOS>BOND
     1    1    2 1    
     2    1   36 1    
     3    1   37 1    
     4    1   38 1    
     5    2    3 1    
     6    2    4 1    
     7    2    5 1    
     8    3   39 1    
     9    3   40 1    
    10    3   41 1    
    11    4   42 1    
    12    4   43 1    
    13    4   44 1    
    14    5   10 ar   
    15    5    6 ar   
    16    6    7 ar   
    17    6   45 1    
    18    7    8 ar   
    19    7   46 1    
    20    8    9 ar   
    21    8   11 1    
    22    9   10 ar   
    23    9   47 1    
    24   10   48 1    
    25   11   12 2    
    26   11   13 2    
    27   11   14 1    
    28   14   15 1    
    29   14   49 1    
    30   15   20 ar   
    31   15   16 ar   
    32   16   17 ar   
    33   16   50 1    
    34   17   18 ar   
    35   17   51 1    
    36   18   19 ar   
    37   18   52 1    
    38   19   20 ar   
    39   19   21 1    
    40   20   53 1    
    41   21   22 2    
    42   21   23 am   BACKBONE|DICT|INTERRES
    43   23   29 1    
    44   23   24 1    
    45   24   25 1    
    46   24   54 1    
    47   24   55 1    
    48   25   26 1    
    49   25   56 1    
    50   25   57 1    
    51   26   27 1    
    52   26   58 1    
    53   26   59 1    
    54   27   28 1    
    55   27   29 1    
    56   27   30 1    
    57   29   60 1    
    58   29   61 1    
    59   30   31 2    
    60   30   32 am   BACKBONE|DICT|INTERRES
    61   32   33 1    
    62   32   62 1    
    63   33   35 1    
    64   33   34 1    
    65   33   63 1    
    66   34   35 1    
    67   34   64 1    
    68   34   65 1    
    69   35   66 1    
    70   35   67 1    
@<TRIPOS>SUBSTRUCTURE
     1 UNK         1 GROUP             0       ****    0 ROOT    
