@<TRIPOS>MOLECULE
ZINC05976283_4291
52   54    1
SMALL
USER_CHARGES


@<TRIPOS>ATOM
      1 C1          5.8738   54.1005   28.4350 C.3       1 UNK         0.0000 
      2 C2          5.9514   54.3915   26.9430 C.2       1 UNK         0.0000 
      3 O3          6.9736   54.8962   26.4818 O.2       1 UNK         0.0000 
      4 N4          4.8494   54.0745   26.2298 N.am      1 UNK         0.0000 
      5 C5          4.6743   54.0971   24.8337 C.ar      1 UNK         0.0000 
      6 C6          3.3615   54.1220   24.3502 C.ar      1 UNK         0.0000 
      7 C7          3.1222   54.1196   22.9752 C.ar      1 UNK         0.0000 
      8 C8          4.1841   54.0590   22.0731 C.ar      1 UNK         0.0000 
      9 C9          5.4839   53.9724   22.5660 C.ar      1 UNK         0.0000 
     10 C10         5.7396   54.0241   23.9285 C.ar      1 UNK         0.0000 
     11 N11         3.9042   54.1141   20.6971 N.pl3     1 UNK         0.0000 
     12 C12         4.9169   54.0500   19.6349 C.3       1 UNK         0.0000 
     13 H13         5.5383   53.1707   19.8223 H         1 UNK         0.0000 
     14 C14         5.7873   55.3387   19.6177 C.3       1 UNK         0.0000 
     15 C15         6.9386   55.1915   18.6025 C.3       1 UNK         0.0000 
     16 C16         6.3948   54.8788   17.1888 C.3       1 UNK         0.0000 
     17 C17         5.3795   53.7156   17.2032 C.3       1 UNK         0.0000 
     18 C18         4.2475   53.9744   18.2314 C.3       1 UNK         0.0000 
     19 H19         3.7498   54.9088   17.9800 H         1 UNK         0.0000 
     20 N20         3.2988   52.8350   18.1771 N.pl3     1 UNK         0.0000 
     21 S21         2.1207   52.6514   16.8701 S.o2      1 UNK         0.0000 
     22 O22         2.8288   52.6647   15.5860 O.2       1 UNK         0.0000 
     23 O23         1.2428   51.5325   17.2315 O.2       1 UNK         0.0000 
     24 C24         1.1094   54.1373   16.8824 C.ar      1 UNK         0.0000 
     25 C25        -0.2278   54.0683   17.2827 C.ar      1 UNK         0.0000 
     26 C26        -1.0123   55.2196   17.2798 C.ar      1 UNK         0.0000 
     27 C27        -0.4562   56.4366   16.8879 C.ar      1 UNK         0.0000 
     28 C28         0.8711   56.5071   16.4735 C.ar      1 UNK         0.0000 
     29 C29         1.6516   55.3533   16.4574 C.ar      1 UNK         0.0000 
     30 Cl30       -1.4197   57.8684   16.9244 Cl        1 UNK         0.0000 
     31 H31         5.2905   54.8713   28.9390 H         1 UNK         0.0000 
     32 H32         6.8701   54.0980   28.8768 H         1 UNK         0.0000 
     33 H33         5.4117   53.1296   28.6198 H         1 UNK         0.0000 
     34 H34         4.0413   53.7834   26.7581 H         1 UNK         0.0000 
     35 H35         2.5272   54.1594   25.0337 H         1 UNK         0.0000 
     36 H36         2.1039   54.1695   22.6123 H         1 UNK         0.0000 
     37 H37         6.3053   53.8792   21.8883 H         1 UNK         0.0000 
     38 H38         6.7659   53.9542   24.2564 H         1 UNK         0.0000 
     39 H39         3.0017   54.5157   20.4467 H         1 UNK         0.0000 
     40 H40         5.1768   56.1996   19.3407 H         1 UNK         0.0000 
     41 H41         6.2090   55.5842   20.5897 H         1 UNK         0.0000 
     42 H42         7.6098   54.3917   18.9194 H         1 UNK         0.0000 
     43 H43         7.5416   56.1001   18.5771 H         1 UNK         0.0000 
     44 H44         7.2202   54.6478   16.5120 H         1 UNK         0.0000 
     45 H45         5.9127   55.7703   16.7835 H         1 UNK         0.0000 
     46 H46         5.8943   52.7821   17.4392 H         1 UNK         0.0000 
     47 H47         4.9892   53.5882   16.1968 H         1 UNK         0.0000 
     48 H48         3.0017   52.4852   19.0912 H         1 UNK         0.0000 
     49 H49        -0.6619   53.1302   17.5953 H         1 UNK         0.0000 
     50 H50        -2.0435   55.1697   17.5929 H         1 UNK         0.0000 
     51 H51         1.2941   57.4513   16.1659 H         1 UNK         0.0000 
     52 H52         2.6744   55.4069   16.1123 H         1 UNK         0.0000 
@<TRIPOS>BOND
     1    1    2 1    
     2    1   31 1    
     3    1   32 1    
     4    1   33 1    
     5    2    3 2    
     6    2    4 am   BACKBONE|DICT|INTERRES
     7    4    5 1    
     8    4   34 1    
     9    5   10 ar   
    10    5    6 ar   
    11    6    7 ar   
    12    6   35 1    
    13    7    8 ar   
    14    7   36 1    
    15    8    9 ar   
    16    8   11 1    
    17    9   10 ar   
    18    9   37 1    
    19   10   38 1    
    20   11   12 1    
    21   11   39 1    
    22   12   13 1    
    23   12   18 1    
    24   12   14 1    
    25   14   15 1    
    26   14   40 1    
    27   14   41 1    
    28   15   16 1    
    29   15   42 1    
    30   15   43 1    
    31   16   17 1    
    32   16   44 1    
    33   16   45 1    
    34   17   18 1    
    35   17   46 1    
    36   17   47 1    
    37   18   19 1    
    38   18   20 1    
    39   20   21 1    
    40   20   48 1    
    41   21   22 2    
    42   21   23 2    
    43   21   24 1    
    44   24   29 ar   
    45   24   25 ar   
    46   25   26 ar   
    47   25   49 1    
    48   26   27 ar   
    49   26   50 1    
    50   27   28 ar   
    51   27   30 1    
    52   28   29 ar   
    53   28   51 1    
    54   29   52 1    
@<TRIPOS>SUBSTRUCTURE
     1 UNK         1 GROUP             0       ****    0 ROOT    
