@<TRIPOS>MOLECULE
ZINC17397468_3526
45   47    1
SMALL
USER_CHARGES


@<TRIPOS>ATOM
      1 C1         -0.0953   48.5461   24.5102 C.ar      1 UNK         0.0000 
      2 C2          0.7047   49.2496   23.6127 C.ar      1 UNK         0.0000 
      3 C3          0.6575   50.6482   23.5368 C.ar      1 UNK         0.0000 
      4 C4         -0.2573   51.3290   24.3578 C.ar      1 UNK         0.0000 
      5 C5         -1.0530   50.6224   25.2706 C.ar      1 UNK         0.0000 
      6 C6         -0.9655   49.2329   25.3492 C.ar      1 UNK         0.0000 
      7 S7         -2.1486   51.4729   26.3970 S.o2      1 UNK         0.0000 
      8 O8         -2.1453   52.8967   26.0537 O.2       1 UNK         0.0000 
      9 O9         -3.4018   50.7113   26.4381 O.2       1 UNK         0.0000 
     10 N10        -1.4093   51.2967   27.9977 N.pl3     1 UNK         0.0000 
     11 C11        -0.3095   52.0338   28.4643 C.ar      1 UNK         0.0000 
     12 C12        -0.0957   52.0970   29.8447 C.ar      1 UNK         0.0000 
     13 C13         1.0266   52.7491   30.3521 C.ar      1 UNK         0.0000 
     14 C14         1.9404   53.3342   29.4747 C.ar      1 UNK         0.0000 
     15 C15         1.7221   53.3005   28.1003 C.ar      1 UNK         0.0000 
     16 C16         0.5990   52.6507   27.5990 C.ar      1 UNK         0.0000 
     17 Cl17        3.3620   54.0977   30.0817 Cl        1 UNK         0.0000 
     18 C18         1.6236   51.3645   22.6153 C.2       1 UNK         0.0000 
     19 O19         2.1571   50.7455   21.6890 O.2       1 UNK         0.0000 
     20 N20         1.9025   52.6556   22.9115 N.am      1 UNK         0.0000 
     21 N21         2.8884   53.2990   22.1514 N.am      1 UNK         0.0000 
     22 C22         3.9813   53.7684   22.8026 C.2       1 UNK         0.0000 
     23 O23         4.0926   53.6982   24.0290 O.2       1 UNK         0.0000 
     24 C24         5.0807   54.3980   21.9454 C.ar      1 UNK         0.0000 
     25 C25         4.9121   54.4964   20.5485 C.ar      1 UNK         0.0000 
     26 C26         5.8813   55.0762   19.7310 C.ar      1 UNK         0.0000 
     27 C27         7.0540   55.5714   20.2885 C.ar      1 UNK         0.0000 
     28 C28         7.2569   55.4774   21.6594 C.ar      1 UNK         0.0000 
     29 C29         6.2977   54.8966   22.4914 C.ar      1 UNK         0.0000 
     30 Cl30        6.7033   54.8516   24.1781 Cl        1 UNK         0.0000 
     31 Cl31        8.2583   56.2889   19.2851 Cl        1 UNK         0.0000 
     32 H32        -0.0142   47.4720   24.5851 H         1 UNK         0.0000 
     33 H33         1.4039   48.6926   23.0046 H         1 UNK         0.0000 
     34 H34        -0.3342   52.4067   24.3220 H         1 UNK         0.0000 
     35 H35        -1.5495   48.6880   26.0807 H         1 UNK         0.0000 
     36 H36        -1.7637   50.5451   28.5754 H         1 UNK         0.0000 
     37 H37        -0.7910   51.6284   30.5303 H         1 UNK         0.0000 
     38 H38         1.1885   52.7792   31.4204 H         1 UNK         0.0000 
     39 H39         2.4289   53.7583   27.4233 H         1 UNK         0.0000 
     40 H40         0.4593   52.6213   26.5332 H         1 UNK         0.0000 
     41 H41         1.2206   53.2924   23.2939 H         1 UNK         0.0000 
     42 H42         2.5157   53.7410   21.3226 H         1 UNK         0.0000 
     43 H43         4.0213   54.1294   20.0579 H         1 UNK         0.0000 
     44 H44         5.7208   55.1366   18.6641 H         1 UNK         0.0000 
     45 H45         8.1779   55.8540   22.0815 H         1 UNK         0.0000 
@<TRIPOS>BOND
     1    1    6 ar   
     2    1    2 ar   
     3    1   32 1    
     4    2    3 ar   
     5    2   33 1    
     6    3    4 ar   
     7    3   18 1    
     8    4    5 ar   
     9    4   34 1    
    10    5    6 ar   
    11    5    7 1    
    12    6   35 1    
    13    7    8 2    
    14    7    9 2    
    15    7   10 1    
    16   10   11 1    
    17   10   36 1    
    18   11   16 ar   
    19   11   12 ar   
    20   12   13 ar   
    21   12   37 1    
    22   13   14 ar   
    23   13   38 1    
    24   14   15 ar   
    25   14   17 1    
    26   15   16 ar   
    27   15   39 1    
    28   16   40 1    
    29   18   19 2    
    30   18   20 am   BACKBONE|DICT|INTERRES
    31   20   21 1    
    32   20   41 1    
    33   21   22 am   BACKBONE|DICT|INTERRES
    34   21   42 1    
    35   22   23 2    
    36   22   24 1    
    37   24   29 ar   
    38   24   25 ar   
    39   25   26 ar   
    40   25   43 1    
    41   26   27 ar   
    42   26   44 1    
    43   27   28 ar   
    44   27   31 1    
    45   28   29 ar   
    46   28   45 1    
    47   29   30 1    
@<TRIPOS>SUBSTRUCTURE
     1 UNK         1 GROUP             0       ****    0 ROOT    
