@<TRIPOS>MOLECULE
ZINC35427274_6077
66   71    1
SMALL
USER_CHARGES


@<TRIPOS>ATOM
      1 C1         10.7428   51.2104   15.0221 C.3       1 UNK         0.0000 
      2 N2          9.7437   52.2564   15.5671 N.4       1 UNK         0.0000 
      3 C3          8.7742   51.5834   16.5661 C.3       1 UNK         0.0000 
      4 C4          7.9407   52.6716   17.2829 C.3       1 UNK         0.0000 
      5 C5          7.4542   53.7450   16.3120 C.2       1 UNK         0.0000 
      6 C6          6.4865   54.7295   16.6081 C.2       1 UNK         0.0000 
      7 C7          6.2677   55.5581   15.5009 C.2       1 UNK         0.0000 
      8 S8          7.2233   55.1259   14.1233 S.3       1 UNK         0.0000 
      9 C9          7.9515   53.8323   15.0058 C.2       1 UNK         0.0000 
     10 C10         8.9555   52.8724   14.3865 C.3       1 UNK         0.0000 
     11 N11         5.3815   56.6087   15.5624 N.pl3     1 UNK         0.0000 
     12 C12         4.4301   56.9337   14.6230 C.ar      1 UNK         0.0000 
     13 C13         3.7460   58.0584   15.0465 C.ar      1 UNK         0.0000 
     14 C14         4.2907   58.4218   16.2762 C.ar      1 UNK         0.0000 
     15 C15         5.2939   57.5142   16.6077 C.ar      1 UNK         0.0000 
     16 C16         6.2219   57.4392   17.8216 C.3       1 UNK         0.0000 
     17 H17         5.8999   58.2653   18.4604 H         1 UNK         0.0000 
     18 N18         6.0497   56.1873   18.6263 N.am      1 UNK         0.0000 
     19 C19         5.7541   54.9001   17.9352 C.3       1 UNK         0.0000 
     20 C20         6.3091   56.2563   19.9674 C.2       1 UNK         0.0000 
     21 O21         6.7042   57.2966   20.4968 O.2       1 UNK         0.0000 
     22 N22         6.0040   55.1775   20.7171 N.am      1 UNK         0.0000 
     23 C23         6.3337   55.0149   22.1381 C.3       1 UNK         0.0000 
     24 C24         5.1990   54.3459   22.9404 C.3       1 UNK         0.0000 
     25 C25         5.3513   54.3823   24.4629 C.ar      1 UNK         0.0000 
     26 C26         4.2029   54.4961   25.2526 C.ar      1 UNK         0.0000 
     27 C27         4.3004   54.4963   26.6411 C.ar      1 UNK         0.0000 
     28 C28         5.5503   54.3829   27.2437 C.ar      1 UNK         0.0000 
     29 C29         6.6999   54.2645   26.4687 C.ar      1 UNK         0.0000 
     30 C30         6.6038   54.2622   25.0783 C.ar      1 UNK         0.0000 
     31 C31         7.6754   57.8193   17.4723 C.ar      1 UNK         0.0000 
     32 C32         8.7696   57.0059   17.8075 C.ar      1 UNK         0.0000 
     33 C33        10.0684   57.4256   17.5339 C.ar      1 UNK         0.0000 
     34 C34        10.2806   58.6563   16.9205 C.ar      1 UNK         0.0000 
     35 C35         9.2051   59.4704   16.5755 C.ar      1 UNK         0.0000 
     36 C36         7.9081   59.0527   16.8542 C.ar      1 UNK         0.0000 
     37 F37        11.5417   59.0687   16.6643 F         1 UNK         0.0000 
     38 H38        11.4119   51.7169   14.3240 H         1 UNK         0.0000 
     39 H39        11.3057   50.8222   15.8727 H         1 UNK         0.0000 
     40 H40        10.1830   50.4150   14.5241 H         1 UNK         0.0000 
     41 H41         8.1546   50.8981   15.9859 H         1 UNK         0.0000 
     42 H42         9.3690   51.0193   17.2882 H         1 UNK         0.0000 
     43 H43         7.1040   52.1919   17.7932 H         1 UNK         0.0000 
     44 H44         8.5448   53.1537   18.0551 H         1 UNK         0.0000 
     45 H45         9.6929   53.3682   13.7528 H         1 UNK         0.0000 
     46 H46         8.4711   52.0639   13.8340 H         1 UNK         0.0000 
     47 H47         4.3279   56.3388   13.7273 H         1 UNK         0.0000 
     48 H48         2.9501   58.5708   14.5242 H         1 UNK         0.0000 
     49 H49         3.9955   59.2821   16.8647 H         1 UNK         0.0000 
     50 H50         4.6765   54.8323   17.7838 H         1 UNK         0.0000 
     51 H51         5.9832   54.0467   18.5713 H         1 UNK         0.0000 
     52 H52         5.5655   54.3896   20.2666 H         1 UNK         0.0000 
     53 H53         7.2841   54.4972   22.2692 H         1 UNK         0.0000 
     54 H54         6.5312   55.9856   22.5985 H         1 UNK         0.0000 
     55 H55         4.2612   54.8400   22.6771 H         1 UNK         0.0000 
     56 H56         5.0846   53.3068   22.6285 H         1 UNK         0.0000 
     57 H57         3.2292   54.5745   24.7909 H         1 UNK         0.0000 
     58 H58         3.4094   54.5810   27.2459 H         1 UNK         0.0000 
     59 H59         5.6329   54.3820   28.3212 H         1 UNK         0.0000 
     60 H60         7.6593   54.1611   26.9540 H         1 UNK         0.0000 
     61 H61         7.5026   54.1535   24.4893 H         1 UNK         0.0000 
     62 H62         8.6293   56.0527   18.2930 H         1 UNK         0.0000 
     63 H63        10.9097   56.8055   17.8101 H         1 UNK         0.0000 
     64 H64         9.3734   60.4263   16.1041 H         1 UNK         0.0000 
     65 H65         7.0761   59.6979   16.6038 H         1 UNK         0.0000 
     66 H66        10.2714   52.9725   16.0514 H         1 UNK         0.0000 
@<TRIPOS>BOND
     1    1    2 1    
     2    1   38 1    
     3    1   39 1    
     4    1   40 1    
     5    2   10 1    
     6    2    3 1    
     7    2   66 1    
     8    3    4 1    
     9    3   41 1    
    10    3   42 1    
    11    4    5 1    
    12    4   43 1    
    13    4   44 1    
    14    5    9 2    
    15    5    6 1    
    16    6   19 1    
    17    6    7 2    
    18    7    8 1    
    19    7   11 1    
    20    8    9 1    
    21    9   10 1    
    22   10   45 1    
    23   10   46 1    
    24   11   15 ar   
    25   11   12 ar   
    26   12   13 ar   
    27   12   47 1    
    28   13   14 ar   
    29   13   48 1    
    30   14   15 ar   
    31   14   49 1    
    32   15   16 1    
    33   16   17 1    
    34   16   18 1    
    35   16   31 1    
    36   18   19 1    
    37   18   20 am   BACKBONE|DICT|INTERRES
    38   19   50 1    
    39   19   51 1    
    40   20   21 2    
    41   20   22 am   BACKBONE|DICT|INTERRES
    42   22   23 1    
    43   22   52 1    
    44   23   24 1    
    45   23   53 1    
    46   23   54 1    
    47   24   25 1    
    48   24   55 1    
    49   24   56 1    
    50   25   30 ar   
    51   25   26 ar   
    52   26   27 ar   
    53   26   57 1    
    54   27   28 ar   
    55   27   58 1    
    56   28   29 ar   
    57   28   59 1    
    58   29   30 ar   
    59   29   60 1    
    60   30   61 1    
    61   31   36 ar   
    62   31   32 ar   
    63   32   33 ar   
    64   32   62 1    
    65   33   34 ar   
    66   33   63 1    
    67   34   35 ar   
    68   34   37 1    
    69   35   36 ar   
    70   35   64 1    
    71   36   65 1    
@<TRIPOS>SUBSTRUCTURE
     1 UNK         1 GROUP             0       ****    0 ROOT    
