ZINC33250887_5593
                    3D
 Schrodinger Suite 2024-2.
 70 73  0  0  1  0            999 V2000
    3.9120   54.0900   22.2974 C   0  0  0  0  0  0
    4.6663   54.1698   23.6118 C   0  0  0  0  0  0
    6.0529   54.3267   23.6254 C   0  0  0  0  0  0
    6.7330   54.4104   24.8390 C   0  0  0  0  0  0
    6.0497   54.3284   26.0531 C   0  0  0  0  0  0
    4.6529   54.1807   26.0396 C   0  0  0  0  0  0
    3.9700   54.1133   24.8205 C   0  0  0  0  0  0
    3.8765   54.0931   27.2769 C   0  0  0  0  0  0
    3.9486   53.0447   28.1130 C   0  0  0  0  0  0
    3.2495   52.8202   29.3548 C   0  0  0  0  0  0
    1.9645   53.0254   29.8349 C   0  0  0  0  0  0
    1.9673   52.4968   31.1237 C   0  0  0  0  0  0
    3.1663   52.0960   31.4700 N   0  0  0  0  0  0
    3.9654   52.2355   30.3439 O   0  0  0  0  0  0
    0.8329   52.3632   32.1111 C   0  0  0  0  0  0
    0.5619   53.8124   29.0285 S   0  0  0  0  0  0
   -0.4169   54.0968   30.0802 O   0  0  0  0  0  0
    1.0999   54.8816   28.1843 O   0  0  0  0  0  0
   -0.0880   52.5335   27.9953 N   0  0  0  0  0  0
    0.7155   51.9509   26.8944 C   0  0  0  0  0  0
   -0.2100   51.5108   25.7235 C   0  0  0  0  0  0
   -1.4959   50.7470   26.1688 C   0  0  0  0  0  0
   -2.1713   51.5096   27.3418 C   0  0  2  0  0  0
   -2.4662   52.4926   26.9675 H   0  0  0  0  0  0
   -1.1619   51.6581   28.5035 C   0  0  0  0  0  0
   -3.5451   50.9181   27.7405 C   0  0  0  0  0  0
   -4.4472   50.9088   26.8986 O   0  0  0  0  0  0
   -3.7056   50.4614   29.0011 N   0  0  0  0  0  0
   -4.9114   50.0240   29.5771 C   0  0  0  0  0  0
   -4.8973   48.7588   30.1710 C   0  0  0  0  0  0
   -6.0370   48.2618   30.8075 C   0  0  0  0  0  0
   -7.1920   49.0394   30.8584 C   0  0  0  0  0  0
   -7.2103   50.3076   30.2835 C   0  0  0  0  0  0
   -6.0716   50.8246   29.6400 C   0  0  0  0  0  0
   -6.0322   52.0974   29.0990 O   0  0  0  0  0  0
   -7.1807   52.9308   29.1612 C   0  0  0  0  0  0
   -6.0212   46.8949   31.4621 C   0  0  0  0  0  0
    6.8296   54.4101   27.3626 C   0  0  0  0  0  0
    4.5585   54.2721   21.4370 H   0  0  0  0  0  0
    3.1154   54.8347   22.2757 H   0  0  0  0  0  0
    3.4466   53.1102   22.1836 H   0  0  0  0  0  0
    6.6095   54.3837   22.7015 H   0  0  0  0  0  0
    7.8045   54.5225   24.8310 H   0  0  0  0  0  0
    2.8945   54.0007   24.8092 H   0  0  0  0  0  0
    3.2589   54.9465   27.4894 H   0  0  0  0  0  0
    4.6276   52.2441   27.8658 H   0  0  0  0  0  0
    0.6328   53.3004   32.6276 H   0  0  0  0  0  0
   -0.0951   52.0677   31.6222 H   0  0  0  0  0  0
    1.0206   51.6155   32.8812 H   0  0  0  0  0  0
    1.4753   52.6627   26.5708 H   0  0  0  0  0  0
    1.2148   51.0623   27.2828 H   0  0  0  0  0  0
   -0.5057   52.4017   25.1681 H   0  0  0  0  0  0
    0.3564   50.9015   25.0176 H   0  0  0  0  0  0
   -2.1465   50.6935   25.2949 H   0  0  0  0  0  0
   -1.1775   49.7492   26.4789 H   0  0  0  0  0  0
   -0.6990   50.7015   28.7472 H   0  0  0  0  0  0
   -1.5984   52.0910   29.4037 H   0  0  0  0  0  0
   -2.8654   50.1860   29.4961 H   0  0  0  0  0  0
   -3.9978   48.1594   30.1368 H   0  0  0  0  0  0
   -8.0771   48.6649   31.3514 H   0  0  0  0  0  0
   -8.1210   50.8802   30.3604 H   0  0  0  0  0  0
   -6.9696   53.8628   28.6386 H   0  0  0  0  0  0
   -8.0435   52.4758   28.6787 H   0  0  0  0  0  0
   -7.4306   53.1769   30.1938 H   0  0  0  0  0  0
   -6.4183   46.9594   32.4775 H   0  0  0  0  0  0
   -6.6488   46.1964   30.9052 H   0  0  0  0  0  0
   -5.0080   46.4977   31.5333 H   0  0  0  0  0  0
    6.3076   55.0381   28.0847 H   0  0  0  0  0  0
    6.9439   53.4182   27.7991 H   0  0  0  0  0  0
    7.8148   54.8528   27.2418 H   0  0  0  0  0  0
  1  2  1  0  0  0
  1 39  1  0  0  0
  1 40  1  0  0  0
  1 41  1  0  0  0
  2  7  2  0  0  0
  2  3  1  0  0  0
  3  4  2  0  0  0
  3 42  1  0  0  0
  4  5  1  0  0  0
  4 43  1  0  0  0
  5  6  2  0  0  0
  5 38  1  0  0  0
  6  7  1  0  0  0
  6  8  1  0  0  0
  7 44  1  0  0  0
  8  9  2  0  0  0
  8 45  1  0  0  0
  9 10  1  0  0  0
  9 46  1  0  0  0
 10 14  1  0  0  0
 10 11  2  0  0  0
 11 12  1  0  0  0
 11 16  1  0  0  0
 12 13  2  0  0  0
 12 15  1  0  0  0
 13 14  1  0  0  0
 15 47  1  0  0  0
 15 48  1  0  0  0
 15 49  1  0  0  0
 16 17  2  0  0  0
 16 18  2  0  0  0
 16 19  1  0  0  0
 19 25  1  0  0  0
 19 20  1  0  0  0
 20 21  1  0  0  0
 20 50  1  0  0  0
 20 51  1  0  0  0
 21 22  1  0  0  0
 21 52  1  0  0  0
 21 53  1  0  0  0
 22 23  1  0  0  0
 22 54  1  0  0  0
 22 55  1  0  0  0
 23 24  1  0  0  0
 23 25  1  0  0  0
 23 26  1  0  0  0
 25 56  1  0  0  0
 25 57  1  0  0  0
 26 27  2  0  0  0
 26 28  1  0  0  0
 28 29  1  0  0  0
 28 58  1  0  0  0
 29 34  2  0  0  0
 29 30  1  0  0  0
 30 31  2  0  0  0
 30 59  1  0  0  0
 31 32  1  0  0  0
 31 37  1  0  0  0
 32 33  2  0  0  0
 32 60  1  0  0  0
 33 34  1  0  0  0
 33 61  1  0  0  0
 34 35  1  0  0  0
 35 36  1  0  0  0
 36 62  1  0  0  0
 36 63  1  0  0  0
 36 64  1  0  0  0
 37 65  1  0  0  0
 37 66  1  0  0  0
 37 67  1  0  0  0
 38 68  1  0  0  0
 38 69  1  0  0  0
 38 70  1  0  0  0
M  END
> <i_i_glide_confnum>
245

> <i_i_glide_lignum>
5594

> <i_i_glide_posenum>
372

> <i_i_glide_rotatable_bonds>
8

> <i_m_Source_File_Index>
4961

> <b_m_subgroup_collapsed>
0

> <r_i_docking_score>
-6.39999

> <r_i_glide_ecoul>
-5.62974

> <r_i_glide_eff_state_penalty>
0

> <r_i_glide_einternal>
10.8963

> <r_i_glide_emodel>
-68.895

> <r_i_glide_energy>
-55.5796

> <r_i_glide_erotb>
0.525158

> <r_i_glide_esite>
-0.176863

> <r_i_glide_evdw>
-49.9498

> <r_i_glide_gscore>
-6.39999

> <r_i_glide_hbond>
-0.0429546

> <r_i_glide_ligand_efficiency>
-0.172973

> <r_i_glide_ligand_efficiency_ln>
-1.38801

> <r_i_glide_ligand_efficiency_sa>
-0.576383

> <r_i_glide_lipo>
-2.91704

> <r_i_glide_metal>
0

> <r_i_glide_rewards>
-0.446337

> <s_i_glide_gridfile>
wee1_glide-grid

> <s_m_Source_File>
wee1_decoys_glide_SP.sdf

> <s_m_Source_Path>
/Users/zhangxujun/Desktop

> <s_m_entry_id>
5236

> <s_m_entry_name>
wee1_decoys_glide_SP.4961

> <s_m_subgroup_title>
wee1_decoys_glide_SP

> <s_m_subgroupid>
wee1_decoys_glide_SP


$$$$
