@<TRIPOS>MOLECULE
ZINC39595692_623
72   75    1
SMALL
USER_CHARGES


@<TRIPOS>ATOM
      1 C1          0.2653   51.9450   25.8570 C.3       1 UNK         0.0000 
      2 C2         -0.2820   50.7874   24.9875 C.3       1 UNK         0.0000 
      3 H3          0.2433   49.8972   25.3415 H         1 UNK         0.0000 
      4 C4          0.0087   50.8388   23.4599 C.3       1 UNK         0.0000 
      5 N5          1.2075   51.6065   23.0979 N.am      1 UNK         0.0000 
      6 C6          1.3374   52.4069   22.0204 C.2       1 UNK         0.0000 
      7 O7          0.4327   52.5024   21.1944 O.2       1 UNK         0.0000 
      8 C8          2.6942   53.1421   21.7688 C.3       1 UNK         0.0000 
      9 H9          2.5382   54.0926   21.2855 H         1 UNK         0.0000 
     10 C10         3.2968   53.5588   23.1241 C.3       1 UNK         0.0000 
     11 N11         4.7343   53.5271   22.9092 N.am      1 UNK         0.0000 
     12 C12         5.0977   52.9166   21.6236 C.3       1 UNK         0.0000 
     13 C13         3.7894   52.3988   20.9644 C.3       1 UNK         0.0000 
     14 C14         3.7534   50.8454   21.0575 C.3       1 UNK         0.0000 
     15 C15         2.6707   50.1338   20.1898 C.3       1 UNK         0.0000 
     16 N16         2.7044   50.6750   18.7472 N.4       1 UNK         0.0000 
     17 C17         2.6509   52.2101   18.6536 C.3       1 UNK         0.0000 
     18 C18         3.8530   52.7358   19.4475 C.3       1 UNK         0.0000 
     19 C19         5.6724   54.0817   23.7235 C.2       1 UNK         0.0000 
     20 O20         6.8577   54.0943   23.3952 O.2       1 UNK         0.0000 
     21 C21         5.3265   54.7188   25.0934 C.3       1 UNK         0.0000 
     22 C22         4.1552   54.1275   25.9221 C.3       1 UNK         0.0000 
     23 C23         4.3070   54.2845   27.4498 C.3       1 UNK         0.0000 
     24 C24         2.9799   54.0382   28.2030 C.3       1 UNK         0.0000 
     25 C25         3.0778   52.6139   28.7441 C.3       1 UNK         0.0000 
     26 C26         4.5467   52.5044   29.1336 C.3       1 UNK         0.0000 
     27 C27         5.3103   53.2714   28.0520 C.3       1 UNK         0.0000 
     28 O28        -1.6566   50.4943   25.2743 O.3       1 UNK         0.0000 
     29 C29        -2.6659   51.4393   25.2084 C.ar      1 UNK         0.0000 
     30 C30        -3.8237   51.1357   25.9260 C.ar      1 UNK         0.0000 
     31 C31        -4.9014   52.0176   25.9471 C.ar      1 UNK         0.0000 
     32 C32        -4.8298   53.2100   25.2260 C.ar      1 UNK         0.0000 
     33 C33        -3.6943   53.5145   24.4810 C.ar      1 UNK         0.0000 
     34 C34        -2.6090   52.6398   24.4800 C.ar      1 UNK         0.0000 
     35 F35        -5.8601   54.0839   25.2620 F         1 UNK         0.0000 
     36 H36         1.3435   52.0560   25.7556 H         1 UNK         0.0000 
     37 H37        -0.1854   52.8971   25.5983 H         1 UNK         0.0000 
     38 H38         0.0609   51.7591   26.9124 H         1 UNK         0.0000 
     39 H39        -0.8651   51.2025   22.9222 H         1 UNK         0.0000 
     40 H40         0.1379   49.8214   23.0921 H         1 UNK         0.0000 
     41 H41         2.0142   51.4638   23.6847 H         1 UNK         0.0000 
     42 H42         3.1027   52.8139   23.8885 H         1 UNK         0.0000 
     43 H43         2.9361   54.5506   23.4050 H         1 UNK         0.0000 
     44 H44         5.4655   53.7555   21.0292 H         1 UNK         0.0000 
     45 H45         5.9033   52.1787   21.6672 H         1 UNK         0.0000 
     46 H46         4.7235   50.4969   20.7174 H         1 UNK         0.0000 
     47 H47         3.6802   50.5134   22.0881 H         1 UNK         0.0000 
     48 H48         2.8159   49.0574   20.1145 H         1 UNK         0.0000 
     49 H49         1.6486   50.2813   20.5270 H         1 UNK         0.0000 
     50 H50         3.5928   50.3873   18.3220 H         1 UNK         0.0000 
     51 H51         2.7350   52.4361   17.5880 H         1 UNK         0.0000 
     52 H52         1.6852   52.5590   19.0209 H         1 UNK         0.0000 
     53 H53         3.9319   53.8162   19.3065 H         1 UNK         0.0000 
     54 H54         4.7604   52.3163   19.0083 H         1 UNK         0.0000 
     55 H55         5.1779   55.7864   24.9451 H         1 UNK         0.0000 
     56 H56         6.2323   54.6460   25.6939 H         1 UNK         0.0000 
     57 H57         4.0272   53.0655   25.7225 H         1 UNK         0.0000 
     58 H58         3.2302   54.6147   25.6127 H         1 UNK         0.0000 
     59 H59         4.6450   55.2985   27.6705 H         1 UNK         0.0000 
     60 H60         2.0884   54.2135   27.6005 H         1 UNK         0.0000 
     61 H61         2.9129   54.7328   29.0455 H         1 UNK         0.0000 
     62 H62         2.8321   51.8960   27.9619 H         1 UNK         0.0000 
     63 H63         2.4032   52.4311   29.5794 H         1 UNK         0.0000 
     64 H64         4.8812   51.4748   29.2507 H         1 UNK         0.0000 
     65 H65         4.6973   52.9923   30.0881 H         1 UNK         0.0000 
     66 H66         6.1680   53.7761   28.4987 H         1 UNK         0.0000 
     67 H67         5.6851   52.5681   27.3013 H         1 UNK         0.0000 
     68 H68        -3.8678   50.2125   26.4877 H         1 UNK         0.0000 
     69 H69        -5.7833   51.7826   26.5273 H         1 UNK         0.0000 
     70 H70        -3.6482   54.4416   23.9266 H         1 UNK         0.0000 
     71 H71        -1.7346   52.9197   23.9138 H         1 UNK         0.0000 
     72 H72         1.9808   50.2514   18.1829 H         1 UNK         0.0000 
@<TRIPOS>BOND
     1    1    2 1    
     2    1   36 1    
     3    1   37 1    
     4    1   38 1    
     5    2    3 1    
     6    2    4 1    
     7    2   28 1    
     8    4    5 1    
     9    4   39 1    
    10    4   40 1    
    11    5    6 am   BACKBONE|DICT|INTERRES
    12    5   41 1    
    13    6    7 2    
    14    6    8 1    
    15    8    9 1    
    16    8   13 1    
    17    8   10 1    
    18   10   11 1    
    19   10   42 1    
    20   10   43 1    
    21   11   12 1    
    22   11   19 am   BACKBONE|DICT|INTERRES
    23   12   13 1    
    24   12   44 1    
    25   12   45 1    
    26   13   18 1    
    27   13   14 1    
    28   14   15 1    
    29   14   46 1    
    30   14   47 1    
    31   15   16 1    
    32   15   48 1    
    33   15   49 1    
    34   16   17 1    
    35   16   50 1    
    36   16   72 1    
    37   17   18 1    
    38   17   51 1    
    39   17   52 1    
    40   18   53 1    
    41   18   54 1    
    42   19   20 2    
    43   19   21 1    
    44   21   22 1    
    45   21   55 1    
    46   21   56 1    
    47   22   23 1    
    48   22   57 1    
    49   22   58 1    
    50   23   27 1    
    51   23   24 1    
    52   23   59 1    
    53   24   25 1    
    54   24   60 1    
    55   24   61 1    
    56   25   26 1    
    57   25   62 1    
    58   25   63 1    
    59   26   27 1    
    60   26   64 1    
    61   26   65 1    
    62   27   66 1    
    63   27   67 1    
    64   28   29 1    
    65   29   34 ar   
    66   29   30 ar   
    67   30   31 ar   
    68   30   68 1    
    69   31   32 ar   
    70   31   69 1    
    71   32   33 ar   
    72   32   35 1    
    73   33   34 ar   
    74   33   70 1    
    75   34   71 1    
@<TRIPOS>SUBSTRUCTURE
     1 UNK         1 GROUP             0       ****    0 ROOT    
