@<TRIPOS>MOLECULE
ZINC08442119_2436
54   58    1
SMALL
USER_CHARGES


@<TRIPOS>ATOM
      1 C1          4.1774   54.2067   29.6801 C.3       1 UNK         0.0000 
      2 C2          3.0888   53.4541   28.9393 C.ar      1 UNK         0.0000 
      3 C3          2.1922   52.6337   29.6317 C.ar      1 UNK         0.0000 
      4 C4          1.2083   51.9384   28.9308 C.ar      1 UNK         0.0000 
      5 C5          1.1326   52.0526   27.5439 C.ar      1 UNK         0.0000 
      6 C6          2.0196   52.8792   26.8557 C.ar      1 UNK         0.0000 
      7 C7          3.0001   53.5785   27.5524 C.ar      1 UNK         0.0000 
      8 S8         -0.1184   51.1642   26.6662 S.3       1 UNK         0.0000 
      9 C9          0.7044   49.9596   25.5684 C.3       1 UNK         0.0000 
     10 C10        -0.2709   49.1613   24.7456 C.ar      1 UNK         0.0000 
     11 C11        -0.7081   49.2601   23.4267 C.ar      1 UNK         0.0000 
     12 C12        -1.7278   48.2944   23.3593 C.ar      1 UNK         0.0000 
     13 N13        -1.8668   47.5703   24.4427 N.2       1 UNK         0.0000 
     14 N14        -0.9837   48.1179   25.2820 N.pl3     1 UNK         0.0000 
     15 H15        -0.9047   47.8201   26.2511 H         1 UNK         0.0000 
     16 O16        -2.5934   48.1450   22.3036 O.3       1 UNK         0.0000 
     17 C17        -2.6566   49.2317   21.4834 C.2       1 UNK         0.0000 
     18 C18        -1.7331   50.2256   21.3992 C.2       1 UNK         0.0000 
     19 C19        -0.4249   50.1915   22.2284 C.3       1 UNK         0.0000 
     20 C20         0.1588   51.5205   22.6335 C.ar      1 UNK         0.0000 
     21 C21        -0.2675   52.4979   23.5350 C.ar      1 UNK         0.0000 
     22 C22         0.5288   53.6281   23.7515 C.ar      1 UNK         0.0000 
     23 C23         1.7226   53.7995   23.0522 C.ar      1 UNK         0.0000 
     24 C24         2.1374   52.8328   22.1419 C.ar      1 UNK         0.0000 
     25 C25         1.3463   51.6995   21.9465 C.ar      1 UNK         0.0000 
     26 N26         1.6085   50.5938   21.1470 N.am      1 UNK         0.0000 
     27 C27         0.6733   49.6227   21.2941 C.2       1 UNK         0.0000 
     28 O28         0.6552   48.5136   20.7572 O.2       1 UNK         0.0000 
     29 C29         2.6986   50.5077   20.1631 C.3       1 UNK         0.0000 
     30 C30         2.5884   51.4915   18.9978 C.2       1 UNK         0.0000 
     31 C31         1.4818   52.1408   18.5973 C.2       1 UNK         0.0000 
     32 C32        -1.9406   51.2694   20.4498 C.1       1 UNK         0.0000 
     33 N33        -2.1601   52.0967   19.6738 N.1       1 UNK         0.0000 
     34 N34        -3.7784   49.0954   20.7121 N.pl3     1 UNK         0.0000 
     35 H35         4.3026   53.8532   30.7032 H         1 UNK         0.0000 
     36 H36         5.1377   54.0718   29.1806 H         1 UNK         0.0000 
     37 H37         3.9567   55.2731   29.6835 H         1 UNK         0.0000 
     38 H38         2.2509   52.5321   30.7055 H         1 UNK         0.0000 
     39 H39         0.5100   51.3041   29.4582 H         1 UNK         0.0000 
     40 H40         1.9696   52.9588   25.7831 H         1 UNK         0.0000 
     41 H41         3.6941   54.2059   27.0115 H         1 UNK         0.0000 
     42 H42         1.3149   49.2879   26.1767 H         1 UNK         0.0000 
     43 H43         1.3717   50.4890   24.8851 H         1 UNK         0.0000 
     44 H44        -1.1872   52.3776   24.0872 H         1 UNK         0.0000 
     45 H45         0.2297   54.3855   24.4563 H         1 UNK         0.0000 
     46 H46         2.3261   54.6801   23.2163 H         1 UNK         0.0000 
     47 H47         3.0637   52.9703   21.6055 H         1 UNK         0.0000 
     48 H48         2.7954   49.5073   19.7358 H         1 UNK         0.0000 
     49 H49         3.6426   50.6800   20.6787 H         1 UNK         0.0000 
     50 H50         3.5001   51.6809   18.4500 H         1 UNK         0.0000 
     51 H51         0.5356   52.0066   19.0953 H         1 UNK         0.0000 
     52 H52         1.5110   52.8205   17.7598 H         1 UNK         0.0000 
     53 H53        -4.0380   49.8084   20.0468 H         1 UNK         0.0000 
     54 H54        -4.2268   48.1949   20.6295 H         1 UNK         0.0000 
@<TRIPOS>BOND
     1    1    2 1    
     2    1   35 1    
     3    1   36 1    
     4    1   37 1    
     5    2    7 ar   
     6    2    3 ar   
     7    3    4 ar   
     8    3   38 1    
     9    4    5 ar   
    10    4   39 1    
    11    5    6 ar   
    12    5    8 1    
    13    6    7 ar   
    14    6   40 1    
    15    7   41 1    
    16    8    9 1    
    17    9   10 1    
    18    9   42 1    
    19    9   43 1    
    20   10   14 ar   
    21   10   11 ar   
    22   11   19 1    
    23   11   12 ar   
    24   12   13 ar   
    25   12   16 1    
    26   13   14 ar   
    27   14   15 1    
    28   16   17 1    
    29   17   18 2    
    30   17   34 1    
    31   18   19 1    
    32   18   32 1    
    33   19   27 1    
    34   19   20 1    
    35   20   25 ar   
    36   20   21 ar   
    37   21   22 ar   
    38   21   44 1    
    39   22   23 ar   
    40   22   45 1    
    41   23   24 ar   
    42   23   46 1    
    43   24   25 ar   
    44   24   47 1    
    45   25   26 1    
    46   26   27 am   BACKBONE|DICT|INTERRES
    47   26   29 1    
    48   27   28 2    
    49   29   30 1    
    50   29   48 1    
    51   29   49 1    
    52   30   31 2    
    53   30   50 1    
    54   31   51 1    
    55   31   52 1    
    56   32   33 3    
    57   34   53 1    
    58   34   54 1    
@<TRIPOS>SUBSTRUCTURE
     1 UNK         1 GROUP             0       ****    0 ROOT    
