@<TRIPOS>MOLECULE
ZINC58886438_2016
41   42    1
SMALL
USER_CHARGES


@<TRIPOS>ATOM
      1 C1          2.0689   53.4126   29.9311 C.ar      1 UNK         0.0000 
      2 C2          2.0445   54.3904   28.9389 C.ar      1 UNK         0.0000 
      3 C3          3.1340   54.5312   28.0825 C.ar      1 UNK         0.0000 
      4 C4          4.2494   53.6940   28.2066 C.ar      1 UNK         0.0000 
      5 C5          4.2600   52.7201   29.2126 C.ar      1 UNK         0.0000 
      6 C6          3.1768   52.5833   30.0777 C.ar      1 UNK         0.0000 
      7 C7          5.4666   53.8375   27.2809 C.3       1 UNK         0.0000 
      8 H8          6.0518   52.9163   27.3258 H         1 UNK         0.0000 
      9 C9          5.1146   54.0929   25.7955 C.3       1 UNK         0.0000 
     10 C10         6.3438   54.1928   24.8512 C.3       1 UNK         0.0000 
     11 C11         5.9715   54.3899   23.3757 C.2       1 UNK         0.0000 
     12 O12         4.8387   54.0970   22.9807 O.2       1 UNK         0.0000 
     13 N13         6.9404   54.8972   22.5889 N.am      1 UNK         0.0000 
     14 N14         6.6966   55.2973   21.3265 N.2       1 UNK         0.0000 
     15 C15         7.7311   55.6966   20.7058 C.2       1 UNK         0.0000 
     16 C16         7.6713   56.2798   19.3604 C.ar      1 UNK         0.0000 
     17 C17         8.8496   56.5023   18.6436 C.ar      1 UNK         0.0000 
     18 C18         8.8536   57.0775   17.3605 C.ar      1 UNK         0.0000 
     19 C19         7.6076   57.4307   16.7886 C.ar      1 UNK         0.0000 
     20 C20         6.4183   57.2172   17.5040 C.ar      1 UNK         0.0000 
     21 C21         6.4585   56.6477   18.7709 C.ar      1 UNK         0.0000 
     22 I22         4.5228   57.7344   16.7574 I         1 UNK         0.0000 
     23 O23         7.5179   57.9383   15.6276 O.co2     1 UNK         0.0000 
     24 N24        10.1657   57.2877   16.6770 N.pl3     1 UNK         0.0000 
     25 O25        11.1888   56.9714   17.2800 O.co2     1 UNK         0.0000 
     26 O26        10.2253   57.7678   15.5496 O.co2     1 UNK         0.0000 
     27 O27         6.3045   54.8968   27.6813 O.3       1 UNK         0.0000 
     28 H28         1.2219   53.2984   30.5936 H         1 UNK         0.0000 
     29 H29         1.1831   55.0342   28.8315 H         1 UNK         0.0000 
     30 H30         3.1008   55.2964   27.3249 H         1 UNK         0.0000 
     31 H31         5.1052   52.0585   29.3270 H         1 UNK         0.0000 
     32 H32         3.1966   51.8361   30.8551 H         1 UNK         0.0000 
     33 H33         4.4514   53.2969   25.4576 H         1 UNK         0.0000 
     34 H34         4.5448   55.0195   25.7058 H         1 UNK         0.0000 
     35 H35         6.9754   55.0278   25.1576 H         1 UNK         0.0000 
     36 H36         6.9553   53.2967   24.9314 H         1 UNK         0.0000 
     37 H37         7.8802   55.0527   22.9320 H         1 UNK         0.0000 
     38 H38         8.7305   55.6524   21.1374 H         1 UNK         0.0000 
     39 H39         9.7911   56.2239   19.0998 H         1 UNK         0.0000 
     40 H40         5.5249   56.4967   19.2956 H         1 UNK         0.0000 
     41 H41         6.5572   54.7831   28.6037 H         1 UNK         0.0000 
@<TRIPOS>BOND
     1    1    6 ar   
     2    1    2 ar   
     3    1   28 1    
     4    2    3 ar   
     5    2   29 1    
     6    3    4 ar   
     7    3   30 1    
     8    4    5 ar   
     9    4    7 1    
    10    5    6 ar   
    11    5   31 1    
    12    6   32 1    
    13    7    8 1    
    14    7    9 1    
    15    7   27 1    
    16    9   10 1    
    17    9   33 1    
    18    9   34 1    
    19   10   11 1    
    20   10   35 1    
    21   10   36 1    
    22   11   12 2    
    23   11   13 am   BACKBONE|DICT|INTERRES
    24   13   14 1    
    25   13   37 1    
    26   14   15 2    
    27   15   16 1    
    28   15   38 1    
    29   16   21 ar   
    30   16   17 ar   
    31   17   18 ar   
    32   17   39 1    
    33   18   19 ar   
    34   18   24 1    
    35   19   20 ar   
    36   19   23 1    
    37   20   21 ar   
    38   20   22 1    
    39   21   40 1    
    40   24   25 2    
    41   24   26 1    
    42   27   41 1    
@<TRIPOS>SUBSTRUCTURE
     1 UNK         1 GROUP             0       ****    0 ROOT    
