@<TRIPOS>MOLECULE
ZINC63384313_1310
63   67    1
SMALL
USER_CHARGES


@<TRIPOS>ATOM
      1 C1          2.9952   58.2239   16.5820 C.3       1 UNK         0.0000 
      2 C2          3.8865   57.1800   17.2702 C.3       1 UNK         0.0000 
      3 N3          5.3682   57.3783   16.8698 N.4       1 UNK         0.0000 
      4 C4          5.6181   56.8905   15.4140 C.3       1 UNK         0.0000 
      5 C5          7.1082   56.9660   15.0260 C.3       1 UNK         0.0000 
      6 C6          7.9504   56.3169   16.1020 C.2       1 UNK         0.0000 
      7 C7          8.8136   55.2919   16.1210 C.2       1 UNK         0.0000 
      8 C8          9.2640   54.3679   15.0707 C.2       1 UNK         0.0000 
      9 C9         10.1685   53.4079   15.3481 C.2       1 UNK         0.0000 
     10 C10        10.6900   53.3304   16.7075 C.2       1 UNK         0.0000 
     11 C11        10.2840   54.1857   17.6814 C.2       1 UNK         0.0000 
     12 C12         9.3311   55.1690   17.4129 C.2       1 UNK         0.0000 
     13 N13         8.8027   56.0660   18.2185 N.pl3     1 UNK         0.0000 
     14 C14         7.8272   56.9063   17.4858 C.3       1 UNK         0.0000 
     15 H15         8.2102   57.9262   17.5047 H         1 UNK         0.0000 
     16 C16         6.3506   56.8729   17.9765 C.3       1 UNK         0.0000 
     17 H17         6.2453   57.7311   18.6464 H         1 UNK         0.0000 
     18 C18         5.9247   55.5768   18.7296 C.ar      1 UNK         0.0000 
     19 H19         5.0919   52.3964   18.4214 H         1 UNK         0.0000 
     20 C20         5.5777   54.3891   18.1811 C.ar      1 UNK         0.0000 
     21 N21         5.1951   53.2969   18.8768 N.pl3     1 UNK         0.0000 
     22 C22         5.1044   53.2972   20.2306 C.ar      1 UNK         0.0000 
     23 O23         4.7416   52.2760   20.8133 O.2       1 UNK         0.0000 
     24 N24         5.5049   54.4829   20.8334 N.pl3     1 UNK         0.0000 
     25 C25         5.9549   55.6311   20.2011 C.ar      1 UNK         0.0000 
     26 O26         6.3996   56.6222   20.7943 O.2       1 UNK         0.0000 
     27 C27         5.6379   54.4384   22.3166 C.3       1 UNK         0.0000 
     28 C28         4.3127   54.3640   23.1166 C.3       1 UNK         0.0000 
     29 C29         4.4437   54.3339   24.6424 C.2       1 UNK         0.0000 
     30 C30         5.6189   54.4975   25.2983 C.2       1 UNK         0.0000 
     31 C31         5.8186   54.3680   26.8037 C.3       1 UNK         0.0000 
     32 C32         4.5975   53.7207   27.4907 C.3       1 UNK         0.0000 
     33 C33         3.2665   54.2254   26.9094 C.3       1 UNK         0.0000 
     34 C34         3.1658   53.9548   25.3935 C.3       1 UNK         0.0000 
     35 O35         5.5760   54.1154   16.9291 O.co2     1 UNK         0.0000 
     36 H36         1.9540   58.0964   16.8816 H         1 UNK         0.0000 
     37 H37         3.2851   59.2433   16.8449 H         1 UNK         0.0000 
     38 H38         3.0137   58.1417   15.4970 H         1 UNK         0.0000 
     39 H39         3.6151   56.1497   17.0248 H         1 UNK         0.0000 
     40 H40         3.8681   57.2966   18.3535 H         1 UNK         0.0000 
     41 H41         5.2058   55.8905   15.2989 H         1 UNK         0.0000 
     42 H42         5.0545   57.5634   14.7668 H         1 UNK         0.0000 
     43 H43         7.2599   56.4927   14.0547 H         1 UNK         0.0000 
     44 H44         7.4033   58.0106   14.8997 H         1 UNK         0.0000 
     45 H45         8.8754   54.4233   14.0636 H         1 UNK         0.0000 
     46 H46        10.4995   52.7157   14.5879 H         1 UNK         0.0000 
     47 H47        11.4271   52.5750   16.9450 H         1 UNK         0.0000 
     48 H48        10.7063   54.0971   18.6704 H         1 UNK         0.0000 
     49 H49         6.2087   55.2908   22.6829 H         1 UNK         0.0000 
     50 H50         6.2489   53.5720   22.5787 H         1 UNK         0.0000 
     51 H51         3.7713   53.4630   22.8270 H         1 UNK         0.0000 
     52 H52         3.6519   55.1846   22.8346 H         1 UNK         0.0000 
     53 H53         6.5040   54.7295   24.7269 H         1 UNK         0.0000 
     54 H54         6.0040   55.3561   27.2236 H         1 UNK         0.0000 
     55 H55         6.7127   53.7823   27.0227 H         1 UNK         0.0000 
     56 H56         4.6347   53.9062   28.5655 H         1 UNK         0.0000 
     57 H57         4.6502   52.6380   27.3688 H         1 UNK         0.0000 
     58 H58         2.4290   53.7553   27.4276 H         1 UNK         0.0000 
     59 H59         3.1731   55.2968   27.0986 H         1 UNK         0.0000 
     60 H60         2.9665   52.8966   25.2249 H         1 UNK         0.0000 
     61 H61         2.3010   54.4592   24.9614 H         1 UNK         0.0000 
     62 H62         9.0203   56.1753   19.2059 H         1 UNK         0.0000 
     63 H63         5.5358   58.3755   16.8582 H         1 UNK         0.0000 
@<TRIPOS>BOND
     1    1    2 1    
     2    1   36 1    
     3    1   37 1    
     4    1   38 1    
     5    2    3 1    
     6    2   39 1    
     7    2   40 1    
     8    3   16 1    
     9    3    4 1    
    10    3   63 1    
    11    4    5 1    
    12    4   41 1    
    13    4   42 1    
    14    5    6 1    
    15    5   43 1    
    16    5   44 1    
    17    6   14 1    
    18    6    7 2    
    19    7   12 1    
    20    7    8 1    
    21    8    9 2    
    22    8   45 1    
    23    9   10 1    
    24    9   46 1    
    25   10   11 2    
    26   10   47 1    
    27   11   12 1    
    28   11   48 1    
    29   12   13 2    
    30   13   14 1    
    31   13   62 1    
    32   14   15 1    
    33   14   16 1    
    34   16   17 1    
    35   16   18 1    
    36   18   25 ar   
    37   18   20 ar   
    38   19   21 1    
    39   20   35 1    
    40   20   21 ar   
    41   21   22 ar   
    42   22   23 2    
    43   22   24 ar   
    44   24   25 ar   
    45   24   27 1    
    46   25   26 2    
    47   27   28 1    
    48   27   49 1    
    49   27   50 1    
    50   28   29 1    
    51   28   51 1    
    52   28   52 1    
    53   29   34 1    
    54   29   30 2    
    55   30   31 1    
    56   30   53 1    
    57   31   32 1    
    58   31   54 1    
    59   31   55 1    
    60   32   33 1    
    61   32   56 1    
    62   32   57 1    
    63   33   34 1    
    64   33   58 1    
    65   33   59 1    
    66   34   60 1    
    67   34   61 1    
@<TRIPOS>SUBSTRUCTURE
     1 UNK         1 GROUP             0       ****    0 ROOT    
