ZINC07987370_206
                    3D
 Schrodinger Suite 2024-2.
 53 55  0  0  1  0            999 V2000
    1.9045   50.7261   17.3370 C   0  0  0  0  0  0
    1.3906   52.0431   17.9487 C   0  0  0  0  0  0
    3.6213   53.2825   17.6361 C   0  0  0  0  0  0
    4.4394   54.4395   18.2587 C   0  0  0  0  0  0
    4.7363   54.2128   19.7498 C   0  0  0  0  0  0
    4.0919   53.1785   20.4409 C   0  0  0  0  0  0
    4.5793   53.0893   22.0815 S   0  0  0  0  0  0
    5.6478   54.4503   21.8869 C   0  0  0  0  0  0
    5.6614   54.9431   20.5611 C   0  0  0  0  0  0
    6.4934   56.0819   20.1250 C   0  0  0  0  0  0
    7.5015   56.4561   20.7259 O   0  0  0  0  0  0
    5.9971   56.6915   19.0290 O   0  0  0  0  0  0
    6.6163   57.8471   18.4822 C   0  0  0  0  0  0
    5.8688   58.2599   17.2105 C   0  0  0  0  0  0
    6.4362   54.9151   22.9510 N   0  0  0  0  0  0
    6.2288   54.8857   24.2889 C   0  0  0  0  0  0
    7.1044   55.3014   25.0399 O   0  0  0  0  0  0
    5.0186   54.4748   24.7251 N   0  0  0  0  0  0
    4.5531   54.2965   26.0390 C   0  0  0  0  0  0
    3.1777   54.0959   26.1778 C   0  0  0  0  0  0
    2.6219   53.8875   27.4366 C   0  0  0  0  0  0
    3.4432   53.8773   28.5643 C   0  0  0  0  0  0
    4.8191   54.0661   28.4304 C   0  0  0  0  0  0
    5.3759   54.2695   27.1744 C   0  0  0  0  0  0
    2.8355   53.6320   29.9318 C   0  0  0  0  0  0
    3.1144   52.1794   19.8421 C   0  0  0  0  0  0
    1.0912   50.1829   16.8556 H   0  0  0  0  0  0
    2.3305   50.0545   18.0804 H   0  0  0  0  0  0
    2.6650   50.8969   16.5749 H   0  0  0  0  0  0
    0.9526   52.6955   17.1913 H   0  0  0  0  0  0
    0.6383   51.8752   18.7217 H   0  0  0  0  0  0
    4.2246   52.3881   17.4531 H   0  0  0  0  0  0
    3.1549   53.6046   16.7036 H   0  0  0  0  0  0
    5.3552   54.5773   17.6836 H   0  0  0  0  0  0
    3.8713   55.3670   18.1598 H   0  0  0  0  0  0
    6.5941   58.6617   19.2068 H   0  0  0  0  0  0
    7.6622   57.6432   18.2494 H   0  0  0  0  0  0
    6.3050   59.1628   16.7805 H   0  0  0  0  0  0
    5.9109   57.4765   16.4535 H   0  0  0  0  0  0
    4.8197   58.4729   17.4165 H   0  0  0  0  0  0
    7.2187   55.4916   22.6719 H   0  0  0  0  0  0
    4.3321   54.2865   24.0126 H   0  0  0  0  0  0
    2.5288   54.0968   25.3147 H   0  0  0  0  0  0
    1.5574   53.7335   27.5344 H   0  0  0  0  0  0
    5.4717   54.0528   29.2872 H   0  0  0  0  0  0
    6.4446   54.3903   27.1130 H   0  0  0  0  0  0
    2.0799   52.8482   29.8749 H   0  0  0  0  0  0
    3.5852   53.2959   30.6499 H   0  0  0  0  0  0
    2.3494   54.5381   30.2925 H   0  0  0  0  0  0
    2.2830   51.9392   20.5081 H   0  0  0  0  0  0
    3.6005   51.2619   19.5082 H   0  0  0  0  0  0
    2.4962   52.8968   18.6227 N   0  3  2  0  0  0
    2.0442   53.7521   18.9368 H   0  0  0  0  0  0
  1  2  1  0  0  0
  1 27  1  0  0  0
  1 28  1  0  0  0
  1 29  1  0  0  0
  2 30  1  0  0  0
  2 31  1  0  0  0
  2 52  1  0  0  0
  3  4  1  0  0  0
  3 32  1  0  0  0
  3 33  1  0  0  0
  3 52  1  0  0  0
  4  5  1  0  0  0
  4 34  1  0  0  0
  4 35  1  0  0  0
  5  9  1  0  0  0
  5  6  2  0  0  0
  6  7  1  0  0  0
  6 26  1  0  0  0
  7  8  1  0  0  0
  8  9  2  0  0  0
  8 15  1  0  0  0
  9 10  1  0  0  0
 10 11  2  0  0  0
 10 12  1  0  0  0
 12 13  1  0  0  0
 13 14  1  0  0  0
 13 36  1  0  0  0
 13 37  1  0  0  0
 14 38  1  0  0  0
 14 39  1  0  0  0
 14 40  1  0  0  0
 15 16  1  0  0  0
 15 41  1  0  0  0
 16 17  2  0  0  0
 16 18  1  0  0  0
 18 19  1  0  0  0
 18 42  1  0  0  0
 19 24  2  0  0  0
 19 20  1  0  0  0
 20 21  2  0  0  0
 20 43  1  0  0  0
 21 22  1  0  0  0
 21 44  1  0  0  0
 22 23  2  0  0  0
 22 25  1  0  0  0
 23 24  1  0  0  0
 23 45  1  0  0  0
 24 46  1  0  0  0
 25 47  1  0  0  0
 25 48  1  0  0  0
 25 49  1  0  0  0
 26 50  1  0  0  0
 26 51  1  0  0  0
 26 52  1  0  0  0
 52 53  1  0  0  0
M  CHG  1  52   1
M  END
> <i_i_glide_confnum>
85

> <i_i_glide_lignum>
207

> <i_i_glide_posenum>
381

> <i_i_glide_rotatable_bonds>
8

> <i_m_Source_File_Index>
4362

> <b_m_subgroup_collapsed>
0

> <r_i_docking_score>
-5.18587

> <r_i_glide_ecoul>
-5.89061

> <r_i_glide_eff_state_penalty>
0

> <r_i_glide_einternal>
10.2026

> <r_i_glide_emodel>
-54.0832

> <r_i_glide_energy>
-44.7475

> <r_i_glide_erotb>
0.774555

> <r_i_glide_esite>
-0.00977947

> <r_i_glide_evdw>
-38.8569

> <r_i_glide_gscore>
-5.18587

> <r_i_glide_hbond>
-0.506296

> <r_i_glide_ligand_efficiency>
-0.192069

> <r_i_glide_ligand_efficiency_ln>
-1.20718

> <r_i_glide_ligand_efficiency_sa>
-0.576208

> <r_i_glide_lipo>
-1.97256

> <r_i_glide_metal>
0

> <r_i_glide_rewards>
-0.64535

> <s_i_glide_gridfile>
wee1_glide-grid

> <s_m_Source_File>
wee1_decoys_glide_SP.sdf

> <s_m_Source_Path>
/Users/zhangxujun/Desktop

> <s_m_entry_id>
4637

> <s_m_entry_name>
wee1_decoys_glide_SP.4362

> <s_m_subgroup_title>
wee1_decoys_glide_SP

> <s_m_subgroupid>
wee1_decoys_glide_SP


$$$$
