ZINC14855608_698
                    3D
 Schrodinger Suite 2024-2.
 66 71  0  0  1  0            999 V2000
    3.7686   53.6907   30.0817 C   0  0  0  0  0  0
    3.7907   54.1084   28.6055 C   0  0  2  0  0  0
    3.1288   53.0360   27.7279 C   0  0  0  0  0  0
    2.9830   53.4935   26.2640 C   0  0  0  0  0  0
    4.2981   54.0955   25.7527 C   0  0  0  0  0  0
    5.2936   54.4995   26.6461 C   0  0  0  0  0  0
    6.7045   55.1563   25.8854 S   0  0  0  0  0  0
    6.0227   54.8600   24.3172 C   0  0  0  0  0  0
    4.7145   54.2874   24.3777 C   0  0  0  0  0  0
    4.1516   53.9915   23.1001 C   0  0  0  0  0  0
    4.8335   54.2705   21.9547 N   0  0  0  0  0  0
    6.0457   54.8737   22.0477 C   0  0  0  0  0  0
    6.6954   55.1581   23.2049 N   0  0  0  0  0  0
    6.7057   55.2973   20.7691 C   0  0  0  0  0  0
    6.0147   55.3042   19.5432 C   0  0  0  0  0  0
    6.6566   55.6920   18.3662 C   0  0  0  0  0  0
    7.9961   56.0698   18.4356 C   0  0  0  0  0  0
    8.6969   56.0769   19.5946 N   0  0  0  0  0  0
    8.0535   55.6967   20.7266 C   0  0  0  0  0  0
    2.9002   53.4040   22.9365 N   0  0  0  0  0  0
    1.6955   54.0893   23.4108 C   0  0  0  0  0  0
    0.5587   53.0964   23.7313 C   0  0  0  0  0  0
    0.1360   52.3788   22.5232 N   0  0  0  0  0  0
    1.3038   51.6935   21.9361 C   0  0  0  0  0  0
    2.5408   52.6075   21.7458 C   0  0  0  0  0  0
   -0.9921   51.4239   22.7220 C   0  0  1  0  0  0
   -1.9492   51.7610   23.8817 C   0  0  0  0  0  0
   -2.9014   52.7788   23.7593 C   0  0  0  0  0  0
   -3.7429   53.0876   24.8229 C   0  0  0  0  0  0
   -3.6259   52.3855   26.0190 C   0  0  0  0  0  0
   -2.6737   51.3796   26.1618 C   0  0  0  0  0  0
   -1.8361   51.0694   25.0946 C   0  0  0  0  0  0
   -1.7457   51.1792   21.3826 C   0  0  0  0  0  0
   -2.0215   52.0956   20.6077 O   0  0  0  0  0  0
   -2.1384   49.9344   21.1109 N   0  0  0  0  0  0
    5.2505   54.3272   28.1577 C   0  0  0  0  0  0
    4.2567   52.7266   30.2340 H   0  0  0  0  0  0
    4.2969   54.4238   30.6903 H   0  0  0  0  0  0
    2.7474   53.6067   30.4544 H   0  0  0  0  0  0
    3.2540   55.0563   28.5269 H   0  0  0  0  0  0
    3.6862   52.1038   27.8049 H   0  0  0  0  0  0
    2.1413   52.7898   28.1222 H   0  0  0  0  0  0
    2.1735   54.2192   26.2212 H   0  0  0  0  0  0
    2.6953   52.6309   25.6638 H   0  0  0  0  0  0
    4.9762   55.0097   19.4922 H   0  0  0  0  0  0
    6.1263   55.6983   17.4241 H   0  0  0  0  0  0
    8.5310   56.3752   17.5478 H   0  0  0  0  0  0
    8.6631   55.7065   21.6188 H   0  0  0  0  0  0
    1.9110   54.7483   24.2451 H   0  0  0  0  0  0
    1.3624   54.7681   22.6242 H   0  0  0  0  0  0
   -0.2768   53.6977   24.0888 H   0  0  0  0  0  0
    0.8689   52.4091   24.5191 H   0  0  0  0  0  0
    1.6222   50.9050   22.6207 H   0  0  0  0  0  0
    1.0509   51.2448   20.9742 H   0  0  0  0  0  0
    3.3913   52.0037   21.4265 H   0  0  0  0  0  0
    2.3102   53.2970   20.9345 H   0  0  0  0  0  0
   -0.5607   50.4531   22.9786 H   0  0  0  0  0  0
   -2.9823   53.3378   22.8423 H   0  0  0  0  0  0
   -4.4783   53.8704   24.7200 H   0  0  0  0  0  0
   -4.2773   52.6239   26.8455 H   0  0  0  0  0  0
   -2.5835   50.8367   27.0930 H   0  0  0  0  0  0
   -1.0983   50.2909   25.2203 H   0  0  0  0  0  0
   -1.9575   49.1778   21.7531 H   0  0  0  0  0  0
   -2.6385   49.7617   20.2535 H   0  0  0  0  0  0
    5.8608   53.4641   28.4276 H   0  0  0  0  0  0
    5.6818   55.1917   28.6649 H   0  0  0  0  0  0
  1  2  1  0  0  0
  1 37  1  0  0  0
  1 38  1  0  0  0
  1 39  1  0  0  0
  2 36  1  0  0  0
  2  3  1  0  0  0
  2 40  1  0  0  0
  3  4  1  0  0  0
  3 41  1  0  0  0
  3 42  1  0  0  0
  4  5  1  0  0  0
  4 43  1  0  0  0
  4 44  1  0  0  0
  5  9  1  0  0  0
  5  6  2  0  0  0
  6  7  1  0  0  0
  6 36  1  0  0  0
  7  8  1  0  0  0
  8 13  2  0  0  0
  8  9  1  0  0  0
  9 10  2  0  0  0
 10 11  1  0  0  0
 10 20  1  0  0  0
 11 12  2  0  0  0
 12 13  1  0  0  0
 12 14  1  0  0  0
 14 19  2  0  0  0
 14 15  1  0  0  0
 15 16  2  0  0  0
 15 45  1  0  0  0
 16 17  1  0  0  0
 16 46  1  0  0  0
 17 18  2  0  0  0
 17 47  1  0  0  0
 18 19  1  0  0  0
 19 48  1  0  0  0
 20 25  1  0  0  0
 20 21  1  0  0  0
 21 22  1  0  0  0
 21 49  1  0  0  0
 21 50  1  0  0  0
 22 23  1  0  0  0
 22 51  1  0  0  0
 22 52  1  0  0  0
 23 24  1  0  0  0
 23 26  1  0  0  0
 24 25  1  0  0  0
 24 53  1  0  0  0
 24 54  1  0  0  0
 25 55  1  0  0  0
 25 56  1  0  0  0
 26 27  1  0  0  0
 26 33  1  0  0  0
 26 57  1  0  0  0
 27 32  2  0  0  0
 27 28  1  0  0  0
 28 29  2  0  0  0
 28 58  1  0  0  0
 29 30  1  0  0  0
 29 59  1  0  0  0
 30 31  2  0  0  0
 30 60  1  0  0  0
 31 32  1  0  0  0
 31 61  1  0  0  0
 32 62  1  0  0  0
 33 34  2  0  0  0
 33 35  1  0  0  0
 35 63  1  0  0  0
 35 64  1  0  0  0
 36 65  1  0  0  0
 36 66  1  0  0  0
M  END
> <i_i_glide_confnum>
17

> <i_i_glide_lignum>
699

> <i_i_glide_posenum>
173

> <i_i_glide_rotatable_bonds>
5

> <i_m_Source_File_Index>
5278

> <b_m_subgroup_collapsed>
0

> <r_i_docking_score>
-7.52775

> <r_i_glide_ecoul>
-4.41805

> <r_i_glide_eff_state_penalty>
0

> <r_i_glide_einternal>
4.74031

> <r_i_glide_emodel>
-79.6353

> <r_i_glide_energy>
-56.9895

> <r_i_glide_erotb>
0.328298

> <r_i_glide_esite>
-0.00746187

> <r_i_glide_evdw>
-52.5714

> <r_i_glide_gscore>
-7.52775

> <r_i_glide_hbond>
-0.267559

> <r_i_glide_ligand_efficiency>
-0.209104

> <r_i_glide_ligand_efficiency_ln>
-1.64235

> <r_i_glide_ligand_efficiency_sa>
-0.690446

> <r_i_glide_lipo>
-3.6151

> <r_i_glide_metal>
0

> <r_i_glide_rewards>
-0.67465

> <s_i_glide_gridfile>
wee1_glide-grid

> <s_m_Source_File>
wee1_decoys_glide_SP.sdf

> <s_m_Source_Path>
/Users/zhangxujun/Desktop

> <s_m_entry_id>
5553

> <s_m_entry_name>
wee1_decoys_glide_SP.5278

> <s_m_subgroup_title>
wee1_decoys_glide_SP

> <s_m_subgroupid>
wee1_decoys_glide_SP


$$$$
