@<TRIPOS>MOLECULE
ZINC43587435_1596
48   49    1
SMALL
USER_CHARGES


@<TRIPOS>ATOM
      1 C1          4.7029   51.4692   21.2866 C.3       1 UNK         0.0000 
      2 C2          4.5041   52.9113   21.7991 C.3       1 UNK         0.0000 
      3 C3          3.3352   53.6226   21.0920 C.3       1 UNK         0.0000 
      4 C4          2.0277   52.7892   21.1249 C.3       1 UNK         0.0000 
      5 H5          1.2652   53.2838   20.5229 H         1 UNK         0.0000 
      6 C6          2.2531   51.3760   20.5290 C.3       1 UNK         0.0000 
      7 H7          1.3312   50.7874   20.5207 H         1 UNK         0.0000 
      8 C8          3.3811   50.6532   21.2769 C.3       1 UNK         0.0000 
      9 N9          2.7022   51.5030   19.0557 N.4       1 UNK         0.0000 
     10 N10         1.4833   52.7265   22.4873 N.am      1 UNK         0.0000 
     11 C11         0.2175   52.4255   22.8390 C.2       1 UNK         0.0000 
     12 O12        -0.6104   52.0958   21.9845 O.2       1 UNK         0.0000 
     13 N13        -0.0645   52.4737   24.1752 N.am      1 UNK         0.0000 
     14 C14        -1.4802   52.3072   24.5886 C.3       1 UNK         0.0000 
     15 C15        -1.5351   51.4831   25.8885 C.3       1 UNK         0.0000 
     16 C16        -0.6862   52.1163   26.9906 C.3       1 UNK         0.0000 
     17 C17         0.7765   52.2289   26.5260 C.3       1 UNK         0.0000 
     18 H18         1.1046   51.2085   26.3210 H         1 UNK         0.0000 
     19 C19         0.9098   52.9977   25.1770 C.3       1 UNK         0.0000 
     20 C20         1.7080   52.8255   27.6134 C.3       1 UNK         0.0000 
     21 C21         1.8626   51.9432   28.8818 C.3       1 UNK         0.0000 
     22 C22         2.8400   52.5247   29.9207 C.2       1 UNK         0.0000 
     23 O23         3.5046   51.6969   30.5819 O.co2     1 UNK         0.0000 
     24 O24         2.8882   53.7662   30.0814 O.co2     1 UNK         0.0000 
     25 H25         5.4338   50.9852   21.9294 H         1 UNK         0.0000 
     26 H26         5.1422   51.4883   20.2877 H         1 UNK         0.0000 
     27 H27         4.3218   52.8973   22.8740 H         1 UNK         0.0000 
     28 H28         5.4237   53.4820   21.6650 H         1 UNK         0.0000 
     29 H29         3.6076   53.8609   20.0625 H         1 UNK         0.0000 
     30 H30         3.1632   54.5898   21.5710 H         1 UNK         0.0000 
     31 H31         3.0837   50.4606   22.3087 H         1 UNK         0.0000 
     32 H32         3.5100   49.6968   20.7884 H         1 UNK         0.0000 
     33 H33         3.5757   52.0070   18.9979 H         1 UNK         0.0000 
     34 H34         2.8761   50.5926   18.6446 H         1 UNK         0.0000 
     35 H35         2.1471   52.8830   23.2294 H         1 UNK         0.0000 
     36 H36        -2.0683   51.7533   23.8548 H         1 UNK         0.0000 
     37 H37        -1.9127   53.2933   24.7585 H         1 UNK         0.0000 
     38 H38        -1.2081   50.4574   25.7013 H         1 UNK         0.0000 
     39 H39        -2.5702   51.4019   26.2245 H         1 UNK         0.0000 
     40 H40        -0.7587   51.5154   27.8984 H         1 UNK         0.0000 
     41 H41        -1.0742   53.0977   27.2689 H         1 UNK         0.0000 
     42 H42         0.7415   54.0684   25.2838 H         1 UNK         0.0000 
     43 H43         1.9383   52.8056   24.8711 H         1 UNK         0.0000 
     44 H44         1.3445   53.8174   27.8890 H         1 UNK         0.0000 
     45 H45         2.6987   52.9796   27.1795 H         1 UNK         0.0000 
     46 H46         2.2006   50.9455   28.5954 H         1 UNK         0.0000 
     47 H47         0.9062   51.8203   29.3889 H         1 UNK         0.0000 
     48 H48         2.0104   51.9830   18.4980 H         1 UNK         0.0000 
@<TRIPOS>BOND
     1    1    8 1    
     2    1    2 1    
     3    1   25 1    
     4    1   26 1    
     5    2    3 1    
     6    2   27 1    
     7    2   28 1    
     8    3    4 1    
     9    3   29 1    
    10    3   30 1    
    11    4    5 1    
    12    4    6 1    
    13    4   10 1    
    14    6    7 1    
    15    6    8 1    
    16    6    9 1    
    17    8   31 1    
    18    8   32 1    
    19    9   33 1    
    20    9   34 1    
    21    9   48 1    
    22   10   11 am   BACKBONE|DICT|INTERRES
    23   10   35 1    
    24   11   12 2    
    25   11   13 am   BACKBONE|DICT|INTERRES
    26   13   19 1    
    27   13   14 1    
    28   14   15 1    
    29   14   36 1    
    30   14   37 1    
    31   15   16 1    
    32   15   38 1    
    33   15   39 1    
    34   16   17 1    
    35   16   40 1    
    36   16   41 1    
    37   17   18 1    
    38   17   19 1    
    39   17   20 1    
    40   19   42 1    
    41   19   43 1    
    42   20   21 1    
    43   20   44 1    
    44   20   45 1    
    45   21   22 1    
    46   21   46 1    
    47   21   47 1    
    48   22   23 2    
    49   22   24 1    
@<TRIPOS>SUBSTRUCTURE
     1 UNK         1 GROUP             0       ****    0 ROOT    
