ZINC39939553_752
                    3D
 Schrodinger Suite 2024-2.
 61 66  0  0  1  0            999 V2000
    0.6848   51.5492   23.7666 C   0  0  0  0  0  0
    1.8223   52.4975   24.1704 C   0  0  1  0  0  0
    2.7044   51.8871   24.3080 H   0  0  0  0  0  0
    2.0816   53.5556   23.0923 C   0  0  0  0  0  0
    3.0352   54.6948   23.4977 C   0  0  0  0  0  0
    4.2467   54.3220   24.2533 N   0  0  0  0  0  0
    4.2494   54.2389   25.6945 C   0  0  0  0  0  0
    5.3787   54.5976   26.4713 C   0  0  0  0  0  0
    5.4152   54.4967   27.8568 C   0  0  0  0  0  0
    4.2994   54.0505   28.5429 C   0  0  0  0  0  0
    3.1567   53.7121   27.8320 C   0  0  0  0  0  0
    3.1091   53.7868   26.4353 C   0  0  0  0  0  0
    1.5294   53.2885   25.7647 S   0  0  0  0  0  0
    5.3852   54.0056   23.5372 C   0  0  0  0  0  0
    6.4634   53.7003   24.0511 O   0  0  0  0  0  0
    5.3894   53.9366   22.0008 C   0  0  0  0  0  0
    6.3038   55.2967   21.2098 S   0  0  0  0  0  0
    6.3942   54.6916   19.4817 C   0  0  1  0  0  0
    7.3033   54.0981   19.3836 H   0  0  0  0  0  0
    5.2518   53.9038   19.0314 N   0  0  0  0  0  0
    4.4154   54.6919   18.2444 N   0  0  0  0  0  0
    5.0624   55.7349   17.9527 C   0  0  0  0  0  0
    6.3396   55.7411   18.4812 N   0  0  0  0  0  0
    7.3601   56.7890   18.4616 C   0  0  0  0  0  0
    8.8161   56.3567   18.4375 C   0  0  0  0  0  0
    8.1890   56.9353   17.1996 C   0  0  0  0  0  0
    4.4733   56.8127   17.1753 C   0  0  0  0  0  0
    3.2600   56.8136   16.5666 C   0  0  0  0  0  0
    2.2047   55.7899   16.4163 C   0  0  0  0  0  0
    1.0414   56.0731   15.7983 C   0  0  0  0  0  0
    0.8499   57.4195   15.2850 C   0  0  0  0  0  0
    1.8033   58.3779   15.4108 C   0  0  0  0  0  0
    3.0145   58.0949   16.0531 C   0  0  0  0  0  0
    4.0205   58.8967   16.2963 N   0  3  0  0  0  0
    5.0954   58.1816   16.9883 C   0  0  0  0  0  0
    0.9043   51.0493   22.8220 H   0  0  0  0  0  0
    0.5386   50.7705   24.5166 H   0  0  0  0  0  0
   -0.2597   52.0842   23.6499 H   0  0  0  0  0  0
    2.4433   53.0560   22.1931 H   0  0  0  0  0  0
    1.1389   54.0175   22.7954 H   0  0  0  0  0  0
    3.2805   55.2967   22.6246 H   0  0  0  0  0  0
    2.4775   55.3700   24.1452 H   0  0  0  0  0  0
    6.2638   54.9994   26.0036 H   0  0  0  0  0  0
    6.3033   54.7848   28.3992 H   0  0  0  0  0  0
    4.3173   53.9713   29.6195 H   0  0  0  0  0  0
    2.2912   53.3689   28.3804 H   0  0  0  0  0  0
    5.8826   53.0018   21.7349 H   0  0  0  0  0  0
    4.4048   53.8461   21.5541 H   0  0  0  0  0  0
    5.5239   53.1136   18.4574 H   0  0  0  0  0  0
    7.1002   57.6843   19.0280 H   0  0  0  0  0  0
    9.5399   56.9487   19.0010 H   0  0  0  0  0  0
    9.0686   55.2955   18.4495 H   0  0  0  0  0  0
    7.9850   56.2781   16.3532 H   0  0  0  0  0  0
    8.4764   57.9393   16.8816 H   0  0  0  0  0  0
    2.3267   54.7823   16.7844 H   0  0  0  0  0  0
    0.2752   55.3201   15.6848 H   0  0  0  0  0  0
   -0.0785   57.6650   14.7912 H   0  0  0  0  0  0
    1.6055   59.3642   15.0180 H   0  0  0  0  0  0
    5.3182   58.7211   17.9077 H   0  0  0  0  0  0
    5.9646   58.1923   16.3331 H   0  0  0  0  0  0
    4.0587   59.9003   16.0824 H   0  0  0  0  0  0
  1  2  1  0  0  0
  1 36  1  0  0  0
  1 37  1  0  0  0
  1 38  1  0  0  0
  2  3  1  0  0  0
  2 13  1  0  0  0
  2  4  1  0  0  0
  4  5  1  0  0  0
  4 39  1  0  0  0
  4 40  1  0  0  0
  5  6  1  0  0  0
  5 41  1  0  0  0
  5 42  1  0  0  0
  6  7  1  0  0  0
  6 14  1  0  0  0
  7 12  2  0  0  0
  7  8  1  0  0  0
  8  9  2  0  0  0
  8 43  1  0  0  0
  9 10  1  0  0  0
  9 44  1  0  0  0
 10 11  2  0  0  0
 10 45  1  0  0  0
 11 12  1  0  0  0
 11 46  1  0  0  0
 12 13  1  0  0  0
 14 15  2  0  0  0
 14 16  1  0  0  0
 16 17  1  0  0  0
 16 47  1  0  0  0
 16 48  1  0  0  0
 17 18  1  0  0  0
 18 19  1  0  0  0
 18 23  1  0  0  0
 18 20  1  0  0  0
 20 21  1  0  0  0
 20 49  1  0  0  0
 21 22  2  0  0  0
 22 23  1  0  0  0
 22 27  1  0  0  0
 23 24  1  0  0  0
 24 26  1  0  0  0
 24 25  1  0  0  0
 24 50  1  0  0  0
 25 26  1  0  0  0
 25 51  1  0  0  0
 25 52  1  0  0  0
 26 53  1  0  0  0
 26 54  1  0  0  0
 27 35  1  0  0  0
 27 28  2  0  0  0
 28 33  1  0  0  0
 28 29  1  0  0  0
 29 30  2  0  0  0
 29 55  1  0  0  0
 30 31  1  0  0  0
 30 56  1  0  0  0
 31 32  2  0  0  0
 31 57  1  0  0  0
 32 33  1  0  0  0
 32 58  1  0  0  0
 33 34  2  0  0  0
 34 35  1  0  0  0
 34 61  1  0  0  0
 35 59  1  0  0  0
 35 60  1  0  0  0
M  CHG  1  34   1
M  END
> <i_i_glide_confnum>
28

> <i_i_glide_lignum>
753

> <i_i_glide_posenum>
226

> <i_i_glide_rotatable_bonds>
6

> <i_m_Source_File_Index>
3657

> <b_m_subgroup_collapsed>
0

> <r_i_docking_score>
-6.31383

> <r_i_glide_ecoul>
-3.99534

> <r_i_glide_eff_state_penalty>
0

> <r_i_glide_einternal>
12.0502

> <r_i_glide_emodel>
-58.889

> <r_i_glide_energy>
-44.5025

> <r_i_glide_erotb>
0.530732

> <r_i_glide_esite>
-0.122645

> <r_i_glide_evdw>
-40.5071

> <r_i_glide_gscore>
-6.31383

> <r_i_glide_hbond>
-0.2

> <r_i_glide_ligand_efficiency>
-0.191328

> <r_i_glide_ligand_efficiency_ln>
-1.40416

> <r_i_glide_ligand_efficiency_sa>
-0.613692

> <r_i_glide_lipo>
-2.81327

> <r_i_glide_metal>
0

> <r_i_glide_rewards>
-1.08399

> <s_i_glide_gridfile>
wee1_glide-grid

> <s_m_Source_File>
wee1_decoys_glide_SP.sdf

> <s_m_Source_Path>
/Users/zhangxujun/Desktop

> <s_m_entry_id>
3932

> <s_m_entry_name>
wee1_decoys_glide_SP.3657

> <s_m_subgroup_title>
wee1_decoys_glide_SP

> <s_m_subgroupid>
wee1_decoys_glide_SP


$$$$
