@<TRIPOS>MOLECULE
ZINC20154868_5464
53   56    1
SMALL
USER_CHARGES


@<TRIPOS>ATOM
      1 C1         10.2618   56.0317   16.0150 C.3       1 UNK         0.0000 
      2 C2          9.5374   55.0076   16.9088 C.3       1 UNK         0.0000 
      3 C3         10.4133   53.7656   17.1529 C.3       1 UNK         0.0000 
      4 C4          9.0667   55.6252   18.2414 C.3       1 UNK         0.0000 
      5 S5          7.8131   56.9471   18.1280 S.3       1 UNK         0.0000 
      6 C6          6.3200   55.9494   18.3235 C.2       1 UNK         0.0000 
      7 N7          5.5629   55.8591   17.3125 N.2       1 UNK         0.0000 
      8 S8          4.2883   54.8378   17.6688 S.3       1 UNK         0.0000 
      9 C9          4.8682   54.5099   19.3117 C.2       1 UNK         0.0000 
     10 N10         4.3050   53.7145   20.1381 N.am      1 UNK         0.0000 
     11 C11         4.8974   53.4989   21.3865 C.2       1 UNK         0.0000 
     12 O12         4.7712   52.4963   22.0817 O.2       1 UNK         0.0000 
     13 C13         5.8164   54.5663   21.8392 C.2       1 UNK         0.0000 
     14 C14         5.9362   54.8970   23.1589 C.2       1 UNK         0.0000 
     15 C15         5.2007   54.4429   24.3589 C.ar      1 UNK         0.0000 
     16 C16         5.9035   54.2630   25.5505 C.ar      1 UNK         0.0000 
     17 C17         5.2482   53.8719   26.7172 C.ar      1 UNK         0.0000 
     18 C18         3.8576   53.6721   26.7147 C.ar      1 UNK         0.0000 
     19 C19         3.1539   53.8141   25.5064 C.ar      1 UNK         0.0000 
     20 C20         3.8192   54.2228   24.3530 C.ar      1 UNK         0.0000 
     21 Cl21        1.4723   53.4386   25.3843 Cl        1 UNK         0.0000 
     22 O22         3.2484   53.2044   27.8619 O.3       1 UNK         0.0000 
     23 C23         2.3873   53.9904   28.5693 C.2       1 UNK         0.0000 
     24 O24         1.9758   55.1064   28.2441 O.2       1 UNK         0.0000 
     25 C25         2.0120   53.3208   29.8043 C.2       1 UNK         0.0000 
     26 C26         2.6489   52.3474   30.5673 C.2       1 UNK         0.0000 
     27 C27         1.8227   52.0964   31.6646 C.2       1 UNK         0.0000 
     28 C28         0.7040   52.8968   31.5012 C.2       1 UNK         0.0000 
     29 O29         0.8314   53.6624   30.3867 O.3       1 UNK         0.0000 
     30 O30         6.0161   53.6401   27.8302 O.3       1 UNK         0.0000 
     31 C31         5.8750   54.6028   28.8581 C.3       1 UNK         0.0000 
     32 C32         6.5662   55.3372   20.8290 C.2       1 UNK         0.0000 
     33 N33         7.6194   56.0032   21.0572 N.2       1 UNK         0.0000 
     34 N34         5.9901   55.3017   19.5222 N.pl3     1 UNK         0.0000 
     35 H35        11.1611   56.4160   16.4989 H         1 UNK         0.0000 
     36 H36         9.6216   56.8831   15.7795 H         1 UNK         0.0000 
     37 H37        10.5595   55.5837   15.0668 H         1 UNK         0.0000 
     38 H38         8.6481   54.6775   16.3679 H         1 UNK         0.0000 
     39 H39        11.2965   54.0069   17.7464 H         1 UNK         0.0000 
     40 H40         9.8622   52.9901   17.6854 H         1 UNK         0.0000 
     41 H41        10.7525   53.3262   16.2150 H         1 UNK         0.0000 
     42 H42         8.7188   54.8280   18.8992 H         1 UNK         0.0000 
     43 H43         9.9119   56.0596   18.7722 H         1 UNK         0.0000 
     44 H44         6.6550   55.6629   23.4186 H         1 UNK         0.0000 
     45 H45         6.9738   54.4054   25.5763 H         1 UNK         0.0000 
     46 H46         3.2492   54.3543   23.4450 H         1 UNK         0.0000 
     47 H47         3.6092   51.8985   30.3553 H         1 UNK         0.0000 
     48 H48         2.0041   51.4126   32.4818 H         1 UNK         0.0000 
     49 H49        -0.1952   53.0384   32.0816 H         1 UNK         0.0000 
     50 H50         6.7042   54.4966   29.5485 H         1 UNK         0.0000 
     51 H51         5.9046   55.6189   28.4644 H         1 UNK         0.0000 
     52 H52         4.9626   54.4728   29.4352 H         1 UNK         0.0000 
     53 H53         7.9454   55.9430   22.0127 H         1 UNK         0.0000 
@<TRIPOS>BOND
     1    1    2 1    
     2    1   35 1    
     3    1   36 1    
     4    1   37 1    
     5    2    3 1    
     6    2    4 1    
     7    2   38 1    
     8    3   39 1    
     9    3   40 1    
    10    3   41 1    
    11    4    5 1    
    12    4   42 1    
    13    4   43 1    
    14    5    6 1    
    15    6   34 1    
    16    6    7 2    
    17    7    8 1    
    18    8    9 1    
    19    9   34 1    
    20    9   10 2    BACKBONE|DICT|INTERRES
    21   10   11 am   BACKBONE|DICT|INTERRES
    22   11   12 2    
    23   11   13 1    
    24   13   14 2    
    25   13   32 1    
    26   14   15 1    
    27   14   44 1    
    28   15   20 ar   
    29   15   16 ar   
    30   16   17 ar   
    31   16   45 1    
    32   17   18 ar   
    33   17   30 1    
    34   18   19 ar   
    35   18   22 1    
    36   19   20 ar   
    37   19   21 1    
    38   20   46 1    
    39   22   23 1    
    40   23   24 2    
    41   23   25 1    
    42   25   29 1    
    43   25   26 2    
    44   26   27 1    
    45   26   47 1    
    46   27   28 2    
    47   27   48 1    
    48   28   29 1    
    49   28   49 1    
    50   30   31 1    
    51   31   50 1    
    52   31   51 1    
    53   31   52 1    
    54   32   33 2    
    55   32   34 1    
    56   33   53 1    
@<TRIPOS>SUBSTRUCTURE
     1 UNK         1 GROUP             0       ****    0 ROOT    
