@<TRIPOS>MOLECULE
ZINC39326670_3884
41   44    1
SMALL
USER_CHARGES


@<TRIPOS>ATOM
      1 C1          1.1045   54.8940   30.0807 C.3       1 UNK         0.0000 
      2 C2          1.7619   53.4959   30.0293 C.3       1 UNK         0.0000 
      3 H3          1.8416   53.1535   31.0625 H         1 UNK         0.0000 
      4 C4          0.9409   52.4368   29.2658 C.3       1 UNK         0.0000 
      5 C5          0.7320   52.8729   27.8049 C.3       1 UNK         0.0000 
      6 C6          2.0389   53.3200   27.1394 C.ar      1 UNK         0.0000 
      7 C7          3.1778   53.6602   27.9074 C.ar      1 UNK         0.0000 
      8 C8          4.3351   54.0713   27.2360 C.ar      1 UNK         0.0000 
      9 C9          4.3546   54.0964   25.8297 C.ar      1 UNK         0.0000 
     10 C10         5.3986   54.3881   24.8951 C.2       1 UNK         0.0000 
     11 C11         5.0041   54.2717   23.5567 C.2       1 UNK         0.0000 
     12 S12         3.2857   53.8821   23.4359 S.3       1 UNK         0.0000 
     13 C13         3.1520   53.7378   25.1731 C.ar      1 UNK         0.0000 
     14 N14         2.0324   53.3531   25.7805 N.ar      1 UNK         0.0000 
     15 C15         5.8084   54.4969   22.3323 C.2       1 UNK         0.0000 
     16 O16         6.9104   55.0397   22.4385 O.2       1 UNK         0.0000 
     17 C17         5.2457   54.2582   20.9622 C.ar      1 UNK         0.0000 
     18 C18         4.5473   53.0853   20.6400 C.ar      1 UNK         0.0000 
     19 C19         4.0504   52.8973   19.3528 C.ar      1 UNK         0.0000 
     20 C20         4.2764   53.8604   18.3746 C.ar      1 UNK         0.0000 
     21 C21         5.0083   55.0060   18.6682 C.ar      1 UNK         0.0000 
     22 C22         5.5049   55.1976   19.9538 C.ar      1 UNK         0.0000 
     23 F23         3.7888   53.6805   17.1263 F         1 UNK         0.0000 
     24 N24         6.6701   54.7232   25.2893 N.pl3     1 UNK         0.0000 
     25 C25         3.1852   53.5270   29.4335 C.3       1 UNK         0.0000 
     26 H26         1.0337   55.3526   29.0941 H         1 UNK         0.0000 
     27 H27         0.0975   54.8399   30.4966 H         1 UNK         0.0000 
     28 H28         1.6753   55.5819   30.7043 H         1 UNK         0.0000 
     29 H29         1.4385   51.4656   29.2937 H         1 UNK         0.0000 
     30 H30        -0.0388   52.3107   29.7307 H         1 UNK         0.0000 
     31 H31         0.0201   53.6963   27.7752 H         1 UNK         0.0000 
     32 H32         0.2713   52.0625   27.2372 H         1 UNK         0.0000 
     33 H33         5.2238   54.3216   27.7959 H         1 UNK         0.0000 
     34 H34         4.3850   52.3096   21.3741 H         1 UNK         0.0000 
     35 H35         3.5042   51.9989   19.1024 H         1 UNK         0.0000 
     36 H36         5.1869   55.7429   17.8998 H         1 UNK         0.0000 
     37 H37         6.0719   56.0942   20.1629 H         1 UNK         0.0000 
     38 H38         7.0090   54.4912   26.2121 H         1 UNK         0.0000 
     39 H39         7.3667   54.9205   24.5769 H         1 UNK         0.0000 
     40 H40         3.7011   52.6007   29.6906 H         1 UNK         0.0000 
     41 H41         3.7737   54.3292   29.8815 H         1 UNK         0.0000 
@<TRIPOS>BOND
     1    1    2 1    
     2    1   26 1    
     3    1   27 1    
     4    1   28 1    
     5    2    3 1    
     6    2   25 1    
     7    2    4 1    
     8    4    5 1    
     9    4   29 1    
    10    4   30 1    
    11    5    6 1    
    12    5   31 1    
    13    5   32 1    
    14    6   14 ar   
    15    6    7 ar   
    16    7    8 ar   
    17    7   25 1    
    18    8    9 ar   
    19    8   33 1    
    20    9   13 ar   
    21    9   10 1    
    22   10   11 2    
    23   10   24 1    
    24   11   12 1    
    25   11   15 1    
    26   12   13 1    
    27   13   14 ar   
    28   15   16 2    
    29   15   17 1    
    30   17   22 ar   
    31   17   18 ar   
    32   18   19 ar   
    33   18   34 1    
    34   19   20 ar   
    35   19   35 1    
    36   20   21 ar   
    37   20   23 1    
    38   21   22 ar   
    39   21   36 1    
    40   22   37 1    
    41   24   38 1    
    42   24   39 1    
    43   25   40 1    
    44   25   41 1    
@<TRIPOS>SUBSTRUCTURE
     1 UNK         1 GROUP             0       ****    0 ROOT    
