ZINC15676190_5010
                    3D
 Schrodinger Suite 2024-2.
 52 55  0  0  1  0            999 V2000
   -1.8931   47.2261   25.5838 C   0  0  0  0  0  0
   -3.1194   46.5790   25.6936 C   0  0  0  0  0  0
   -3.9258   46.4071   24.5637 C   0  0  0  0  0  0
   -3.4859   46.8885   23.3260 C   0  0  0  0  0  0
   -2.2575   47.5371   23.2195 C   0  0  0  0  0  0
   -1.4524   47.7106   24.3480 C   0  0  0  0  0  0
   -0.1184   48.4539   24.2107 C   0  0  0  0  0  0
    0.2948   49.2938   25.3358 N   0  0  0  0  0  0
   -0.3454   50.3949   25.7659 C   0  0  0  0  0  0
   -1.3811   50.8133   25.2455 O   0  0  0  0  0  0
    0.2747   51.1049   26.9996 C   0  0  2  0  0  0
    0.7436   50.2658   27.5114 H   0  0  0  0  0  0
   -0.8162   51.6972   27.9365 C   0  0  0  0  0  0
   -0.0898   52.1542   29.1787 C   0  0  0  0  0  0
    1.2520   52.4880   29.2362 C   0  0  0  0  0  0
    1.6534   52.7376   30.4732 N   0  0  0  0  0  0
    0.5987   52.4974   31.2155 C   0  0  0  0  0  0
   -0.4893   52.0998   30.4816 N   0  0  0  0  0  0
   -1.3801   51.7885   30.8478 H   0  0  0  0  0  0
    2.1296   52.4972   27.9981 C   0  0  0  0  0  0
    1.3839   52.0996   26.7574 N   0  0  0  0  0  0
    1.5043   52.8872   25.6397 C   0  0  0  0  0  0
    0.6095   53.0267   24.8077 O   0  0  0  0  0  0
    2.7446   53.4047   25.4740 N   0  0  0  0  0  0
    3.4132   53.7944   24.2993 C   0  0  0  0  0  0
    2.8526   53.7630   23.0132 C   0  0  0  0  0  0
    3.6322   54.0961   21.9098 C   0  0  0  0  0  0
    4.9628   54.4668   22.0818 C   0  0  0  0  0  0
    5.5302   54.4963   23.3540 C   0  0  0  0  0  0
    4.7527   54.1640   24.4608 C   0  0  0  0  0  0
    5.9051   54.9135   20.7091 Cl  0  0  0  0  0  0
   -5.2812   45.7059   24.6631 C   0  0  0  0  0  0
   -5.6488   45.4892   25.9274 F   0  0  0  0  0  0
   -5.2021   44.5256   24.0472 F   0  0  0  0  0  0
   -6.2267   46.4367   24.0713 F   0  0  0  0  0  0
   -1.2957   47.3523   26.4755 H   0  0  0  0  0  0
   -3.4335   46.2277   26.6670 H   0  0  0  0  0  0
   -4.1014   46.7707   22.4452 H   0  0  0  0  0  0
   -1.9397   47.9133   22.2578 H   0  0  0  0  0  0
    0.6580   47.7001   24.0822 H   0  0  0  0  0  0
   -0.1102   49.0609   23.3029 H   0  0  0  0  0  0
    1.0760   48.9526   25.8753 H   0  0  0  0  0  0
   -1.3336   52.5268   27.4544 H   0  0  0  0  0  0
   -1.5736   50.9476   28.1775 H   0  0  0  0  0  0
    0.5294   52.5322   32.2947 H   0  0  0  0  0  0
    3.0026   51.8547   28.1150 H   0  0  0  0  0  0
    2.5654   53.4946   27.9213 H   0  0  0  0  0  0
    3.3557   53.3130   26.2698 H   0  0  0  0  0  0
    1.8295   53.4729   22.8358 H   0  0  0  0  0  0
    3.1978   54.0756   20.9203 H   0  0  0  0  0  0
    6.5649   54.7807   23.4817 H   0  0  0  0  0  0
    5.2060   54.1789   25.4414 H   0  0  0  0  0  0
  1  6  2  0  0  0
  1  2  1  0  0  0
  1 36  1  0  0  0
  2  3  2  0  0  0
  2 37  1  0  0  0
  3  4  1  0  0  0
  3 32  1  0  0  0
  4  5  2  0  0  0
  4 38  1  0  0  0
  5  6  1  0  0  0
  5 39  1  0  0  0
  6  7  1  0  0  0
  7  8  1  0  0  0
  7 40  1  0  0  0
  7 41  1  0  0  0
  8  9  1  0  0  0
  8 42  1  0  0  0
  9 10  2  0  0  0
  9 11  1  0  0  0
 11 12  1  0  0  0
 11 21  1  0  0  0
 11 13  1  0  0  0
 13 14  1  0  0  0
 13 43  1  0  0  0
 13 44  1  0  0  0
 14 18  1  0  0  0
 14 15  2  0  0  0
 15 16  1  0  0  0
 15 20  1  0  0  0
 16 17  2  0  0  0
 17 18  1  0  0  0
 17 45  1  0  0  0
 18 19  1  0  0  0
 20 21  1  0  0  0
 20 46  1  0  0  0
 20 47  1  0  0  0
 21 22  1  0  0  0
 22 23  2  0  0  0
 22 24  1  0  0  0
 24 25  1  0  0  0
 24 48  1  0  0  0
 25 30  2  0  0  0
 25 26  1  0  0  0
 26 27  2  0  0  0
 26 49  1  0  0  0
 27 28  1  0  0  0
 27 50  1  0  0  0
 28 29  2  0  0  0
 28 31  1  0  0  0
 29 30  1  0  0  0
 29 51  1  0  0  0
 30 52  1  0  0  0
 32 33  1  0  0  0
 32 34  1  0  0  0
 32 35  1  0  0  0
M  END
> <i_i_glide_confnum>
1

> <i_i_glide_lignum>
5011

> <i_i_glide_posenum>
228

> <i_i_glide_rotatable_bonds>
8

> <i_m_Source_File_Index>
3694

> <b_m_subgroup_collapsed>
0

> <r_i_docking_score>
-4.89811

> <r_i_glide_ecoul>
-7.5033

> <r_i_glide_eff_state_penalty>
0

> <r_i_glide_einternal>
8.28069

> <r_i_glide_emodel>
-59.1706

> <r_i_glide_energy>
-47.7432

> <r_i_glide_erotb>
0.621055

> <r_i_glide_esite>
-0.332775

> <r_i_glide_evdw>
-40.2399

> <r_i_glide_gscore>
-4.89811

> <r_i_glide_hbond>
-0.0273641

> <r_i_glide_ligand_efficiency>
-0.148428

> <r_i_glide_ligand_efficiency_ln>
-1.08932

> <r_i_glide_ligand_efficiency_sa>
-0.476087

> <r_i_glide_lipo>
-1.53464

> <r_i_glide_metal>
0

> <r_i_glide_rewards>
-0.486904

> <s_i_glide_gridfile>
wee1_glide-grid

> <s_m_Source_File>
wee1_decoys_glide_SP.sdf

> <s_m_Source_Path>
/Users/zhangxujun/Desktop

> <s_m_entry_id>
3969

> <s_m_entry_name>
wee1_decoys_glide_SP.3694

> <s_m_subgroup_title>
wee1_decoys_glide_SP

> <s_m_subgroupid>
wee1_decoys_glide_SP


$$$$
