@<TRIPOS>MOLECULE
ZINC46938548_1820
45   47    1
SMALL
USER_CHARGES


@<TRIPOS>ATOM
      1 C1          0.8137   51.6953   23.3766 C.ar      1 UNK         0.0000 
      2 C2          1.0320   52.8823   24.0648 C.ar      1 UNK         0.0000 
      3 C3          2.0793   53.7145   23.6833 C.ar      1 UNK         0.0000 
      4 C4          2.9373   53.3792   22.6239 C.ar      1 UNK         0.0000 
      5 C5          2.6702   52.2009   21.8838 C.ar      1 UNK         0.0000 
      6 C6          1.6245   51.3640   22.2941 C.ar      1 UNK         0.0000 
      7 C7          3.4448   51.8584   20.6086 C.3       1 UNK         0.0000 
      8 C8          4.7914   52.5914   20.5020 C.3       1 UNK         0.0000 
      9 C9          4.6287   54.0832   20.8354 C.3       1 UNK         0.0000 
     10 C10         4.1438   54.2790   22.2876 C.3       1 UNK         0.0000 
     11 H11         3.7555   55.2962   22.3267 H         1 UNK         0.0000 
     12 C12         5.3262   54.1888   23.3005 C.3       1 UNK         0.0000 
     13 N13         4.9227   54.0978   24.7032 N.am      1 UNK         0.0000 
     14 C14         5.5685   54.5944   25.7744 C.2       1 UNK         0.0000 
     15 O15         6.6670   55.1505   25.6870 O.2       1 UNK         0.0000 
     16 N16         4.9400   54.3792   26.9589 N.am      1 UNK         0.0000 
     17 C17         5.5657   54.7194   28.2418 C.3       1 UNK         0.0000 
     18 C18         4.3921   54.7100   29.2247 C.3       1 UNK         0.0000 
     19 C19         3.4757   53.6378   28.6454 C.3       1 UNK         0.0000 
     20 H20         3.8251   52.6422   28.9286 H         1 UNK         0.0000 
     21 C21         3.5792   53.8291   27.1286 C.3       1 UNK         0.0000 
     22 C22         2.0213   53.6728   29.1576 C.2       1 UNK         0.0000 
     23 O23         1.6275   54.5490   29.9221 O.2       1 UNK         0.0000 
     24 N24         1.2068   52.6916   28.7676 N.am      1 UNK         0.0000 
     25 H25         0.0049   51.0403   23.6694 H         1 UNK         0.0000 
     26 H26         0.3969   53.1551   24.8954 H         1 UNK         0.0000 
     27 H27         2.2401   54.6284   24.2356 H         1 UNK         0.0000 
     28 H28         1.4164   50.4560   21.7448 H         1 UNK         0.0000 
     29 H29         2.8249   52.1484   19.7581 H         1 UNK         0.0000 
     30 H30         3.5947   50.7805   20.5171 H         1 UNK         0.0000 
     31 H31         5.1949   52.4819   19.4937 H         1 UNK         0.0000 
     32 H32         5.5060   52.1202   21.1745 H         1 UNK         0.0000 
     33 H33         3.9034   54.5132   20.1424 H         1 UNK         0.0000 
     34 H34         5.5626   54.6176   20.6577 H         1 UNK         0.0000 
     35 H35         5.9945   55.0399   23.1467 H         1 UNK         0.0000 
     36 H36         5.9350   53.3084   23.0913 H         1 UNK         0.0000 
     37 H37         4.0891   53.5531   24.8758 H         1 UNK         0.0000 
     38 H38         6.0442   55.6967   28.2175 H         1 UNK         0.0000 
     39 H39         6.2829   53.9435   28.5174 H         1 UNK         0.0000 
     40 H40         3.9075   55.6937   29.2369 H         1 UNK         0.0000 
     41 H41         4.7052   54.4970   30.2454 H         1 UNK         0.0000 
     42 H42         3.4195   52.8903   26.5929 H         1 UNK         0.0000 
     43 H43         2.8881   54.6078   26.8012 H         1 UNK         0.0000 
     44 H44         1.5269   51.9668   28.1446 H         1 UNK         0.0000 
     45 H45         0.2603   52.6730   29.1168 H         1 UNK         0.0000 
@<TRIPOS>BOND
     1    1    6 ar   
     2    1    2 ar   
     3    1   25 1    
     4    2    3 ar   
     5    2   26 1    
     6    3    4 ar   
     7    3   27 1    
     8    4   10 1    
     9    4    5 ar   
    10    5    6 ar   
    11    5    7 1    
    12    6   28 1    
    13    7    8 1    
    14    7   29 1    
    15    7   30 1    
    16    8    9 1    
    17    8   31 1    
    18    8   32 1    
    19    9   10 1    
    20    9   33 1    
    21    9   34 1    
    22   10   11 1    
    23   10   12 1    
    24   12   13 1    
    25   12   35 1    
    26   12   36 1    
    27   13   14 am   BACKBONE|DICT|INTERRES
    28   13   37 1    
    29   14   15 2    
    30   14   16 am   BACKBONE|DICT|INTERRES
    31   16   21 1    
    32   16   17 1    
    33   17   18 1    
    34   17   38 1    
    35   17   39 1    
    36   18   19 1    
    37   18   40 1    
    38   18   41 1    
    39   19   20 1    
    40   19   21 1    
    41   19   22 1    
    42   21   42 1    
    43   21   43 1    
    44   22   23 2    
    45   22   24 am   BACKBONE|DICT|INTERRES
    46   24   44 1    
    47   24   45 1    
@<TRIPOS>SUBSTRUCTURE
     1 UNK         1 GROUP             0       ****    0 ROOT    
