@<TRIPOS>MOLECULE
ZINC49503900_4050
65   69    1
SMALL
USER_CHARGES


@<TRIPOS>ATOM
      1 C1         -0.7124   51.9584   30.0051 C.3       1 UNK         0.0000 
      2 C2          0.6671   52.3425   29.5006 C.ar      1 UNK         0.0000 
      3 C3          0.8359   52.5927   28.1367 C.ar      1 UNK         0.0000 
      4 C4          2.0669   53.0136   27.6400 C.ar      1 UNK         0.0000 
      5 C5          3.1527   53.2019   28.5022 C.ar      1 UNK         0.0000 
      6 C6          2.9878   52.9171   29.8686 C.ar      1 UNK         0.0000 
      7 C7          1.7544   52.4967   30.3771 C.ar      1 UNK         0.0000 
      8 C8          1.6287   52.2165   31.8719 C.3       1 UNK         0.0000 
      9 N9          4.3904   53.6391   27.9742 N.am      1 UNK         0.0000 
     10 C10         4.9256   53.1506   26.7130 C.3       1 UNK         0.0000 
     11 C11         6.2838   53.7953   26.4831 C.3       1 UNK         0.0000 
     12 H12         7.0537   53.0308   26.3689 H         1 UNK         0.0000 
     13 C13         6.5153   54.5977   27.7519 C.3       1 UNK         0.0000 
     14 C14         5.2590   54.4645   28.6045 C.2       1 UNK         0.0000 
     15 O15         5.1043   55.0205   29.6817 O.2       1 UNK         0.0000 
     16 C16         6.3298   54.6037   25.1689 C.2       1 UNK         0.0000 
     17 O17         6.7045   55.7741   25.1628 O.2       1 UNK         0.0000 
     18 N18         5.9642   53.9098   24.0723 N.am      1 UNK         0.0000 
     19 C19         5.9349   54.3034   22.7306 C.ar      1 UNK         0.0000 
     20 C20         6.7044   55.3433   22.2036 C.ar      1 UNK         0.0000 
     21 C21         6.6001   55.6657   20.8548 C.ar      1 UNK         0.0000 
     22 C22         5.7902   54.9169   19.9917 C.ar      1 UNK         0.0000 
     23 C23         5.0197   53.8523   20.5172 C.ar      1 UNK         0.0000 
     24 C24         5.1067   53.5676   21.8827 C.ar      1 UNK         0.0000 
     25 C25         4.0873   53.0287   19.6378 C.3       1 UNK         0.0000 
     26 C26         4.2780   53.3396   18.1496 C.3       1 UNK         0.0000 
     27 C27         4.4821   54.8467   17.9383 C.3       1 UNK         0.0000 
     28 N28         5.7000   55.3028   18.6271 N.pl3     1 UNK         0.0000 
     29 S29         7.1859   55.3703   17.6249 S.o2      1 UNK         0.0000 
     30 O30         8.2775   55.9149   18.4410 O.2       1 UNK         0.0000 
     31 O31         7.3227   54.0721   16.9551 O.2       1 UNK         0.0000 
     32 C32         6.8088   56.6003   16.3811 C.ar      1 UNK         0.0000 
     33 C33         6.7387   57.9459   16.7483 C.ar      1 UNK         0.0000 
     34 C34         6.3759   58.8993   15.8018 C.ar      1 UNK         0.0000 
     35 C35         6.0883   58.5067   14.4969 C.ar      1 UNK         0.0000 
     36 C36         6.1554   57.1646   14.1281 C.ar      1 UNK         0.0000 
     37 C37         6.5106   56.2064   15.0737 C.ar      1 UNK         0.0000 
     38 H38        -1.4912   52.2120   29.2880 H         1 UNK         0.0000 
     39 H39        -0.7948   50.8967   30.2169 H         1 UNK         0.0000 
     40 H40        -0.9182   52.4993   30.9262 H         1 UNK         0.0000 
     41 H41         0.0064   52.4717   27.4552 H         1 UNK         0.0000 
     42 H42         2.1568   53.2129   26.5827 H         1 UNK         0.0000 
     43 H43         3.8253   53.0167   30.5437 H         1 UNK         0.0000 
     44 H44         2.6041   52.0971   32.3449 H         1 UNK         0.0000 
     45 H45         1.0776   51.3001   32.0816 H         1 UNK         0.0000 
     46 H46         1.0927   53.0260   32.3666 H         1 UNK         0.0000 
     47 H47         5.1048   52.0967   26.8818 H         1 UNK         0.0000 
     48 H48         4.2336   53.2310   25.8740 H         1 UNK         0.0000 
     49 H49         6.7048   55.6603   27.6005 H         1 UNK         0.0000 
     50 H50         7.3684   54.2099   28.3097 H         1 UNK         0.0000 
     51 H51         5.6036   52.9837   24.2426 H         1 UNK         0.0000 
     52 H52         7.3789   55.9145   22.8239 H         1 UNK         0.0000 
     53 H53         7.1733   56.4989   20.4826 H         1 UNK         0.0000 
     54 H54         4.5112   52.7583   22.2807 H         1 UNK         0.0000 
     55 H55         4.2216   51.9605   19.8156 H         1 UNK         0.0000 
     56 H56         3.0640   53.2685   19.9227 H         1 UNK         0.0000 
     57 H57         3.4191   52.9843   17.5790 H         1 UNK         0.0000 
     58 H58         5.1369   52.7877   17.7616 H         1 UNK         0.0000 
     59 H59         3.6554   55.4028   18.3851 H         1 UNK         0.0000 
     60 H60         4.4909   55.1000   16.8779 H         1 UNK         0.0000 
     61 H61         6.9476   58.2530   17.7631 H         1 UNK         0.0000 
     62 H62         6.3044   59.9425   16.0815 H         1 UNK         0.0000 
     63 H63         5.8019   59.2513   13.7684 H         1 UNK         0.0000 
     64 H64         5.9233   56.8676   13.1158 H         1 UNK         0.0000 
     65 H65         6.5473   55.1641   14.7900 H         1 UNK         0.0000 
@<TRIPOS>BOND
     1    1    2 1    
     2    1   38 1    
     3    1   39 1    
     4    1   40 1    
     5    2    7 ar   
     6    2    3 ar   
     7    3    4 ar   
     8    3   41 1    
     9    4    5 ar   
    10    4   42 1    
    11    5    6 ar   
    12    5    9 1    
    13    6    7 ar   
    14    6   43 1    
    15    7    8 1    
    16    8   44 1    
    17    8   45 1    
    18    8   46 1    
    19    9   14 am   BACKBONE|DICT|INTERRES
    20    9   10 1    
    21   10   11 1    
    22   10   47 1    
    23   10   48 1    
    24   11   12 1    
    25   11   13 1    
    26   11   16 1    
    27   13   14 1    
    28   13   49 1    
    29   13   50 1    
    30   14   15 2    
    31   16   17 2    
    32   16   18 am   BACKBONE|DICT|INTERRES
    33   18   19 1    
    34   18   51 1    
    35   19   24 ar   
    36   19   20 ar   
    37   20   21 ar   
    38   20   52 1    
    39   21   22 ar   
    40   21   53 1    
    41   22   28 1    
    42   22   23 ar   
    43   23   24 ar   
    44   23   25 1    
    45   24   54 1    
    46   25   26 1    
    47   25   55 1    
    48   25   56 1    
    49   26   27 1    
    50   26   57 1    
    51   26   58 1    
    52   27   28 1    
    53   27   59 1    
    54   27   60 1    
    55   28   29 1    
    56   29   30 2    
    57   29   31 2    
    58   29   32 1    
    59   32   37 ar   
    60   32   33 ar   
    61   33   34 ar   
    62   33   61 1    
    63   34   35 ar   
    64   34   62 1    
    65   35   36 ar   
    66   35   63 1    
    67   36   37 ar   
    68   36   64 1    
    69   37   65 1    
@<TRIPOS>SUBSTRUCTURE
     1 UNK         1 GROUP             0       ****    0 ROOT    
