@<TRIPOS>MOLECULE
ZINC38688477_6120
44   48    1
SMALL
USER_CHARGES


@<TRIPOS>ATOM
      1 C1          8.1676   53.0445   15.1836 C.ar      1 UNK         0.0000 
      2 C2          7.1087   52.9122   16.0724 C.ar      1 UNK         0.0000 
      3 C3          7.1059   53.7124   17.2217 C.ar      1 UNK         0.0000 
      4 C4          8.1504   54.6454   17.5122 C.ar      1 UNK         0.0000 
      5 C5          9.2069   54.7497   16.5678 C.ar      1 UNK         0.0000 
      6 C6          9.1930   53.9478   15.4260 C.ar      1 UNK         0.0000 
      7 Cl7        10.5477   55.8250   16.7620 Cl        1 UNK         0.0000 
      8 C8          7.9086   55.3060   18.7705 C.2       1 UNK         0.0000 
      9 C9          6.7552   54.8622   19.4188 C.2       1 UNK         0.0000 
     10 S10         5.8690   53.6960   18.4532 S.3       1 UNK         0.0000 
     11 C11         6.2730   55.1802   20.7729 C.2       1 UNK         0.0000 
     12 O12         6.7245   56.1021   21.4532 O.2       1 UNK         0.0000 
     13 O13         5.3109   54.2933   21.1862 O.3       1 UNK         0.0000 
     14 C14         4.8657   54.2426   22.4900 C.ar      1 UNK         0.0000 
     15 C15         3.4907   54.2291   22.7117 C.ar      1 UNK         0.0000 
     16 C16         2.9808   54.1785   24.0078 C.ar      1 UNK         0.0000 
     17 C17         3.8212   54.0961   25.1292 C.ar      1 UNK         0.0000 
     18 C18         5.2119   54.0969   24.8827 C.ar      1 UNK         0.0000 
     19 C19         5.7290   54.1628   23.5891 C.ar      1 UNK         0.0000 
     20 O20         6.1512   53.9975   25.8868 O.3       1 UNK         0.0000 
     21 C21         5.7310   53.8962   27.1667 C.2       1 UNK         0.0000 
     22 C22         4.4459   53.9123   27.5697 C.2       1 UNK         0.0000 
     23 C23         3.2805   54.0408   26.5801 C.3       1 UNK         0.0000 
     24 H24         2.8548   55.0177   26.7937 H         1 UNK         0.0000 
     25 C25         2.1553   53.0248   26.8383 C.2       1 UNK         0.0000 
     26 C26         1.8956   52.0685   27.8202 C.2       1 UNK         0.0000 
     27 C27         0.6657   51.4778   27.5277 C.2       1 UNK         0.0000 
     28 C28         0.2109   52.0958   26.3815 C.2       1 UNK         0.0000 
     29 O29         1.1060   53.0274   25.9719 O.3       1 UNK         0.0000 
     30 C30         4.1534   53.8355   28.9604 C.1       1 UNK         0.0000 
     31 N31         3.8990   53.7413   30.0820 N.1       1 UNK         0.0000 
     32 N32         6.8360   53.7451   27.9562 N.pl3     1 UNK         0.0000 
     33 Cl33        8.9906   56.4825   19.4252 Cl        1 UNK         0.0000 
     34 H34         8.1964   52.4349   14.2909 H         1 UNK         0.0000 
     35 H35         6.3129   52.2020   15.8876 H         1 UNK         0.0000 
     36 H36        10.0018   54.0240   14.7122 H         1 UNK         0.0000 
     37 H37         2.8119   54.2847   21.8724 H         1 UNK         0.0000 
     38 H38         1.9095   54.2176   24.1233 H         1 UNK         0.0000 
     39 H39         6.7992   54.1514   23.4416 H         1 UNK         0.0000 
     40 H40         2.5270   51.8139   28.6574 H         1 UNK         0.0000 
     41 H41         0.1638   50.6946   28.0795 H         1 UNK         0.0000 
     42 H42        -0.6781   51.9833   25.7785 H         1 UNK         0.0000 
     43 H43         6.7868   53.8822   28.9553 H         1 UNK         0.0000 
     44 H44         7.6840   53.3508   27.5766 H         1 UNK         0.0000 
@<TRIPOS>BOND
     1    1    6 ar   
     2    1    2 ar   
     3    1   34 1    
     4    2    3 ar   
     5    2   35 1    
     6    3   10 1    
     7    3    4 ar   
     8    4    5 ar   
     9    4    8 1    
    10    5    6 ar   
    11    5    7 1    
    12    6   36 1    
    13    8    9 2    
    14    8   33 1    
    15    9   10 1    
    16    9   11 1    
    17   11   12 2    
    18   11   13 1    
    19   13   14 1    
    20   14   19 ar   
    21   14   15 ar   
    22   15   16 ar   
    23   15   37 1    
    24   16   17 ar   
    25   16   38 1    
    26   17   23 1    
    27   17   18 ar   
    28   18   19 ar   
    29   18   20 1    
    30   19   39 1    
    31   20   21 1    
    32   21   22 2    
    33   21   32 1    
    34   22   23 1    
    35   22   30 1    
    36   23   24 1    
    37   23   25 1    
    38   25   29 1    
    39   25   26 2    
    40   26   27 1    
    41   26   40 1    
    42   27   28 2    
    43   27   41 1    
    44   28   29 1    
    45   28   42 1    
    46   30   31 3    
    47   32   43 1    
    48   32   44 1    
@<TRIPOS>SUBSTRUCTURE
     1 UNK         1 GROUP             0       ****    0 ROOT    
