@<TRIPOS>MOLECULE
ZINC61886369_4761
35   36    1
SMALL
USER_CHARGES


@<TRIPOS>ATOM
      1 C1          3.0837   53.9394   24.1822 C.ar      1 UNK         0.0000 
      2 C2          3.5447   54.0992   22.8787 C.ar      1 UNK         0.0000 
      3 C3          4.8914   54.3655   22.6489 C.ar      1 UNK         0.0000 
      4 C4          5.7798   54.4949   23.7137 C.ar      1 UNK         0.0000 
      5 C5          5.3210   54.3270   25.0181 C.ar      1 UNK         0.0000 
      6 C6          3.9738   54.0200   25.2674 C.ar      1 UNK         0.0000 
      7 C7          3.5307   53.6991   26.6800 C.2       1 UNK         0.0000 
      8 O8          4.2221   54.0125   27.6511 O.2       1 UNK         0.0000 
      9 N9          2.4043   52.9696   26.7942 N.am      1 UNK         0.0000 
     10 C10         1.9325   52.2727   27.9963 C.3       1 UNK         0.0000 
     11 H11         2.6664   51.4874   28.1913 H         1 UNK         0.0000 
     12 C12         0.6058   51.5704   27.6884 C.3       1 UNK         0.0000 
     13 C13        -0.4956   52.5513   28.0842 C.3       1 UNK         0.0000 
     14 C14         0.2005   53.6978   28.8340 C.3       1 UNK         0.0000 
     15 C15         1.6210   53.2083   29.1987 C.3       1 UNK         0.0000 
     16 H16         2.2583   54.0923   29.1812 H         1 UNK         0.0000 
     17 C17         1.8298   52.5471   30.5909 C.2       1 UNK         0.0000 
     18 N18         2.9594   52.0967   30.9853 N.2       1 UNK         0.0000 
     19 O19         4.0653   52.3000   30.1277 O.3       1 UNK         0.0000 
     20 N20         0.7049   52.4958   31.3787 N.pl3     1 UNK         0.0000 
     21 Br21        5.5043   54.5955   20.8631 Br        1 UNK         0.0000 
     22 H22         2.0349   53.7244   24.3251 H         1 UNK         0.0000 
     23 H23         2.8583   54.0208   22.0461 H         1 UNK         0.0000 
     24 H24         6.8220   54.7121   23.5281 H         1 UNK         0.0000 
     25 H25         6.0286   54.3949   25.8342 H         1 UNK         0.0000 
     26 H26         1.9494   52.7000   25.9370 H         1 UNK         0.0000 
     27 H27         0.5278   51.1979   26.6654 H         1 UNK         0.0000 
     28 H28         0.5158   50.6881   28.3200 H         1 UNK         0.0000 
     29 H29        -1.0270   52.9215   27.2073 H         1 UNK         0.0000 
     30 H30        -1.2321   52.0578   28.7203 H         1 UNK         0.0000 
     31 H31        -0.3797   54.0748   29.6780 H         1 UNK         0.0000 
     32 H32         0.2991   54.5629   28.1745 H         1 UNK         0.0000 
     33 H33         3.7185   52.8358   29.4053 H         1 UNK         0.0000 
     34 H34         0.7599   52.0982   32.3063 H         1 UNK         0.0000 
     35 H35        -0.2147   52.6110   30.9806 H         1 UNK         0.0000 
@<TRIPOS>BOND
     1    1    6 ar   
     2    1    2 ar   
     3    1   22 1    
     4    2    3 ar   
     5    2   23 1    
     6    3    4 ar   
     7    3   21 1    
     8    4    5 ar   
     9    4   24 1    
    10    5    6 ar   
    11    5   25 1    
    12    6    7 1    
    13    7    8 2    
    14    7    9 am   BACKBONE|DICT|INTERRES
    15    9   10 1    
    16    9   26 1    
    17   10   11 1    
    18   10   15 1    
    19   10   12 1    
    20   12   13 1    
    21   12   27 1    
    22   12   28 1    
    23   13   14 1    
    24   13   29 1    
    25   13   30 1    
    26   14   15 1    
    27   14   31 1    
    28   14   32 1    
    29   15   16 1    
    30   15   17 1    
    31   17   18 2    
    32   17   20 1    
    33   18   19 1    
    34   19   33 1    
    35   20   34 1    
    36   20   35 1    
@<TRIPOS>SUBSTRUCTURE
     1 UNK         1 GROUP             0       ****    0 ROOT    
