@<TRIPOS>MOLECULE
ZINC56607791_1548
48   51    1
SMALL
USER_CHARGES


@<TRIPOS>ATOM
      1 C1          5.3480   54.0930   26.4600 C.ar      1 UNK         0.0000 
      2 C2          4.9127   53.7808   27.7473 C.ar      1 UNK         0.0000 
      3 C3          3.5824   53.3981   27.9668 C.ar      1 UNK         0.0000 
      4 C4          2.6767   53.3914   26.9003 C.ar      1 UNK         0.0000 
      5 C5          3.1136   53.6968   25.6161 C.ar      1 UNK         0.0000 
      6 C6          4.4527   54.0181   25.3827 C.ar      1 UNK         0.0000 
      7 N7          4.8134   54.1450   24.0297 N.am      1 UNK         0.0000 
      8 C8          5.8972   54.7154   23.4546 C.2       1 UNK         0.0000 
      9 O9          6.8308   55.1660   24.1172 O.2       1 UNK         0.0000 
     10 N10         5.8349   54.8007   22.0855 N.am      1 UNK         0.0000 
     11 C11         6.7008   55.8012   21.4072 C.3       1 UNK         0.0000 
     12 C12         7.1880   55.2667   20.0450 C.3       1 UNK         0.0000 
     13 C13         6.0861   54.6651   19.1436 C.3       1 UNK         0.0000 
     14 C14         5.3062   53.6236   19.9616 C.3       1 UNK         0.0000 
     15 C15         4.7407   54.1649   21.2909 C.3       1 UNK         0.0000 
     16 N16         5.1559   55.6332   18.5654 N.am      1 UNK         0.0000 
     17 C17         5.4554   56.5873   17.6678 C.2       1 UNK         0.0000 
     18 O18         6.6022   56.8806   17.3301 O.2       1 UNK         0.0000 
     19 C19         4.3030   57.2139   17.0698 C.2       1 UNK         0.0000 
     20 C20         4.3209   58.4908   16.4823 C.2       1 UNK         0.0000 
     21 C21         3.1053   58.8578   15.9230 C.2       1 UNK         0.0000 
     22 S22         1.9227   57.6005   16.0370 S.3       1 UNK         0.0000 
     23 C23         3.0676   56.5891   16.8535 C.2       1 UNK         0.0000 
     24 N24         3.1706   52.9619   29.2481 N.pl3     1 UNK         0.0000 
     25 C25         3.9044   52.3456   30.2285 C.ar      1 UNK         0.0000 
     26 N26         3.1683   52.0965   31.2784 N.2       1 UNK         0.0000 
     27 C27         1.9780   52.5076   30.8779 C.ar      1 UNK         0.0000 
     28 N28         1.9062   53.0653   29.6873 N.2       1 UNK         0.0000 
     29 H29         6.3915   54.3248   26.3149 H         1 UNK         0.0000 
     30 H30         5.6264   53.8055   28.5585 H         1 UNK         0.0000 
     31 H31         1.6468   53.0995   27.0490 H         1 UNK         0.0000 
     32 H32         2.4096   53.6356   24.7984 H         1 UNK         0.0000 
     33 H33         4.0950   53.8499   23.3886 H         1 UNK         0.0000 
     34 H34         7.6015   56.0187   21.9861 H         1 UNK         0.0000 
     35 H35         6.1091   56.7043   21.2495 H         1 UNK         0.0000 
     36 H36         7.9606   54.5158   20.2052 H         1 UNK         0.0000 
     37 H37         7.7142   56.0642   19.5206 H         1 UNK         0.0000 
     38 H38         6.5690   54.1596   18.3028 H         1 UNK         0.0000 
     39 H39         4.4783   53.2407   19.3619 H         1 UNK         0.0000 
     40 H40         5.9037   52.7339   20.1423 H         1 UNK         0.0000 
     41 H41         4.3276   53.2858   21.7871 H         1 UNK         0.0000 
     42 H42         3.9589   54.8966   21.0908 H         1 UNK         0.0000 
     43 H43         4.1989   55.5671   18.8755 H         1 UNK         0.0000 
     44 H44         5.1803   59.1488   16.4925 H         1 UNK         0.0000 
     45 H45         2.8653   59.8048   15.4609 H         1 UNK         0.0000 
     46 H46         2.7755   55.5877   17.1353 H         1 UNK         0.0000 
     47 H47         4.9470   52.1067   30.0822 H         1 UNK         0.0000 
     48 H48         1.1073   52.4224   31.5156 H         1 UNK         0.0000 
@<TRIPOS>BOND
     1    1    6 ar   
     2    1    2 ar   
     3    1   29 1    
     4    2    3 ar   
     5    2   30 1    
     6    3    4 ar   
     7    3   24 1    
     8    4    5 ar   
     9    4   31 1    
    10    5    6 ar   
    11    5   32 1    
    12    6    7 1    
    13    7    8 am   BACKBONE|DICT|INTERRES
    14    7   33 1    
    15    8    9 2    
    16    8   10 am   BACKBONE|DICT|INTERRES
    17   10   15 1    
    18   10   11 1    
    19   11   12 1    
    20   11   34 1    
    21   11   35 1    
    22   12   13 1    
    23   12   36 1    
    24   12   37 1    
    25   13   14 1    
    26   13   16 1    
    27   13   38 1    
    28   14   15 1    
    29   14   39 1    
    30   14   40 1    
    31   15   41 1    
    32   15   42 1    
    33   16   17 am   BACKBONE|DICT|INTERRES
    34   16   43 1    
    35   17   18 2    
    36   17   19 1    
    37   19   23 2    
    38   19   20 1    
    39   20   21 2    
    40   20   44 1    
    41   21   22 1    
    42   21   45 1    
    43   22   23 1    
    44   23   46 1    
    45   24   28 ar   
    46   24   25 ar   
    47   25   26 ar   
    48   25   47 1    
    49   26   27 ar   
    50   27   28 ar   
    51   27   48 1    
@<TRIPOS>SUBSTRUCTURE
     1 UNK         1 GROUP             0       ****    0 ROOT    
