ZINC60334522_4355
                    3D
 Schrodinger Suite 2024-2.
 57 60  0  0  1  0            999 V2000
   -0.8954   51.6970   30.0815 C   0  0  0  0  0  0
    0.0892   52.4969   30.6394 C   0  0  0  0  0  0
    1.1545   52.9281   29.8596 C   0  0  0  0  0  0
    1.2519   52.5601   28.5044 C   0  0  0  0  0  0
    0.2369   51.7537   27.9258 C   0  0  0  0  0  0
   -0.8383   51.3546   28.7361 C   0  0  0  0  0  0
    0.2653   51.3065   26.4737 C   0  0  0  0  0  0
    0.7914   52.0188   25.6169 O   0  0  0  0  0  0
   -0.2934   50.0978   26.2248 N   0  0  0  0  0  0
   -0.5710   49.4809   24.9916 C   0  0  0  0  0  0
   -1.0761   48.1812   25.0576 C   0  0  0  0  0  0
   -1.4364   47.5014   23.8964 C   0  0  0  0  0  0
   -1.2955   48.1156   22.6525 C   0  0  0  0  0  0
   -0.7832   49.4164   22.5618 C   0  0  0  0  0  0
   -0.4251   50.0920   23.7341 C   0  0  0  0  0  0
   -0.6147   50.1175   21.2146 C   0  0  0  0  0  0
   -0.8803   49.3110   20.1866 F   0  0  0  0  0  0
   -1.4437   51.1613   21.1509 F   0  0  0  0  0  0
    0.6378   50.5594   21.0855 F   0  0  0  0  0  0
    2.3820   52.9089   27.7373 N   0  0  0  0  0  0
    3.2763   53.8991   27.9152 C   0  0  0  0  0  0
    3.1672   54.8005   28.7487 O   0  0  0  0  0  0
    4.4916   53.8479   26.9740 C   0  0  2  0  0  0
    4.6147   52.8120   26.6597 H   0  0  0  0  0  0
    5.7746   54.2587   27.7386 C   0  0  0  0  0  0
    6.9483   54.2874   26.7553 C   0  0  0  0  0  0
    6.6679   55.1946   25.5371 C   0  0  0  0  0  0
    5.4422   54.6942   24.8822 N   0  0  0  0  0  0
    4.2354   54.7469   25.7348 C   0  0  0  0  0  0
    5.5248   54.0986   23.6580 C   0  0  0  0  0  0
    6.6040   54.0076   23.0657 O   0  0  0  0  0  0
    4.2397   53.6354   22.9181 C   0  0  0  0  0  0
    4.1107   54.0964   21.4750 C   0  0  0  0  0  0
    4.4529   52.6631   21.7547 C   0  0  0  0  0  0
   -1.6949   51.3066   30.6969 H   0  0  0  0  0  0
    0.0385   52.7514   31.6874 H   0  0  0  0  0  0
    1.9185   53.5145   30.3398 H   0  0  0  0  0  0
   -1.6363   50.7364   28.3473 H   0  0  0  0  0  0
   -0.6061   49.5648   27.0334 H   0  0  0  0  0  0
   -1.1972   47.6951   26.0159 H   0  0  0  0  0  0
   -1.8307   46.4990   23.9616 H   0  0  0  0  0  0
   -1.5861   47.5758   21.7638 H   0  0  0  0  0  0
   -0.0559   51.0987   23.6360 H   0  0  0  0  0  0
    2.4713   52.3752   26.8839 H   0  0  0  0  0  0
    6.0274   53.5411   28.5234 H   0  0  0  0  0  0
    5.7020   55.2729   28.1389 H   0  0  0  0  0  0
    7.1720   53.2767   26.4132 H   0  0  0  0  0  0
    7.8398   54.6271   27.2816 H   0  0  0  0  0  0
    7.5125   55.3004   24.8546 H   0  0  0  0  0  0
    6.4532   56.2082   25.8703 H   0  0  0  0  0  0
    4.1254   55.7781   26.0634 H   0  0  0  0  0  0
    3.3042   54.5414   25.2112 H   0  0  0  0  0  0
    3.3353   53.4999   23.5045 H   0  0  0  0  0  0
    4.8704   54.7473   21.0406 H   0  0  0  0  0  0
    3.1095   54.3309   21.1125 H   0  0  0  0  0  0
    3.6984   51.8973   21.5745 H   0  0  0  0  0  0
    5.4541   52.3015   21.5157 H   0  0  0  0  0  0
  1  6  2  0  0  0
  1  2  1  0  0  0
  1 35  1  0  0  0
  2  3  2  0  0  0
  2 36  1  0  0  0
  3  4  1  0  0  0
  3 37  1  0  0  0
  4  5  2  0  0  0
  4 20  1  0  0  0
  5  6  1  0  0  0
  5  7  1  0  0  0
  6 38  1  0  0  0
  7  8  2  0  0  0
  7  9  1  0  0  0
  9 10  1  0  0  0
  9 39  1  0  0  0
 10 15  2  0  0  0
 10 11  1  0  0  0
 11 12  2  0  0  0
 11 40  1  0  0  0
 12 13  1  0  0  0
 12 41  1  0  0  0
 13 14  2  0  0  0
 13 42  1  0  0  0
 14 15  1  0  0  0
 14 16  1  0  0  0
 15 43  1  0  0  0
 16 17  1  0  0  0
 16 18  1  0  0  0
 16 19  1  0  0  0
 20 21  1  0  0  0
 20 44  1  0  0  0
 21 22  2  0  0  0
 21 23  1  0  0  0
 23 24  1  0  0  0
 23 29  1  0  0  0
 23 25  1  0  0  0
 25 26  1  0  0  0
 25 45  1  0  0  0
 25 46  1  0  0  0
 26 27  1  0  0  0
 26 47  1  0  0  0
 26 48  1  0  0  0
 27 28  1  0  0  0
 27 49  1  0  0  0
 27 50  1  0  0  0
 28 29  1  0  0  0
 28 30  1  0  0  0
 29 51  1  0  0  0
 29 52  1  0  0  0
 30 31  2  0  0  0
 30 32  1  0  0  0
 32 34  1  0  0  0
 32 33  1  0  0  0
 32 53  1  0  0  0
 33 34  1  0  0  0
 33 54  1  0  0  0
 33 55  1  0  0  0
 34 56  1  0  0  0
 34 57  1  0  0  0
M  END
> <i_i_glide_confnum>
79

> <i_i_glide_lignum>
4356

> <i_i_glide_posenum>
283

> <i_i_glide_rotatable_bonds>
9

> <i_m_Source_File_Index>
4828

> <b_m_subgroup_collapsed>
0

> <r_i_docking_score>
-6.02913

> <r_i_glide_ecoul>
-5.83373

> <r_i_glide_eff_state_penalty>
0

> <r_i_glide_einternal>
3.51291

> <r_i_glide_emodel>
-71.1223

> <r_i_glide_energy>
-52.3146

> <r_i_glide_erotb>
0.762496

> <r_i_glide_esite>
-0.104055

> <r_i_glide_evdw>
-46.4809

> <r_i_glide_gscore>
-6.02913

> <r_i_glide_hbond>
-0.16

> <r_i_glide_ligand_efficiency>
-0.182701

> <r_i_glide_ligand_efficiency_ln>
-1.34085

> <r_i_glide_ligand_efficiency_sa>
-0.58602

> <r_i_glide_lipo>
-1.89872

> <r_i_glide_metal>
0

> <r_i_glide_rewards>
-1.42975

> <s_i_glide_gridfile>
wee1_glide-grid

> <s_m_Source_File>
wee1_decoys_glide_SP.sdf

> <s_m_Source_Path>
/Users/zhangxujun/Desktop

> <s_m_entry_id>
5103

> <s_m_entry_name>
wee1_decoys_glide_SP.4828

> <s_m_subgroup_title>
wee1_decoys_glide_SP

> <s_m_subgroupid>
wee1_decoys_glide_SP


$$$$
