ZINC49122879_1601
                    3D
 Schrodinger Suite 2024-2.
 42 43  0  0  1  0            999 V2000
    3.1421   54.6362   28.7604 C   0  0  0  0  0  0
    2.9047   53.9215   27.4208 C   0  0  0  0  0  0
    3.7184   54.4740   26.2163 C   0  0  1  0  0  0
    3.5043   55.5358   26.0889 H   0  0  0  0  0  0
    5.2487   54.3677   26.4411 C   0  0  0  0  0  0
    6.0458   54.9875   25.2781 C   0  0  0  0  0  0
    5.6883   54.3111   23.9423 C   0  0  0  0  0  0
    4.1684   54.2722   23.6840 C   0  0  0  0  0  0
    3.3512   53.7480   24.8891 C   0  0  2  0  0  0
    3.5046   52.6795   25.0096 H   0  0  0  0  0  0
    1.9284   53.9995   24.5625 N   0  0  0  0  0  0
    0.8405   52.6456   24.2789 S   0  0  0  0  0  0
    0.9916   51.7045   25.3922 O   0  0  0  0  0  0
   -0.4687   53.2058   23.9296 O   0  0  0  0  0  0
    1.4755   51.8550   22.8030 C   0  0  0  0  0  0
    1.7522   50.4844   22.7567 C   0  0  0  0  0  0
    2.3074   49.9615   21.5865 C   0  0  0  0  0  0
    2.6171   50.7285   20.5049 N   0  0  0  0  0  0
    2.3401   52.0608   20.5628 C   0  0  0  0  0  0
    1.7468   52.6398   21.6818 C   0  0  0  0  0  0
    2.7042   52.8953   19.4960 N   0  0  0  0  0  0
    3.3084   52.4303   18.2628 N   0  0  0  0  0  0
    2.4788   54.2397   29.5298 H   0  0  0  0  0  0
    4.1634   54.5079   29.1187 H   0  0  0  0  0  0
    2.9432   55.7024   28.6775 H   0  0  0  0  0  0
    1.8376   53.9849   27.1985 H   0  0  0  0  0  0
    3.1118   52.8570   27.5411 H   0  0  0  0  0  0
    5.5329   53.3231   26.5895 H   0  0  0  0  0  0
    5.5343   54.8660   27.3687 H   0  0  0  0  0  0
    5.8410   56.0572   25.2168 H   0  0  0  0  0  0
    7.1167   54.8910   25.4647 H   0  0  0  0  0  0
    6.1943   54.8218   23.1216 H   0  0  0  0  0  0
    6.0817   53.2965   23.9436 H   0  0  0  0  0  0
    3.8249   55.2722   23.4364 H   0  0  0  0  0  0
    3.9723   53.6732   22.7953 H   0  0  0  0  0  0
    1.7082   54.8787   24.0902 H   0  0  0  0  0  0
    1.5584   49.8436   23.6067 H   0  0  0  0  0  0
    2.5500   48.9122   21.5086 H   0  0  0  0  0  0
    1.5407   53.6968   21.6920 H   0  0  0  0  0  0
    2.4659   53.8847   19.4864 H   0  0  0  0  0  0
    4.1946   51.9725   18.4732 H   0  0  0  0  0  0
    2.6830   51.7741   17.8155 H   0  0  0  0  0  0
  1  2  1  0  0  0
  1 23  1  0  0  0
  1 24  1  0  0  0
  1 25  1  0  0  0
  2  3  1  0  0  0
  2 26  1  0  0  0
  2 27  1  0  0  0
  3  4  1  0  0  0
  3  9  1  0  0  0
  3  5  1  0  0  0
  5  6  1  0  0  0
  5 28  1  0  0  0
  5 29  1  0  0  0
  6  7  1  0  0  0
  6 30  1  0  0  0
  6 31  1  0  0  0
  7  8  1  0  0  0
  7 32  1  0  0  0
  7 33  1  0  0  0
  8  9  1  0  0  0
  8 34  1  0  0  0
  8 35  1  0  0  0
  9 10  1  0  0  0
  9 11  1  0  0  0
 11 12  1  0  0  0
 11 36  1  0  0  0
 12 13  2  0  0  0
 12 14  2  0  0  0
 12 15  1  0  0  0
 15 20  2  0  0  0
 15 16  1  0  0  0
 16 17  2  0  0  0
 16 37  1  0  0  0
 17 18  1  0  0  0
 17 38  1  0  0  0
 18 19  2  0  0  0
 19 20  1  0  0  0
 19 21  1  0  0  0
 20 39  1  0  0  0
 21 22  1  0  0  0
 21 40  1  0  0  0
 22 41  1  0  0  0
 22 42  1  0  0  0
M  END
> <i_i_glide_confnum>
1

> <i_i_glide_lignum>
1602

> <i_i_glide_posenum>
381

> <i_i_glide_rotatable_bonds>
5

> <i_m_Source_File_Index>
1904

> <b_m_subgroup_collapsed>
0

> <r_i_docking_score>
-5.25324

> <r_i_glide_ecoul>
-6.46911

> <r_i_glide_eff_state_penalty>
0

> <r_i_glide_einternal>
0.639842

> <r_i_glide_emodel>
-38.9871

> <r_i_glide_energy>
-30.881

> <r_i_glide_erotb>
0.618238

> <r_i_glide_esite>
-0.0163716

> <r_i_glide_evdw>
-24.4119

> <r_i_glide_gscore>
-5.25324

> <r_i_glide_hbond>
-0.440566

> <r_i_glide_ligand_efficiency>
-0.262662

> <r_i_glide_ligand_efficiency_ln>
-1.31471

> <r_i_glide_ligand_efficiency_sa>
-0.712974

> <r_i_glide_lipo>
-2.40147

> <r_i_glide_metal>
0

> <r_i_glide_rewards>
-0.822102

> <s_i_glide_gridfile>
wee1_glide-grid

> <s_m_Source_File>
wee1_decoys_glide_SP.sdf

> <s_m_Source_Path>
/Users/zhangxujun/Desktop

> <s_m_entry_id>
2179

> <s_m_entry_name>
wee1_decoys_glide_SP.1904

> <s_m_subgroup_title>
wee1_decoys_glide_SP

> <s_m_subgroupid>
wee1_decoys_glide_SP


$$$$
