ZINC09459673_4216
                    3D
 Schrodinger Suite 2024-2.
 60 62  0  0  1  0            999 V2000
    0.6894   51.3846   27.0442 C   0  0  0  0  0  0
    0.2060   51.1465   25.6247 C   0  0  0  0  0  0
   -0.0819   49.8484   25.1968 C   0  0  0  0  0  0
   -0.5788   49.6372   23.9139 C   0  0  0  0  0  0
   -0.7943   50.7242   23.0610 C   0  0  0  0  0  0
   -0.4780   52.0183   23.4775 C   0  0  0  0  0  0
    0.0168   52.2297   24.7634 C   0  0  0  0  0  0
   -1.5066   50.4519   21.4356 S   0  0  0  0  0  0
   -2.2844   51.6500   21.0927 O   0  0  0  0  0  0
   -2.1422   49.1289   21.4676 O   0  0  0  0  0  0
   -0.1347   50.3420   20.3170 N   0  0  0  0  0  0
    0.9449   49.3572   20.5495 C   0  0  0  0  0  0
    2.2332   50.0678   21.0227 C   0  0  0  0  0  0
    2.6211   51.2074   20.0263 C   0  0  0  0  0  0
    1.4329   52.1987   19.8184 C   0  0  0  0  0  0
    0.1756   51.4370   19.3710 C   0  0  0  0  0  0
    3.8960   51.9542   20.4984 C   0  0  0  0  0  0
    4.7043   51.4023   21.2460 O   0  0  0  0  0  0
    4.1070   53.1957   20.0194 N   0  0  0  0  0  0
    5.2647   54.0587   20.3097 C   0  0  1  0  0  0
    6.1401   53.4726   20.0432 H   0  0  0  0  0  0
    5.2311   55.2493   19.3342 C   0  0  0  0  0  0
    5.4687   54.4907   21.7915 C   0  0  0  0  0  0
    6.4707   55.1475   22.0774 O   0  0  0  0  0  0
    4.5263   54.0963   22.6761 N   0  0  0  0  0  0
    4.4864   54.2221   24.0717 C   0  0  0  0  0  0
    3.2346   54.0511   24.6662 C   0  0  0  0  0  0
    3.0990   54.0977   26.0516 C   0  0  0  0  0  0
    4.2111   54.3085   26.8629 C   0  0  0  0  0  0
    5.4751   54.4839   26.2822 C   0  0  0  0  0  0
    5.6098   54.4426   24.8869 C   0  0  0  0  0  0
    6.7026   54.6839   27.1533 C   0  0  0  0  0  0
    3.9628   54.3560   28.7561 Br  0  0  0  0  0  0
    0.5689   50.4971   27.6719 H   0  0  0  0  0  0
    1.7397   51.6849   27.0562 H   0  0  0  0  0  0
    0.1095   52.1806   27.5129 H   0  0  0  0  0  0
    0.0585   49.0057   25.8608 H   0  0  0  0  0  0
   -0.8135   48.6313   23.5973 H   0  0  0  0  0  0
   -0.6403   52.8598   22.8220 H   0  0  0  0  0  0
    0.2412   53.2324   25.0945 H   0  0  0  0  0  0
    1.1093   48.7941   19.6277 H   0  0  0  0  0  0
    0.6085   48.6419   21.3007 H   0  0  0  0  0  0
    3.0081   49.3002   21.0837 H   0  0  0  0  0  0
    2.0102   50.4705   22.0140 H   0  0  0  0  0  0
    2.9143   50.7733   19.0684 H   0  0  0  0  0  0
    1.1652   52.7092   20.7468 H   0  0  0  0  0  0
    1.6351   52.9164   19.0221 H   0  0  0  0  0  0
    0.3013   51.0031   18.3785 H   0  0  0  0  0  0
   -0.6732   52.1170   19.3090 H   0  0  0  0  0  0
    3.4190   53.5907   19.3945 H   0  0  0  0  0  0
    5.9461   56.0276   19.6117 H   0  0  0  0  0  0
    5.4887   54.9251   18.3222 H   0  0  0  0  0  0
    4.2382   55.6957   19.2809 H   0  0  0  0  0  0
    3.7416   53.6117   22.2712 H   0  0  0  0  0  0
    2.3590   53.8789   24.0580 H   0  0  0  0  0  0
    2.1251   53.9674   26.4974 H   0  0  0  0  0  0
    6.5893   54.5512   24.4468 H   0  0  0  0  0  0
    7.6180   54.4969   26.5995 H   0  0  0  0  0  0
    6.7035   53.9904   27.9923 H   0  0  0  0  0  0
    6.7087   55.6943   27.5572 H   0  0  0  0  0  0
  1  2  1  0  0  0
  1 34  1  0  0  0
  1 35  1  0  0  0
  1 36  1  0  0  0
  2  7  2  0  0  0
  2  3  1  0  0  0
  3  4  2  0  0  0
  3 37  1  0  0  0
  4  5  1  0  0  0
  4 38  1  0  0  0
  5  6  2  0  0  0
  5  8  1  0  0  0
  6  7  1  0  0  0
  6 39  1  0  0  0
  7 40  1  0  0  0
  8  9  2  0  0  0
  8 10  2  0  0  0
  8 11  1  0  0  0
 11 16  1  0  0  0
 11 12  1  0  0  0
 12 13  1  0  0  0
 12 41  1  0  0  0
 12 42  1  0  0  0
 13 14  1  0  0  0
 13 43  1  0  0  0
 13 44  1  0  0  0
 14 15  1  0  0  0
 14 17  1  0  0  0
 14 45  1  0  0  0
 15 16  1  0  0  0
 15 46  1  0  0  0
 15 47  1  0  0  0
 16 48  1  0  0  0
 16 49  1  0  0  0
 17 18  2  0  0  0
 17 19  1  0  0  0
 19 20  1  0  0  0
 19 50  1  0  0  0
 20 21  1  0  0  0
 20 22  1  0  0  0
 20 23  1  0  0  0
 22 51  1  0  0  0
 22 52  1  0  0  0
 22 53  1  0  0  0
 23 24  2  0  0  0
 23 25  1  0  0  0
 25 26  1  0  0  0
 25 54  1  0  0  0
 26 31  2  0  0  0
 26 27  1  0  0  0
 27 28  2  0  0  0
 27 55  1  0  0  0
 28 29  1  0  0  0
 28 56  1  0  0  0
 29 30  2  0  0  0
 29 33  1  0  0  0
 30 31  1  0  0  0
 30 32  1  0  0  0
 31 57  1  0  0  0
 32 58  1  0  0  0
 32 59  1  0  0  0
 32 60  1  0  0  0
M  END
> <i_i_glide_confnum>
157

> <i_i_glide_lignum>
4217

> <i_i_glide_posenum>
211

> <i_i_glide_rotatable_bonds>
8

> <i_m_Source_File_Index>
3748

> <b_m_subgroup_collapsed>
0

> <r_i_docking_score>
-5.03005

> <r_i_glide_ecoul>
-6.33131

> <r_i_glide_eff_state_penalty>
0

> <r_i_glide_einternal>
4.00066

> <r_i_glide_emodel>
-63.601

> <r_i_glide_energy>
-50.1716

> <r_i_glide_erotb>
0.602695

> <r_i_glide_esite>
-0.0823641

> <r_i_glide_evdw>
-43.8403

> <r_i_glide_gscore>
-5.03005

> <r_i_glide_hbond>
0

> <r_i_glide_ligand_efficiency>
-0.157189

> <r_i_glide_ligand_efficiency_ln>
-1.12637

> <r_i_glide_ligand_efficiency_sa>
-0.499044

> <r_i_glide_lipo>
-2.24024

> <r_i_glide_metal>
0

> <r_i_glide_rewards>
-0.168428

> <s_i_glide_gridfile>
wee1_glide-grid

> <s_m_Source_File>
wee1_decoys_glide_SP.sdf

> <s_m_Source_Path>
/Users/zhangxujun/Desktop

> <s_m_entry_id>
4023

> <s_m_entry_name>
wee1_decoys_glide_SP.3748

> <s_m_subgroup_title>
wee1_decoys_glide_SP

> <s_m_subgroupid>
wee1_decoys_glide_SP


$$$$
