@<TRIPOS>MOLECULE
ZINC38611433_3990
49   52    1
SMALL
USER_CHARGES


@<TRIPOS>ATOM
      1 C1         -2.5267   50.7629   21.3615 C.3       1 UNK         0.0000 
      2 C2         -1.7208   50.3160   20.1577 C.2       1 UNK         0.0000 
      3 C3         -0.4316   49.9925   19.9841 C.2       1 UNK         0.0000 
      4 C4          0.8532   49.9730   20.8134 C.3       1 UNK         0.0000 
      5 H5          1.1199   48.9421   21.0531 H         1 UNK         0.0000 
      6 C6          1.9736   50.5223   19.9117 C.2       1 UNK         0.0000 
      7 C7          1.7960   50.7383   18.5877 C.2       1 UNK         0.0000 
      8 O8          0.6745   50.4567   17.8648 O.3       1 UNK         0.0000 
      9 C9         -0.3055   49.6442   18.5334 C.3       1 UNK         0.0000 
     10 H10        -0.0322   48.6005   18.3666 H         1 UNK         0.0000 
     11 N11        -1.6232   49.8691   18.0310 N.2       1 UNK         0.0000 
     12 N12        -2.3879   50.2304   18.9820 N.2       1 UNK         0.0000 
     13 N13         2.7044   51.2967   17.7367 N.pl3     1 UNK         0.0000 
     14 C14         3.2006   50.9267   20.5269 C.1       1 UNK         0.0000 
     15 N15         4.1668   51.2967   21.0460 N.1       1 UNK         0.0000 
     16 C16         0.7231   50.7210   22.1385 C.ar      1 UNK         0.0000 
     17 C17         0.5424   50.0432   23.3474 C.ar      1 UNK         0.0000 
     18 C18         0.4614   50.7501   24.5626 C.ar      1 UNK         0.0000 
     19 C19         0.6140   52.1452   24.5576 C.ar      1 UNK         0.0000 
     20 C20         0.7795   52.8106   23.3405 C.ar      1 UNK         0.0000 
     21 C21         0.8091   52.1121   22.1461 C.ar      1 UNK         0.0000 
     22 Br22        1.1044   54.6759   23.2817 Br        1 UNK         0.0000 
     23 O23         0.5971   52.8967   25.7160 O.3       1 UNK         0.0000 
     24 C24         1.5989   52.6779   26.7187 C.3       1 UNK         0.0000 
     25 C25         2.8933   53.4535   26.4653 C.ar      1 UNK         0.0000 
     26 C26         3.5782   54.0366   27.5368 C.ar      1 UNK         0.0000 
     27 C27         4.7821   54.7036   27.3139 C.ar      1 UNK         0.0000 
     28 C28         5.2738   54.8172   26.0142 C.ar      1 UNK         0.0000 
     29 C29         4.6173   54.2257   24.9501 C.ar      1 UNK         0.0000 
     30 C30         3.4460   53.5310   25.1852 C.ar      1 UNK         0.0000 
     31 Cl31        6.7044   55.6967   25.6817 Cl        1 UNK         0.0000 
     32 O32         0.2388   50.1517   25.7827 O.3       1 UNK         0.0000 
     33 C33         0.0539   48.7495   25.8416 C.3       1 UNK         0.0000 
     34 H34        -3.3823   50.1036   21.5107 H         1 UNK         0.0000 
     35 H35        -1.9389   50.7505   22.2763 H         1 UNK         0.0000 
     36 H36        -2.8956   51.7767   21.2126 H         1 UNK         0.0000 
     37 H37         3.6703   51.3149   18.0521 H         1 UNK         0.0000 
     38 H38         2.6242   51.0652   16.7577 H         1 UNK         0.0000 
     39 H39         0.4632   48.9671   23.3293 H         1 UNK         0.0000 
     40 H40         0.9567   52.6580   21.2241 H         1 UNK         0.0000 
     41 H41         1.1603   53.0221   27.6561 H         1 UNK         0.0000 
     42 H42         1.8328   51.6307   26.8817 H         1 UNK         0.0000 
     43 H43         3.1883   53.9645   28.5415 H         1 UNK         0.0000 
     44 H44         5.3158   55.1550   28.1380 H         1 UNK         0.0000 
     45 H45         5.0215   54.2837   23.9498 H         1 UNK         0.0000 
     46 H46         3.0209   53.0085   24.3510 H         1 UNK         0.0000 
     47 H47         0.9304   48.2107   25.4809 H         1 UNK         0.0000 
     48 H48        -0.0901   48.4852   26.8817 H         1 UNK         0.0000 
     49 H49        -0.8301   48.4282   25.2896 H         1 UNK         0.0000 
@<TRIPOS>BOND
     1    1    2 1    
     2    1   34 1    
     3    1   35 1    
     4    1   36 1    
     5    2   12 1    
     6    2    3 2    
     7    3    9 1    
     8    3    4 1    
     9    4    5 1    
    10    4    6 1    
    11    4   16 1    
    12    6    7 2    
    13    6   14 1    
    14    7    8 1    
    15    7   13 1    
    16    8    9 1    
    17    9   10 1    
    18    9   11 1    
    19   11   12 2    
    20   13   37 1    
    21   13   38 1    
    22   14   15 3    
    23   16   21 ar   
    24   16   17 ar   
    25   17   18 ar   
    26   17   39 1    
    27   18   19 ar   
    28   18   32 1    
    29   19   20 ar   
    30   19   23 1    
    31   20   21 ar   
    32   20   22 1    
    33   21   40 1    
    34   23   24 1    
    35   24   25 1    
    36   24   41 1    
    37   24   42 1    
    38   25   30 ar   
    39   25   26 ar   
    40   26   27 ar   
    41   26   43 1    
    42   27   28 ar   
    43   27   44 1    
    44   28   29 ar   
    45   28   31 1    
    46   29   30 ar   
    47   29   45 1    
    48   30   46 1    
    49   32   33 1    
    50   33   47 1    
    51   33   48 1    
    52   33   49 1    
@<TRIPOS>SUBSTRUCTURE
     1 UNK         1 GROUP             0       ****    0 ROOT    
