@<TRIPOS>MOLECULE
ZINC12533041_711
62   65    1
SMALL
USER_CHARGES


@<TRIPOS>ATOM
      1 C1          5.1611   54.2205   28.6893 C.3       1 UNK         0.0000 
      2 C2          5.3733   54.3727   27.1947 C.ar      1 UNK         0.0000 
      3 C3          6.6621   54.3615   26.6645 C.ar      1 UNK         0.0000 
      4 C4          6.8483   54.4982   25.2893 C.ar      1 UNK         0.0000 
      5 C5          5.7580   54.6393   24.4252 C.ar      1 UNK         0.0000 
      6 C6          4.4749   54.7018   24.9845 C.ar      1 UNK         0.0000 
      7 C7          4.2790   54.5541   26.3530 C.ar      1 UNK         0.0000 
      8 C8          5.9734   54.7527   22.9337 C.2       1 UNK         0.0000 
      9 C9          5.0740   54.3413   21.9221 C.2       1 UNK         0.0000 
     10 S10         5.7553   54.8231   20.3855 S.3       1 UNK         0.0000 
     11 C11         7.1603   55.4149   21.1885 C.2       1 UNK         0.0000 
     12 N12         7.1008   55.2983   22.4883 N.2       1 UNK         0.0000 
     13 C13         8.3546   55.9818   20.4566 C.3       1 UNK         0.0000 
     14 C14         3.7090   53.6624   21.9941 C.3       1 UNK         0.0000 
     15 C15         3.5662   52.3549   21.2104 C.2       1 UNK         0.0000 
     16 O16         4.5122   51.5686   21.1681 O.2       1 UNK         0.0000 
     17 N17         2.3330   52.1331   20.7058 N.am      1 UNK         0.0000 
     18 C18         1.8019   50.9673   20.1255 C.ar      1 UNK         0.0000 
     19 C19         0.4100   50.9026   20.0249 C.ar      1 UNK         0.0000 
     20 C20        -0.2058   49.7580   19.5229 C.ar      1 UNK         0.0000 
     21 C21         0.5696   48.6729   19.1049 C.ar      1 UNK         0.0000 
     22 C22         1.9619   48.7416   19.1863 C.ar      1 UNK         0.0000 
     23 C23         2.5743   49.8892   19.6779 C.ar      1 UNK         0.0000 
     24 S24        -0.2260   47.1694   18.4969 S.o2      1 UNK         0.0000 
     25 O25        -0.0942   46.2795   19.6549 O.2       1 UNK         0.0000 
     26 O26        -1.6055   47.5603   18.1824 O.2       1 UNK         0.0000 
     27 N27         0.8158   46.7815   17.1209 N.2       1 UNK         0.0000 
     28 C28         0.9669   47.5913   16.1521 C.2       1 UNK         0.0000 
     29 C29         0.2534   48.9214   15.8542 C.3       1 UNK         0.0000 
     30 C30         1.1585   50.1457   15.5977 C.3       1 UNK         0.0000 
     31 C31         1.7125   50.2507   14.1673 C.3       1 UNK         0.0000 
     32 C32         2.6617   49.1206   13.7327 C.3       1 UNK         0.0000 
     33 C33         2.0944   47.6928   13.8281 C.3       1 UNK         0.0000 
     34 N34         1.8897   47.2198   15.1932 N.pl3     1 UNK         0.0000 
     35 H35         4.1845   54.5986   28.9984 H         1 UNK         0.0000 
     36 H36         5.9047   54.7905   29.2441 H         1 UNK         0.0000 
     37 H37         5.2437   53.1725   28.9772 H         1 UNK         0.0000 
     38 H38         7.5134   54.2378   27.3176 H         1 UNK         0.0000 
     39 H39         7.8495   54.4943   24.8848 H         1 UNK         0.0000 
     40 H40         3.6107   54.9014   24.3724 H         1 UNK         0.0000 
     41 H41         3.2775   54.5948   26.7560 H         1 UNK         0.0000 
     42 H42         8.0674   56.7721   19.7641 H         1 UNK         0.0000 
     43 H43         9.1034   56.3974   21.1301 H         1 UNK         0.0000 
     44 H44         8.8606   55.2216   19.8625 H         1 UNK         0.0000 
     45 H45         3.4545   53.3576   23.0033 H         1 UNK         0.0000 
     46 H46         2.9392   54.3693   21.6854 H         1 UNK         0.0000 
     47 H47         1.6723   52.8857   20.8267 H         1 UNK         0.0000 
     48 H48        -0.2041   51.7260   20.3602 H         1 UNK         0.0000 
     49 H49        -1.2842   49.7125   19.4707 H         1 UNK         0.0000 
     50 H50         2.5793   47.9191   18.8526 H         1 UNK         0.0000 
     51 H51         3.6501   49.9240   19.6844 H         1 UNK         0.0000 
     52 H52        -0.4384   48.7792   15.0232 H         1 UNK         0.0000 
     53 H53        -0.4052   49.1896   16.6745 H         1 UNK         0.0000 
     54 H54         0.5871   51.0507   15.8108 H         1 UNK         0.0000 
     55 H55         1.9820   50.1594   16.3152 H         1 UNK         0.0000 
     56 H56         2.2418   51.1999   14.0694 H         1 UNK         0.0000 
     57 H57         0.8796   50.3083   13.4645 H         1 UNK         0.0000 
     58 H58         3.5814   49.1780   14.3175 H         1 UNK         0.0000 
     59 H59         2.9665   49.3044   12.7018 H         1 UNK         0.0000 
     60 H60         2.7196   46.9956   13.2703 H         1 UNK         0.0000 
     61 H61         1.1170   47.6692   13.3424 H         1 UNK         0.0000 
     62 H62         2.3936   46.3753   15.4165 H         1 UNK         0.0000 
@<TRIPOS>BOND
     1    1    2 1    
     2    1   35 1    
     3    1   36 1    
     4    1   37 1    
     5    2    7 ar   
     6    2    3 ar   
     7    3    4 ar   
     8    3   38 1    
     9    4    5 ar   
    10    4   39 1    
    11    5    6 ar   
    12    5    8 1    
    13    6    7 ar   
    14    6   40 1    
    15    7   41 1    
    16    8   12 1    
    17    8    9 2    
    18    9   10 1    
    19    9   14 1    
    20   10   11 1    
    21   11   12 2    
    22   11   13 1    
    23   13   42 1    
    24   13   43 1    
    25   13   44 1    
    26   14   15 1    
    27   14   45 1    
    28   14   46 1    
    29   15   16 2    
    30   15   17 am   BACKBONE|DICT|INTERRES
    31   17   18 1    
    32   17   47 1    
    33   18   23 ar   
    34   18   19 ar   
    35   19   20 ar   
    36   19   48 1    
    37   20   21 ar   
    38   20   49 1    
    39   21   22 ar   
    40   21   24 1    
    41   22   23 ar   
    42   22   50 1    
    43   23   51 1    
    44   24   25 2    
    45   24   26 2    
    46   24   27 1    
    47   27   28 2    
    48   28   34 1    
    49   28   29 1    
    50   29   30 1    
    51   29   52 1    
    52   29   53 1    
    53   30   31 1    
    54   30   54 1    
    55   30   55 1    
    56   31   32 1    
    57   31   56 1    
    58   31   57 1    
    59   32   33 1    
    60   32   58 1    
    61   32   59 1    
    62   33   34 1    
    63   33   60 1    
    64   33   61 1    
    65   34   62 1    
@<TRIPOS>SUBSTRUCTURE
     1 UNK         1 GROUP             0       ****    0 ROOT    
