@<TRIPOS>MOLECULE
ZINC40723049_3943
35   37    1
SMALL
USER_CHARGES


@<TRIPOS>ATOM
      1 C1          3.8498   54.6820   26.8512 C.ar      1 UNK         0.0000 
      2 C2          3.0200   54.3897   27.9310 C.ar      1 UNK         0.0000 
      3 C3          3.4765   53.5425   28.9390 C.ar      1 UNK         0.0000 
      4 C4          4.7570   52.9977   28.8755 C.ar      1 UNK         0.0000 
      5 C5          5.5895   53.2994   27.7981 C.ar      1 UNK         0.0000 
      6 C6          5.1290   54.1285   26.7749 C.ar      1 UNK         0.0000 
      7 S7          6.2059   54.5096   25.4080 S.3       1 UNK         0.0000 
      8 C8          5.2641   54.2060   23.9096 C.ar      1 UNK         0.0000 
      9 C9          5.8155   54.4961   22.6421 C.ar      1 UNK         0.0000 
     10 C10         5.0003   54.2508   21.5155 C.ar      1 UNK         0.0000 
     11 N11         3.7511   53.7283   21.6416 N.ar      1 UNK         0.0000 
     12 C12         3.3113   53.4849   22.8937 C.ar      1 UNK         0.0000 
     13 N13         4.0064   53.6979   24.0317 N.ar      1 UNK         0.0000 
     14 N14         5.4418   54.5983   20.2247 N.pl3     1 UNK         0.0000 
     15 C15         4.7995   54.4810   18.9814 C.ar      1 UNK         0.0000 
     16 C16         4.1607   53.2901   18.6188 C.ar      1 UNK         0.0000 
     17 C17         3.5042   53.1811   17.3949 C.ar      1 UNK         0.0000 
     18 C18         3.4678   54.2690   16.5257 C.ar      1 UNK         0.0000 
     19 C19         4.0935   55.4641   16.8813 C.ar      1 UNK         0.0000 
     20 C20         4.7641   55.5728   18.0997 C.ar      1 UNK         0.0000 
     21 Cl21        5.5283   57.0759   18.4906 Cl        1 UNK         0.0000 
     22 Cl22        2.6489   54.1405   15.0129 Cl        1 UNK         0.0000 
     23 N23         7.1042   55.0371   22.5016 N.pl3     1 UNK         0.0000 
     24 Cl24        2.4536   53.1641   30.2760 Cl        1 UNK         0.0000 
     25 H25         3.5026   55.3416   26.0729 H         1 UNK         0.0000 
     26 H26         2.0293   54.8170   27.9831 H         1 UNK         0.0000 
     27 H27         5.1018   52.3372   29.6570 H         1 UNK         0.0000 
     28 H28         6.5821   52.8761   27.7494 H         1 UNK         0.0000 
     29 H29         2.3157   53.0751   22.9916 H         1 UNK         0.0000 
     30 H30         6.2485   55.1998   20.2206 H         1 UNK         0.0000 
     31 H31         4.1870   52.4324   19.2746 H         1 UNK         0.0000 
     32 H32         3.0353   52.2458   17.1221 H         1 UNK         0.0000 
     33 H33         4.0645   56.3075   16.2086 H         1 UNK         0.0000 
     34 H34         7.7019   55.0859   23.3188 H         1 UNK         0.0000 
     35 H35         7.5433   55.0136   21.5936 H         1 UNK         0.0000 
@<TRIPOS>BOND
     1    1    6 ar   
     2    1    2 ar   
     3    1   25 1    
     4    2    3 ar   
     5    2   26 1    
     6    3    4 ar   
     7    3   24 1    
     8    4    5 ar   
     9    4   27 1    
    10    5    6 ar   
    11    5   28 1    
    12    6    7 1    
    13    7    8 1    
    14    8   13 ar   
    15    8    9 ar   
    16    9   10 ar   
    17    9   23 1    
    18   10   11 ar   
    19   10   14 1    
    20   11   12 ar   
    21   12   13 ar   
    22   12   29 1    
    23   14   15 1    
    24   14   30 1    
    25   15   20 ar   
    26   15   16 ar   
    27   16   17 ar   
    28   16   31 1    
    29   17   18 ar   
    30   17   32 1    
    31   18   19 ar   
    32   18   22 1    
    33   19   20 ar   
    34   19   33 1    
    35   20   21 1    
    36   23   34 1    
    37   23   35 1    
@<TRIPOS>SUBSTRUCTURE
     1 UNK         1 GROUP             0       ****    0 ROOT    
