@<TRIPOS>MOLECULE
ZINC39669848_387
69   73    1
SMALL
USER_CHARGES


@<TRIPOS>ATOM
      1 C1          2.1762   52.5764   30.1294 C.3       1 UNK         0.0000 
      2 O2          2.2141   53.8330   29.4631 O.3       1 UNK         0.0000 
      3 C3          3.2963   54.0184   28.6398 C.ar      1 UNK         0.0000 
      4 C4          4.5770   54.1668   29.1805 C.ar      1 UNK         0.0000 
      5 C5          5.6977   54.3736   28.3735 C.ar      1 UNK         0.0000 
      6 C6          5.5066   54.4612   26.9897 C.ar      1 UNK         0.0000 
      7 N7          6.4262   54.6894   25.9974 N.2       1 UNK         0.0000 
      8 C8          5.7227   54.7019   24.8913 C.ar      1 UNK         0.0000 
      9 H9          3.6854   54.4895   24.3792 H         1 UNK         0.0000 
     10 N10         4.3787   54.4949   25.1108 N.pl3     1 UNK         0.0000 
     11 C11         4.1983   54.3272   26.4606 C.ar      1 UNK         0.0000 
     12 C12         3.0767   54.0979   27.2630 C.ar      1 UNK         0.0000 
     13 C13         6.3042   55.0144   23.5242 C.3       1 UNK         0.0000 
     14 C14         5.5705   54.3315   22.3361 C.3       1 UNK         0.0000 
     15 N15         5.7135   54.9224   20.9957 N.am      1 UNK         0.0000 
     16 C16         6.7020   55.6966   20.5049 C.2       1 UNK         0.0000 
     17 O17         7.6398   56.0854   21.1943 O.2       1 UNK         0.0000 
     18 C18         6.6256   56.2158   19.0430 C.3       1 UNK         0.0000 
     19 H19         6.5155   57.2994   19.1210 H         1 UNK         0.0000 
     20 C20         5.3718   55.7104   18.2941 C.3       1 UNK         0.0000 
     21 N21         5.7480   55.9146   16.8917 N.am      1 UNK         0.0000 
     22 C22         7.1975   56.0834   16.7330 C.3       1 UNK         0.0000 
     23 C23         7.8180   55.8183   18.1254 C.3       1 UNK         0.0000 
     24 C24         8.2402   54.3202   18.2711 C.3       1 UNK         0.0000 
     25 C25         9.3377   53.9043   17.2673 C.3       1 UNK         0.0000 
     26 N26        10.5509   54.8473   17.4453 N.4       1 UNK         0.0000 
     27 C27        10.2022   56.3503   17.3652 C.3       1 UNK         0.0000 
     28 C28         9.1047   56.6372   18.4079 C.3       1 UNK         0.0000 
     29 C29         4.8949   56.2763   15.8971 C.2       1 UNK         0.0000 
     30 O30         5.2926   56.6709   14.7990 O.2       1 UNK         0.0000 
     31 C31         3.4068   56.2222   16.1530 C.ar      1 UNK         0.0000 
     32 C32         2.7990   55.0651   16.6555 C.ar      1 UNK         0.0000 
     33 C33         1.4246   55.0376   16.8816 C.ar      1 UNK         0.0000 
     34 C34         0.6421   56.1684   16.6233 C.ar      1 UNK         0.0000 
     35 C35         1.2454   57.3095   16.0874 C.ar      1 UNK         0.0000 
     36 C36         2.6164   57.3360   15.8482 C.ar      1 UNK         0.0000 
     37 C37        -0.8520   56.1898   16.9540 C.3       1 UNK         0.0000 
     38 F38        -1.2356   55.1251   17.6617 F         1 UNK         0.0000 
     39 F39        -1.1518   57.2784   17.6669 F         1 UNK         0.0000 
     40 F40        -1.5568   56.2172   15.8234 F         1 UNK         0.0000 
     41 H41         1.2406   52.4863   30.6826 H         1 UNK         0.0000 
     42 H42         2.2228   51.7453   29.4227 H         1 UNK         0.0000 
     43 H43         2.9936   52.4727   30.8450 H         1 UNK         0.0000 
     44 H44         4.7042   54.1318   30.2498 H         1 UNK         0.0000 
     45 H45         6.6812   54.4923   28.8066 H         1 UNK         0.0000 
     46 H46         2.0827   54.0005   26.8552 H         1 UNK         0.0000 
     47 H47         7.3555   54.7257   23.4888 H         1 UNK         0.0000 
     48 H48         6.3048   56.0959   23.4025 H         1 UNK         0.0000 
     49 H49         4.4945   54.3650   22.5090 H         1 UNK         0.0000 
     50 H50         5.8271   53.2709   22.3021 H         1 UNK         0.0000 
     51 H51         4.9625   54.6977   20.3608 H         1 UNK         0.0000 
     52 H52         4.4923   56.2681   18.6246 H         1 UNK         0.0000 
     53 H53         5.2915   54.6334   18.4505 H         1 UNK         0.0000 
     54 H54         7.6506   55.5635   15.8900 H         1 UNK         0.0000 
     55 H55         7.3489   57.1463   16.5300 H         1 UNK         0.0000 
     56 H56         8.5755   54.0971   19.2819 H         1 UNK         0.0000 
     57 H57         7.3776   53.6722   18.1066 H         1 UNK         0.0000 
     58 H58         9.7053   52.8935   17.4613 H         1 UNK         0.0000 
     59 H59         9.0296   53.9669   16.2224 H         1 UNK         0.0000 
     60 H60        10.9646   54.6835   18.3561 H         1 UNK         0.0000 
     61 H61        11.1270   56.8870   17.5849 H         1 UNK         0.0000 
     62 H62         9.9014   56.5612   16.3371 H         1 UNK         0.0000 
     63 H63         8.8716   57.7017   18.3549 H         1 UNK         0.0000 
     64 H64         9.4761   56.4761   19.4222 H         1 UNK         0.0000 
     65 H65         3.3841   54.1820   16.8727 H         1 UNK         0.0000 
     66 H66         0.9807   54.1417   17.2921 H         1 UNK         0.0000 
     67 H67         0.6587   58.1945   15.8839 H         1 UNK         0.0000 
     68 H68         3.0635   58.2374   15.4486 H         1 UNK         0.0000 
     69 H69        11.2641   54.6206   16.7651 H         1 UNK         0.0000 
@<TRIPOS>BOND
     1    1    2 1    
     2    1   41 1    
     3    1   42 1    
     4    1   43 1    
     5    2    3 1    
     6    3   12 ar   
     7    3    4 ar   
     8    4   44 1    
     9    4    5 ar   
    10    5   45 1    
    11    5    6 ar   
    12    6   11 ar   
    13    6    7 ar   
    14    7    8 ar   
    15    8   13 1    
    16    8   10 ar   
    17    9   10 1    
    18   10   11 ar   
    19   11   12 ar   
    20   12   46 1    
    21   13   14 1    
    22   13   47 1    
    23   13   48 1    
    24   14   15 1    
    25   14   49 1    
    26   14   50 1    
    27   15   16 am   BACKBONE|DICT|INTERRES
    28   15   51 1    
    29   16   17 2    
    30   16   18 1    
    31   18   19 1    
    32   18   23 1    
    33   18   20 1    
    34   20   21 1    
    35   20   52 1    
    36   20   53 1    
    37   21   22 1    
    38   21   29 am   BACKBONE|DICT|INTERRES
    39   22   23 1    
    40   22   54 1    
    41   22   55 1    
    42   23   28 1    
    43   23   24 1    
    44   24   25 1    
    45   24   56 1    
    46   24   57 1    
    47   25   26 1    
    48   25   58 1    
    49   25   59 1    
    50   26   27 1    
    51   26   60 1    
    52   26   69 1    
    53   27   28 1    
    54   27   61 1    
    55   27   62 1    
    56   28   63 1    
    57   28   64 1    
    58   29   30 2    
    59   29   31 1    
    60   31   36 ar   
    61   31   32 ar   
    62   32   33 ar   
    63   32   65 1    
    64   33   34 ar   
    65   33   66 1    
    66   34   35 ar   
    67   34   37 1    
    68   35   36 ar   
    69   35   67 1    
    70   36   68 1    
    71   37   38 1    
    72   37   39 1    
    73   37   40 1    
@<TRIPOS>SUBSTRUCTURE
     1 UNK         1 GROUP             0       ****    0 ROOT    
