@<TRIPOS>MOLECULE
ZINC38653209_5309
48   51    1
SMALL
USER_CHARGES


@<TRIPOS>ATOM
      1 C1         -0.8110   52.0097   23.3357 C.ar      1 UNK         0.0000 
      2 C2         -1.5353   51.0895   24.0903 C.ar      1 UNK         0.0000 
      3 C3         -0.9127   49.9362   24.5608 C.ar      1 UNK         0.0000 
      4 C4          0.4321   49.6976   24.2909 C.ar      1 UNK         0.0000 
      5 C5          1.1563   50.6128   23.5332 C.ar      1 UNK         0.0000 
      6 C6          0.5387   51.7739   23.0527 C.ar      1 UNK         0.0000 
      7 C7          1.3385   52.7726   22.2100 C.3       1 UNK         0.0000 
      8 H8          0.7048   53.6214   21.9878 H         1 UNK         0.0000 
      9 C9          2.5338   53.3573   22.9577 C.ar      1 UNK         0.0000 
     10 C10         2.3616   54.0364   24.1660 C.ar      1 UNK         0.0000 
     11 C11         3.4543   54.4968   24.8888 C.ar      1 UNK         0.0000 
     12 C12         4.7589   54.2702   24.4356 C.ar      1 UNK         0.0000 
     13 C13         4.9376   53.6965   23.1724 C.ar      1 UNK         0.0000 
     14 C14         3.8380   53.2315   22.4427 C.ar      1 UNK         0.0000 
     15 O15         4.0962   52.5980   21.2364 O.3       1 UNK         0.0000 
     16 C16         3.0441   52.1742   20.4811 C.2       1 UNK         0.0000 
     17 C17         1.7531   52.2186   20.8572 C.2       1 UNK         0.0000 
     18 C18         0.7160   51.7883   19.9722 C.1       1 UNK         0.0000 
     19 N19        -0.1526   51.4681   19.2786 N.1       1 UNK         0.0000 
     20 N20         3.5043   51.6996   19.2822 N.pl3     1 UNK         0.0000 
     21 O21         5.8828   54.6344   25.1492 O.3       1 UNK         0.0000 
     22 C22         6.0461   54.4967   26.5109 C.2       1 UNK         0.0000 
     23 O23         6.9849   55.0390   27.0836 O.2       1 UNK         0.0000 
     24 C24         5.0905   53.5880   27.3159 C.3       1 UNK         0.0000 
     25 O25         4.7088   54.2053   28.5539 O.3       1 UNK         0.0000 
     26 C26         3.4044   54.0145   28.9727 C.ar      1 UNK         0.0000 
     27 C27         2.6155   55.1141   29.3364 C.ar      1 UNK         0.0000 
     28 C28         1.3220   54.9311   29.8229 C.ar      1 UNK         0.0000 
     29 C29         0.7772   53.6515   29.9115 C.ar      1 UNK         0.0000 
     30 C30         1.5575   52.5472   29.5698 C.ar      1 UNK         0.0000 
     31 C31         2.8707   52.7288   29.1325 C.ar      1 UNK         0.0000 
     32 F32         3.6391   51.6512   28.8820 F         1 UNK         0.0000 
     33 F33         1.0524   51.2986   29.6814 F         1 UNK         0.0000 
     34 F34        -0.4930   53.4822   30.3501 F         1 UNK         0.0000 
     35 F35         0.6207   56.0057   30.2446 F         1 UNK         0.0000 
     36 F36         3.1043   56.3702   29.2816 F         1 UNK         0.0000 
     37 F37        -1.6230   49.0375   25.2785 F         1 UNK         0.0000 
     38 H38        -1.3038   52.8964   22.9680 H         1 UNK         0.0000 
     39 H39        -2.5786   51.2636   24.3103 H         1 UNK         0.0000 
     40 H40         0.9070   48.8010   24.6655 H         1 UNK         0.0000 
     41 H41         2.1988   50.4191   23.3221 H         1 UNK         0.0000 
     42 H42         1.3680   54.1789   24.5662 H         1 UNK         0.0000 
     43 H43         3.2835   55.0036   25.8273 H         1 UNK         0.0000 
     44 H44         5.9334   53.5568   22.7803 H         1 UNK         0.0000 
     45 H45         2.8504   51.4821   18.5448 H         1 UNK         0.0000 
     46 H46         4.4438   51.3321   19.1358 H         1 UNK         0.0000 
     47 H47         4.2402   53.2249   26.7482 H         1 UNK         0.0000 
     48 H48         5.6562   52.6855   27.5500 H         1 UNK         0.0000 
@<TRIPOS>BOND
     1    1    6 ar   
     2    1    2 ar   
     3    1   38 1    
     4    2    3 ar   
     5    2   39 1    
     6    3    4 ar   
     7    3   37 1    
     8    4    5 ar   
     9    4   40 1    
    10    5    6 ar   
    11    5   41 1    
    12    6    7 1    
    13    7    8 1    
    14    7   17 1    
    15    7    9 1    
    16    9   14 ar   
    17    9   10 ar   
    18   10   11 ar   
    19   10   42 1    
    20   11   12 ar   
    21   11   43 1    
    22   12   13 ar   
    23   12   21 1    
    24   13   14 ar   
    25   13   44 1    
    26   14   15 1    
    27   15   16 1    
    28   16   17 2    
    29   16   20 1    
    30   17   18 1    
    31   18   19 3    
    32   20   45 1    
    33   20   46 1    
    34   21   22 1    
    35   22   23 2    
    36   22   24 1    
    37   24   25 1    
    38   24   47 1    
    39   24   48 1    
    40   25   26 1    
    41   26   31 ar   
    42   26   27 ar   
    43   27   28 ar   
    44   27   36 1    
    45   28   29 ar   
    46   28   35 1    
    47   29   30 ar   
    48   29   34 1    
    49   30   31 ar   
    50   30   33 1    
    51   31   32 1    
@<TRIPOS>SUBSTRUCTURE
     1 UNK         1 GROUP             0       ****    0 ROOT    
