@<TRIPOS>MOLECULE
ZINC66248301_1400
52   55    1
SMALL
USER_CHARGES


@<TRIPOS>ATOM
      1 C1          5.4088   54.1391   28.5377 C.ar      1 UNK         0.0000 
      2 C2          6.6792   53.8583   28.0794 C.ar      1 UNK         0.0000 
      3 N3          6.7838   54.0654   26.7962 N.2       1 UNK         0.0000 
      4 N4          5.5571   54.4430   26.3760 N.pl3     1 UNK         0.0000 
      5 C5          4.6660   54.4920   27.4378 C.ar      1 UNK         0.0000 
      6 N6          3.3557   54.8609   27.3587 N.pl3     1 UNK         0.0000 
      7 S7          2.1009   54.3013   28.4787 S.o2      1 UNK         0.0000 
      8 O8          1.1038   55.3678   28.4809 O.2       1 UNK         0.0000 
      9 O9          2.7046   53.8467   29.7369 O.2       1 UNK         0.0000 
     10 C10         1.3486   52.8424   27.6852 C.ar      1 UNK         0.0000 
     11 C11         1.0408   52.6654   26.3268 C.ar      1 UNK         0.0000 
     12 C12         0.3607   51.4470   26.1429 C.ar      1 UNK         0.0000 
     13 N13         0.2645   50.8973   27.4009 N.pl3     1 UNK         0.0000 
     14 H14        -0.2145   50.0243   27.6067 H         1 UNK         0.0000 
     15 C15         0.8444   51.7229   28.3311 C.ar      1 UNK         0.0000 
     16 C16        -0.2196   50.7763   24.9875 C.2       1 UNK         0.0000 
     17 O17        -0.8697   49.7442   25.1745 O.2       1 UNK         0.0000 
     18 N18        -0.0831   51.3014   23.7405 N.am      1 UNK         0.0000 
     19 C19        -0.7488   50.6669   22.5907 C.3       1 UNK         0.0000 
     20 C20        -0.4661   51.6255   21.4395 C.3       1 UNK         0.0000 
     21 C21         0.8840   52.2069   21.8026 C.3       1 UNK         0.0000 
     22 C22         0.8143   52.3820   23.3188 C.3       1 UNK         0.0000 
     23 C23         5.3542   54.8396   24.9528 C.3       1 UNK         0.0000 
     24 C24         6.6313   54.5422   24.1020 C.3       1 UNK         0.0000 
     25 C25         6.4425   54.7755   22.5989 C.3       1 UNK         0.0000 
     26 C26         5.2579   53.9544   22.0640 C.3       1 UNK         0.0000 
     27 C27         3.9604   54.2479   22.8354 C.3       1 UNK         0.0000 
     28 C28         4.1168   54.0994   24.3665 C.3       1 UNK         0.0000 
     29 H29         5.0627   54.1027   29.5542 H         1 UNK         0.0000 
     30 H30         7.5052   53.5491   28.6923 H         1 UNK         0.0000 
     31 H31         3.0688   55.6661   26.8269 H         1 UNK         0.0000 
     32 H32         1.2788   53.3958   25.5736 H         1 UNK         0.0000 
     33 H33         0.8209   51.4595   29.3782 H         1 UNK         0.0000 
     34 H34        -1.8198   50.5365   22.7527 H         1 UNK         0.0000 
     35 H35        -0.2829   49.6991   22.3948 H         1 UNK         0.0000 
     36 H36        -1.2207   52.4143   21.4175 H         1 UNK         0.0000 
     37 H37        -0.4840   51.1294   20.4690 H         1 UNK         0.0000 
     38 H38         1.6763   51.5006   21.5471 H         1 UNK         0.0000 
     39 H39         1.1067   53.1395   21.2811 H         1 UNK         0.0000 
     40 H40         1.8169   52.2738   23.7315 H         1 UNK         0.0000 
     41 H41         0.3668   53.3535   23.5332 H         1 UNK         0.0000 
     42 H42         5.1882   55.9148   25.0004 H         1 UNK         0.0000 
     43 H43         7.4275   55.2187   24.4208 H         1 UNK         0.0000 
     44 H44         7.0092   53.5346   24.2846 H         1 UNK         0.0000 
     45 H45         6.3047   55.8371   22.3945 H         1 UNK         0.0000 
     46 H46         7.3591   54.4970   22.0798 H         1 UNK         0.0000 
     47 H47         5.1104   54.1576   21.0026 H         1 UNK         0.0000 
     48 H48         5.4929   52.8910   22.1390 H         1 UNK         0.0000 
     49 H49         3.6111   55.2553   22.5925 H         1 UNK         0.0000 
     50 H50         3.1820   53.5816   22.4734 H         1 UNK         0.0000 
     51 H51         4.0804   53.0620   24.6890 H         1 UNK         0.0000 
     52 H52         3.2176   54.5445   24.7893 H         1 UNK         0.0000 
@<TRIPOS>BOND
     1    1    5 ar   
     2    1    2 ar   
     3    1   29 1    
     4    2    3 ar   
     5    2   30 1    
     6    3    4 ar   
     7    4    5 ar   
     8    4   23 1    
     9    5    6 1    
    10    6    7 1    
    11    6   31 1    
    12    7    8 2    
    13    7    9 2    
    14    7   10 1    
    15   10   15 ar   
    16   10   11 ar   
    17   11   12 ar   
    18   11   32 1    
    19   12   13 ar   
    20   12   16 1    
    21   13   14 1    
    22   13   15 ar   
    23   15   33 1    
    24   16   17 2    
    25   16   18 am   BACKBONE|DICT|INTERRES
    26   18   22 1    
    27   18   19 1    
    28   19   20 1    
    29   19   34 1    
    30   19   35 1    
    31   20   21 1    
    32   20   36 1    
    33   20   37 1    
    34   21   22 1    
    35   21   38 1    
    36   21   39 1    
    37   22   40 1    
    38   22   41 1    
    39   23   28 1    
    40   23   24 1    
    41   23   42 1    
    42   24   25 1    
    43   24   43 1    
    44   24   44 1    
    45   25   26 1    
    46   25   45 1    
    47   25   46 1    
    48   26   27 1    
    49   26   47 1    
    50   26   48 1    
    51   27   28 1    
    52   27   49 1    
    53   27   50 1    
    54   28   51 1    
    55   28   52 1    
@<TRIPOS>SUBSTRUCTURE
     1 UNK         1 GROUP             0       ****    0 ROOT    
