@<TRIPOS>MOLECULE
ZINC23394009_2499
49   51    1
SMALL
USER_CHARGES


@<TRIPOS>ATOM
      1 C1          1.0579   49.8873   22.0726 C.ar      1 UNK         0.0000 
      2 C2          0.6986   49.2240   20.9023 C.ar      1 UNK         0.0000 
      3 C3          1.3471   49.5208   19.7008 C.ar      1 UNK         0.0000 
      4 C4          2.3411   50.5043   19.6719 C.ar      1 UNK         0.0000 
      5 C5          2.7014   51.1797   20.8446 C.ar      1 UNK         0.0000 
      6 C6          2.0597   50.8554   22.0455 C.ar      1 UNK         0.0000 
      7 S7          4.0561   52.3704   20.8126 S.o2      1 UNK         0.0000 
      8 O8          4.3317   52.6974   19.4126 O.2       1 UNK         0.0000 
      9 O9          5.1043   51.8135   21.6731 O.2       1 UNK         0.0000 
     10 N10         3.5024   53.8692   21.5550 N.pl3     1 UNK         0.0000 
     11 N11         3.0993   53.7841   22.8700 N.am      1 UNK         0.0000 
     12 C12         3.9075   54.1023   23.8979 C.2       1 UNK         0.0000 
     13 O13         5.0720   54.4906   23.7797 O.2       1 UNK         0.0000 
     14 C14         3.2897   54.0228   25.1983 C.2       1 UNK         0.0000 
     15 C15         3.8126   54.4966   26.3898 C.2       1 UNK         0.0000 
     16 C16         2.9831   54.3037   27.5023 C.2       1 UNK         0.0000 
     17 C17         1.8142   53.6054   27.1885 C.2       1 UNK         0.0000 
     18 S18         1.7818   53.2086   25.4922 S.3       1 UNK         0.0000 
     19 C19         0.6522   53.2297   28.0960 C.3       1 UNK         0.0000 
     20 C20         0.9441   52.0852   29.0921 C.3       1 UNK         0.0000 
     21 C21         1.9484   52.3970   30.2277 C.3       1 UNK         0.0000 
     22 C22         3.4352   52.3529   29.8066 C.3       1 UNK         0.0000 
     23 C23         4.1110   53.7323   29.6818 C.3       1 UNK         0.0000 
     24 C24         3.3238   54.7836   28.8901 C.3       1 UNK         0.0000 
     25 S25         0.9033   48.6459   18.2029 S.o2      1 UNK         0.0000 
     26 O26        -0.1651   47.6985   18.5363 O.2       1 UNK         0.0000 
     27 O27         0.7128   49.6488   17.1502 O.2       1 UNK         0.0000 
     28 N28         2.3036   47.6997   17.7782 N.pl3     1 UNK         0.0000 
     29 H29         0.5685   49.6427   23.0037 H         1 UNK         0.0000 
     30 H30        -0.0756   48.4725   20.9371 H         1 UNK         0.0000 
     31 H31         2.8452   50.7264   18.7392 H         1 UNK         0.0000 
     32 H32         2.3255   51.3323   22.9739 H         1 UNK         0.0000 
     33 H33         2.8392   54.4067   20.9867 H         1 UNK         0.0000 
     34 H34         2.1503   53.4764   23.0135 H         1 UNK         0.0000 
     35 H35         4.7669   55.0007   26.4525 H         1 UNK         0.0000 
     36 H36        -0.2108   52.9390   27.4934 H         1 UNK         0.0000 
     37 H37         0.3189   54.1053   28.6531 H         1 UNK         0.0000 
     38 H38         1.2540   51.1903   28.5502 H         1 UNK         0.0000 
     39 H39        -0.0037   51.8144   29.5618 H         1 UNK         0.0000 
     40 H40         1.8050   51.6644   31.0195 H         1 UNK         0.0000 
     41 H41         1.6936   53.3414   30.7092 H         1 UNK         0.0000 
     42 H42         3.5455   51.8042   28.8692 H         1 UNK         0.0000 
     43 H43         3.9991   51.7687   30.5351 H         1 UNK         0.0000 
     44 H44         5.0953   53.6039   29.2284 H         1 UNK         0.0000 
     45 H45         4.3045   54.1203   30.6819 H         1 UNK         0.0000 
     46 H46         2.4247   55.0763   29.4312 H         1 UNK         0.0000 
     47 H47         3.9044   55.6961   28.8463 H         1 UNK         0.0000 
     48 H48         2.0688   46.9107   17.1758 H         1 UNK         0.0000 
     49 H49         3.0160   48.2865   17.3008 H         1 UNK         0.0000 
@<TRIPOS>BOND
     1    1    6 ar   
     2    1    2 ar   
     3    1   29 1    
     4    2    3 ar   
     5    2   30 1    
     6    3    4 ar   
     7    3   25 1    
     8    4    5 ar   
     9    4   31 1    
    10    5    6 ar   
    11    5    7 1    
    12    6   32 1    
    13    7    8 2    
    14    7    9 2    
    15    7   10 1    
    16   10   11 1    
    17   10   33 1    
    18   11   12 am   BACKBONE|DICT|INTERRES
    19   11   34 1    
    20   12   13 2    
    21   12   14 1    
    22   14   18 1    
    23   14   15 2    
    24   15   16 1    
    25   15   35 1    
    26   16   24 1    
    27   16   17 2    
    28   17   18 1    
    29   17   19 1    
    30   19   20 1    
    31   19   36 1    
    32   19   37 1    
    33   20   21 1    
    34   20   38 1    
    35   20   39 1    
    36   21   22 1    
    37   21   40 1    
    38   21   41 1    
    39   22   23 1    
    40   22   42 1    
    41   22   43 1    
    42   23   24 1    
    43   23   44 1    
    44   23   45 1    
    45   24   46 1    
    46   24   47 1    
    47   25   26 2    
    48   25   27 2    
    49   25   28 1    
    50   28   48 1    
    51   28   49 1    
@<TRIPOS>SUBSTRUCTURE
     1 UNK         1 GROUP             0       ****    0 ROOT    
