@<TRIPOS>MOLECULE
ZINC38651702_4140
51   54    1
SMALL
USER_CHARGES


@<TRIPOS>ATOM
      1 C1          7.3302   54.5582   16.4185 C.3       1 UNK         0.0000 
      2 C2          7.4622   55.5790   17.5779 C.3       1 UNK         0.0000 
      3 H3          8.3584   55.2782   18.1244 H         1 UNK         0.0000 
      4 C4          6.3306   55.5085   18.6291 C.2       1 UNK         0.0000 
      5 O5          5.6465   56.4968   18.9108 O.2       1 UNK         0.0000 
      6 O6          6.2036   54.2583   19.1733 O.3       1 UNK         0.0000 
      7 C7          5.2865   53.9775   20.1700 C.ar      1 UNK         0.0000 
      8 C8          5.0431   54.8234   21.2568 C.ar      1 UNK         0.0000 
      9 C9          4.0740   54.4967   22.2029 C.ar      1 UNK         0.0000 
     10 C10         3.3920   53.2786   22.1785 C.ar      1 UNK         0.0000 
     11 C11         3.6953   52.4083   21.1114 C.ar      1 UNK         0.0000 
     12 C12         4.6055   52.7628   20.1126 C.ar      1 UNK         0.0000 
     13 O13         3.1271   51.1595   20.9900 O.3       1 UNK         0.0000 
     14 C14         2.3060   50.7144   21.9672 C.2       1 UNK         0.0000 
     15 C15         1.9044   51.4257   23.0409 C.2       1 UNK         0.0000 
     16 C16         2.3387   52.8902   23.2491 C.3       1 UNK         0.0000 
     17 H17         1.4682   53.4966   22.9922 H         1 UNK         0.0000 
     18 C18         2.6318   53.3002   24.7205 C.ar      1 UNK         0.0000 
     19 C19         1.5840   53.2968   25.6510 C.ar      1 UNK         0.0000 
     20 C20         1.8062   53.6405   26.9837 C.ar      1 UNK         0.0000 
     21 C21         3.0774   54.0260   27.3971 C.ar      1 UNK         0.0000 
     22 C22         4.1281   54.0630   26.4887 C.ar      1 UNK         0.0000 
     23 C23         3.9063   53.6967   25.1632 C.ar      1 UNK         0.0000 
     24 Br24        3.3827   54.4967   29.2162 Br        1 UNK         0.0000 
     25 C25         1.0196   50.8055   23.9742 C.1       1 UNK         0.0000 
     26 N26         0.2880   50.2781   24.6979 N.1       1 UNK         0.0000 
     27 N27         1.9999   49.4135   21.6814 N.pl3     1 UNK         0.0000 
     28 O28         7.7483   56.9261   17.1532 O.3       1 UNK         0.0000 
     29 C29         6.9550   57.6520   16.2748 C.ar      1 UNK         0.0000 
     30 C30         5.6504   57.2957   15.8856 C.ar      1 UNK         0.0000 
     31 C31         4.9162   58.1102   15.0216 C.ar      1 UNK         0.0000 
     32 C32         5.4713   59.2919   14.5357 C.ar      1 UNK         0.0000 
     33 C33         6.7605   59.6601   14.9165 C.ar      1 UNK         0.0000 
     34 C34         7.4947   58.8486   15.7825 C.ar      1 UNK         0.0000 
     35 F35         8.7400   59.2352   16.1478 F         1 UNK         0.0000 
     36 H36         7.1502   53.5482   16.7890 H         1 UNK         0.0000 
     37 H37         6.5270   54.7836   15.7198 H         1 UNK         0.0000 
     38 H38         8.2559   54.5213   15.8446 H         1 UNK         0.0000 
     39 H39         5.5679   55.7622   21.3454 H         1 UNK         0.0000 
     40 H40         3.8447   55.2031   22.9851 H         1 UNK         0.0000 
     41 H41         4.7897   52.0968   19.2837 H         1 UNK         0.0000 
     42 H42         0.5863   53.0097   25.3503 H         1 UNK         0.0000 
     43 H43         0.9911   53.6140   27.6922 H         1 UNK         0.0000 
     44 H44         5.1182   54.3489   26.8137 H         1 UNK         0.0000 
     45 H45         4.7599   53.6812   24.5050 H         1 UNK         0.0000 
     46 H46         1.4198   48.8849   22.3149 H         1 UNK         0.0000 
     47 H47         2.5906   48.8969   21.0451 H         1 UNK         0.0000 
     48 H48         5.1711   56.4080   16.2659 H         1 UNK         0.0000 
     49 H49         3.9105   57.8339   14.7420 H         1 UNK         0.0000 
     50 H50         4.8985   59.9337   13.8829 H         1 UNK         0.0000 
     51 H51         7.1840   60.5890   14.5607 H         1 UNK         0.0000 
@<TRIPOS>BOND
     1    1    2 1    
     2    1   36 1    
     3    1   37 1    
     4    1   38 1    
     5    2    3 1    
     6    2    4 1    
     7    2   28 1    
     8    4    5 2    
     9    4    6 1    
    10    6    7 1    
    11    7   12 ar   
    12    7    8 ar   
    13    8    9 ar   
    14    8   39 1    
    15    9   10 ar   
    16    9   40 1    
    17   10   16 1    
    18   10   11 ar   
    19   11   12 ar   
    20   11   13 1    
    21   12   41 1    
    22   13   14 1    
    23   14   15 2    
    24   14   27 1    
    25   15   16 1    
    26   15   25 1    
    27   16   17 1    
    28   16   18 1    
    29   18   23 ar   
    30   18   19 ar   
    31   19   20 ar   
    32   19   42 1    
    33   20   21 ar   
    34   20   43 1    
    35   21   22 ar   
    36   21   24 1    
    37   22   23 ar   
    38   22   44 1    
    39   23   45 1    
    40   25   26 3    
    41   27   46 1    
    42   27   47 1    
    43   28   29 1    
    44   29   34 ar   
    45   29   30 ar   
    46   30   31 ar   
    47   30   48 1    
    48   31   32 ar   
    49   31   49 1    
    50   32   33 ar   
    51   32   50 1    
    52   33   34 ar   
    53   33   51 1    
    54   34   35 1    
@<TRIPOS>SUBSTRUCTURE
     1 UNK         1 GROUP             0       ****    0 ROOT    
