ZINC03500101_4571
                    3D
 Schrodinger Suite 2024-2.
 53 55  0  0  1  0            999 V2000
   -3.3413   47.5046   25.6917 C   0  0  0  0  0  0
   -2.3599   48.3818   24.9357 C   0  0  0  0  0  0
   -2.7841   49.5823   24.3659 C   0  0  0  0  0  0
   -1.8694   50.3982   23.7046 C   0  0  0  0  0  0
   -0.5215   50.0280   23.6109 C   0  0  0  0  0  0
   -0.1046   48.8267   24.1953 C   0  0  0  0  0  0
   -1.0204   48.0050   24.8474 C   0  0  0  0  0  0
    0.4431   50.9405   22.9054 C   0  0  0  0  0  0
    0.2594   52.2360   22.8031 N   0  0  0  0  0  0
    1.3208   52.7625   22.0823 N   0  0  0  0  0  0
    2.1219   51.7727   21.7819 C   0  0  0  0  0  0
    1.6178   50.5839   22.2646 N   0  0  0  0  0  0
    2.1559   49.3173   22.0809 N   0  0  0  0  0  0
    3.5784   51.9157   20.7876 S   0  0  0  0  0  0
    4.1086   53.6221   21.1677 C   0  0  2  0  0  0
    3.2205   54.2539   21.1739 H   0  0  0  0  0  0
    5.0123   54.1833   20.0499 C   0  0  0  0  0  0
    4.7836   53.6966   22.5481 C   0  0  0  0  0  0
    5.9024   53.2088   22.6970 O   0  0  0  0  0  0
    4.0712   54.2663   23.5393 N   0  0  0  0  0  0
    4.4204   54.3653   24.9007 C   0  0  0  0  0  0
    5.6687   54.8480   25.3665 C   0  0  0  0  0  0
    5.9134   54.8954   26.7412 C   0  0  0  0  0  0
    4.9424   54.4946   27.6567 C   0  0  0  0  0  0
    3.7086   54.0442   27.1996 C   0  0  0  0  0  0
    3.4351   53.9818   25.8331 C   0  0  0  0  0  0
    2.0718   53.4517   25.4024 C   0  0  0  0  0  0
    5.2513   54.4955   29.1396 C   0  0  0  0  0  0
    6.7754   55.3647   24.4547 C   0  0  0  0  0  0
   -4.1737   48.0922   26.0796 H   0  0  0  0  0  0
   -3.7258   46.7115   25.0520 H   0  0  0  0  0  0
   -2.8548   47.0524   26.5578 H   0  0  0  0  0  0
   -3.8174   49.8859   24.4396 H   0  0  0  0  0  0
   -2.2149   51.3250   23.2665 H   0  0  0  0  0  0
    0.9307   48.5212   24.1720 H   0  0  0  0  0  0
   -0.6829   47.0800   25.2835 H   0  0  0  0  0  0
    2.3203   49.1234   21.1002 H   0  0  0  0  0  0
    2.9779   49.1602   22.6504 H   0  0  0  0  0  0
    5.3631   55.1924   20.2751 H   0  0  0  0  0  0
    5.8858   53.5539   19.8889 H   0  0  0  0  0  0
    4.4709   54.2300   19.1037 H   0  0  0  0  0  0
    3.1077   54.4821   23.3263 H   0  0  0  0  0  0
    6.8658   55.2475   27.1098 H   0  0  0  0  0  0
    2.9638   53.7213   27.9137 H   0  0  0  0  0  0
    1.5824   54.1508   24.7249 H   0  0  0  0  0  0
    2.2003   52.5075   24.8741 H   0  0  0  0  0  0
    1.3975   53.2836   26.2421 H   0  0  0  0  0  0
    6.3118   54.2992   29.2815 H   0  0  0  0  0  0
    4.7051   53.7046   29.6549 H   0  0  0  0  0  0
    5.0094   55.4508   29.5996 H   0  0  0  0  0  0
    6.3759   55.8385   23.5605 H   0  0  0  0  0  0
    7.3826   56.1171   24.9508 H   0  0  0  0  0  0
    7.4401   54.5507   24.1630 H   0  0  0  0  0  0
  1  2  1  0  0  0
  1 30  1  0  0  0
  1 31  1  0  0  0
  1 32  1  0  0  0
  2  7  2  0  0  0
  2  3  1  0  0  0
  3  4  2  0  0  0
  3 33  1  0  0  0
  4  5  1  0  0  0
  4 34  1  0  0  0
  5  6  2  0  0  0
  5  8  1  0  0  0
  6  7  1  0  0  0
  6 35  1  0  0  0
  7 36  1  0  0  0
  8 12  1  0  0  0
  8  9  2  0  0  0
  9 10  1  0  0  0
 10 11  2  0  0  0
 11 12  1  0  0  0
 11 14  1  0  0  0
 12 13  1  0  0  0
 13 37  1  0  0  0
 13 38  1  0  0  0
 14 15  1  0  0  0
 15 16  1  0  0  0
 15 17  1  0  0  0
 15 18  1  0  0  0
 17 39  1  0  0  0
 17 40  1  0  0  0
 17 41  1  0  0  0
 18 19  2  0  0  0
 18 20  1  0  0  0
 20 21  1  0  0  0
 20 42  1  0  0  0
 21 26  2  0  0  0
 21 22  1  0  0  0
 22 23  2  0  0  0
 22 29  1  0  0  0
 23 24  1  0  0  0
 23 43  1  0  0  0
 24 25  2  0  0  0
 24 28  1  0  0  0
 25 26  1  0  0  0
 25 44  1  0  0  0
 26 27  1  0  0  0
 27 45  1  0  0  0
 27 46  1  0  0  0
 27 47  1  0  0  0
 28 48  1  0  0  0
 28 49  1  0  0  0
 28 50  1  0  0  0
 29 51  1  0  0  0
 29 52  1  0  0  0
 29 53  1  0  0  0
M  END
> <i_i_glide_confnum>
3

> <i_i_glide_lignum>
4572

> <i_i_glide_posenum>
320

> <i_i_glide_rotatable_bonds>
6

> <i_m_Source_File_Index>
4166

> <b_m_subgroup_collapsed>
0

> <r_i_docking_score>
-5.17669

> <r_i_glide_ecoul>
-2.74554

> <r_i_glide_eff_state_penalty>
0

> <r_i_glide_einternal>
2.18857

> <r_i_glide_emodel>
-56.872

> <r_i_glide_energy>
-43.9026

> <r_i_glide_erotb>
0.750038

> <r_i_glide_esite>
0

> <r_i_glide_evdw>
-41.157

> <r_i_glide_gscore>
-5.17669

> <r_i_glide_hbond>
-0.00467987

> <r_i_glide_ligand_efficiency>
-0.184882

> <r_i_glide_ligand_efficiency_ln>
-1.19493

> <r_i_glide_ligand_efficiency_sa>
-0.56141

> <r_i_glide_lipo>
-2.07202

> <r_i_glide_metal>
0

> <r_i_glide_rewards>
-1.38035

> <s_i_glide_gridfile>
wee1_glide-grid

> <s_m_Source_File>
wee1_decoys_glide_SP.sdf

> <s_m_Source_Path>
/Users/zhangxujun/Desktop

> <s_m_entry_id>
4441

> <s_m_entry_name>
wee1_decoys_glide_SP.4166

> <s_m_subgroup_title>
wee1_decoys_glide_SP

> <s_m_subgroupid>
wee1_decoys_glide_SP


$$$$
