ZINC39037457_6050
                    3D
 Schrodinger Suite 2024-2.
 54 57  0  0  1  0            999 V2000
    7.7683   56.1422   18.3752 C   0  0  0  0  0  0
    6.7482   55.1712   18.9552 C   0  0  0  0  0  0
    6.1692   54.2102   18.1213 C   0  0  0  0  0  0
    5.2445   53.2980   18.6258 C   0  0  0  0  0  0
    4.8717   53.3383   19.9714 C   0  0  0  0  0  0
    5.4468   54.3079   20.8080 C   0  0  0  0  0  0
    6.3838   55.2162   20.3120 C   0  0  0  0  0  0
    7.0174   56.2016   21.2741 C   0  0  0  0  0  0
    3.9781   52.3492   20.4217 N   0  0  0  0  0  0
    3.1944   52.3900   21.5177 C   0  0  0  0  0  0
    3.0630   53.3675   22.2566 O   0  0  0  0  0  0
    2.5685   51.1550   21.6606 N   0  0  0  0  0  0
    1.7728   50.8083   22.6104 C   0  0  0  0  0  0
    1.1721   49.5686   22.7280 N   0  0  0  0  0  0
    0.4195   49.4303   23.7432 N   0  3  0  0  0  0
    0.2744   50.5650   24.6721 C   0  0  1  0  0  0
    0.7044   50.2492   25.6222 H   0  0  0  0  0  0
    1.2853   51.8728   23.9906 S   0  0  0  0  0  0
   -1.1686   51.0408   24.8772 C   0  0  0  0  0  0
   -2.0224   51.1608   23.7706 C   0  0  0  0  0  0
   -3.3357   51.5985   23.9222 C   0  0  0  0  0  0
   -3.8177   51.9317   25.1845 C   0  0  0  0  0  0
   -2.9801   51.8298   26.2948 C   0  0  0  0  0  0
   -1.6615   51.3970   26.1496 C   0  0  0  0  0  0
   -0.6843   51.2983   27.6241 S   0  0  0  0  0  0
    0.7616   52.3870   27.4502 C   0  0  0  0  0  0
    0.8919   53.4522   28.5334 C   0  0  0  0  0  0
    0.2981   53.3136   29.7962 C   0  0  0  0  0  0
    0.3979   54.3451   30.7248 C   0  0  0  0  0  0
    1.1045   55.4970   30.3936 C   0  0  0  0  0  0
    1.7356   55.6264   29.1654 C   0  0  0  0  0  0
    1.6320   54.5996   28.2371 C   0  0  0  0  0  0
    1.1984   56.5002   31.2820 F   0  0  0  0  0  0
    7.8677   56.0342   17.2935 H   0  0  0  0  0  0
    7.4742   57.1711   18.5787 H   0  0  0  0  0  0
    8.7459   55.9770   18.8289 H   0  0  0  0  0  0
    6.4454   54.1564   17.0775 H   0  0  0  0  0  0
    4.8308   52.5458   17.9652 H   0  0  0  0  0  0
    5.2091   54.3427   21.8598 H   0  0  0  0  0  0
    6.7453   56.0101   22.3125 H   0  0  0  0  0  0
    6.7075   57.2159   21.0148 H   0  0  0  0  0  0
    8.1047   56.1201   21.2174 H   0  0  0  0  0  0
    3.9130   51.5305   19.8316 H   0  0  0  0  0  0
   -1.6691   50.9167   22.7796 H   0  0  0  0  0  0
   -3.9858   51.6720   23.0637 H   0  0  0  0  0  0
   -4.8354   52.2638   25.3072 H   0  0  0  0  0  0
   -3.3611   52.0847   27.2741 H   0  0  0  0  0  0
    1.6663   51.7803   27.4162 H   0  0  0  0  0  0
    0.6768   52.8953   26.4944 H   0  0  0  0  0  0
   -0.2558   52.4247   30.0637 H   0  0  0  0  0  0
   -0.0662   54.2508   31.6976 H   0  0  0  0  0  0
    2.2925   56.5230   28.9330 H   0  0  0  0  0  0
    2.1182   54.7057   27.2791 H   0  0  0  0  0  0
   -0.0522   48.5515   23.9338 H   0  0  0  0  0  0
  1  2  1  0  0  0
  1 34  1  0  0  0
  1 35  1  0  0  0
  1 36  1  0  0  0
  2  7  2  0  0  0
  2  3  1  0  0  0
  3  4  2  0  0  0
  3 37  1  0  0  0
  4  5  1  0  0  0
  4 38  1  0  0  0
  5  6  2  0  0  0
  5  9  1  0  0  0
  6  7  1  0  0  0
  6 39  1  0  0  0
  7  8  1  0  0  0
  8 40  1  0  0  0
  8 41  1  0  0  0
  8 42  1  0  0  0
  9 10  1  0  0  0
  9 43  1  0  0  0
 10 11  2  0  0  0
 10 12  1  0  0  0
 12 13  2  0  0  0
 13 18  1  0  0  0
 13 14  1  0  0  0
 14 15  2  0  0  0
 15 16  1  0  0  0
 15 54  1  0  0  0
 16 17  1  0  0  0
 16 18  1  0  0  0
 16 19  1  0  0  0
 19 24  2  0  0  0
 19 20  1  0  0  0
 20 21  2  0  0  0
 20 44  1  0  0  0
 21 22  1  0  0  0
 21 45  1  0  0  0
 22 23  2  0  0  0
 22 46  1  0  0  0
 23 24  1  0  0  0
 23 47  1  0  0  0
 24 25  1  0  0  0
 25 26  1  0  0  0
 26 27  1  0  0  0
 26 48  1  0  0  0
 26 49  1  0  0  0
 27 32  2  0  0  0
 27 28  1  0  0  0
 28 29  2  0  0  0
 28 50  1  0  0  0
 29 30  1  0  0  0
 29 51  1  0  0  0
 30 31  2  0  0  0
 30 33  1  0  0  0
 31 32  1  0  0  0
 31 52  1  0  0  0
 32 53  1  0  0  0
M  CHG  1  15   1
M  END
> <i_i_glide_confnum>
144

> <i_i_glide_lignum>
6051

> <i_i_glide_posenum>
170

> <i_i_glide_rotatable_bonds>
7

> <i_m_Source_File_Index>
114

> <b_m_subgroup_collapsed>
0

> <r_i_docking_score>
-4.22269

> <r_i_glide_ecoul>
0.345575

> <r_i_glide_eff_state_penalty>
0

> <r_i_glide_einternal>
7.73224

> <r_i_glide_emodel>
-53.4681

> <r_i_glide_energy>
-42.9196

> <r_i_glide_erotb>
0.651271

> <r_i_glide_esite>
-0.0246866

> <r_i_glide_evdw>
-43.2652

> <r_i_glide_gscore>
-4.22269

> <r_i_glide_hbond>
0

> <r_i_glide_ligand_efficiency>
-0.131959

> <r_i_glide_ligand_efficiency_ln>
-0.945576

> <r_i_glide_ligand_efficiency_sa>
-0.418944

> <r_i_glide_lipo>
-2.11141

> <r_i_glide_metal>
0

> <r_i_glide_rewards>
-0.626445

> <s_i_glide_gridfile>
wee1_glide-grid

> <s_m_Source_File>
wee1_decoys_glide_SP.sdf

> <s_m_Source_Path>
/Users/zhangxujun/Desktop

> <s_m_entry_id>
389

> <s_m_entry_name>
wee1_decoys_glide_SP.114

> <s_m_subgroup_title>
wee1_decoys_glide_SP

> <s_m_subgroupid>
wee1_decoys_glide_SP


$$$$
