@<TRIPOS>MOLECULE
ZINC01218278_3922
49   51    1
SMALL
USER_CHARGES


@<TRIPOS>ATOM
      1 C1          1.8305   51.8525   28.8141 C.3       1 UNK         0.0000 
      2 C2          1.7911   53.4003   28.6951 C.3       1 UNK         0.0000 
      3 C3          0.3189   53.8302   28.5017 C.3       1 UNK         0.0000 
      4 C4          2.2676   53.9882   30.0519 C.3       1 UNK         0.0000 
      5 C5          2.6688   53.9448   27.4982 C.3       1 UNK         0.0000 
      6 H6          2.5949   55.0337   27.5444 H         1 UNK         0.0000 
      7 C7          4.1651   53.5626   27.6194 C.3       1 UNK         0.0000 
      8 C8          5.0601   54.3081   26.6188 C.3       1 UNK         0.0000 
      9 C9          4.4764   54.2098   25.2048 C.2       1 UNK         0.0000 
     10 C10         3.1326   53.8818   24.9916 C.2       1 UNK         0.0000 
     11 S11         2.7463   53.7938   23.3005 S.3       1 UNK         0.0000 
     12 C12         4.3952   54.0956   22.8533 C.2       1 UNK         0.0000 
     13 C13         5.2091   54.2832   23.9887 C.2       1 UNK         0.0000 
     14 C14         6.6306   54.4370   23.9442 C.2       1 UNK         0.0000 
     15 O15         7.3463   53.6967   23.2817 O.2       1 UNK         0.0000 
     16 N16         7.1044   55.4702   24.6338 N.am      1 UNK         0.0000 
     17 N17         4.6641   54.0683   21.4834 N.am      1 UNK         0.0000 
     18 C18         5.4866   54.8966   20.7914 C.2       1 UNK         0.0000 
     19 O19         6.1440   55.8171   21.2819 O.2       1 UNK         0.0000 
     20 C20         5.5056   54.6974   19.2957 C.ar      1 UNK         0.0000 
     21 C21         5.2797   53.4400   18.7128 C.ar      1 UNK         0.0000 
     22 C22         5.2939   53.2973   17.3270 C.ar      1 UNK         0.0000 
     23 C23         5.5387   54.4004   16.5159 C.ar      1 UNK         0.0000 
     24 C24         5.7707   55.6507   17.0792 C.ar      1 UNK         0.0000 
     25 C25         5.7554   55.7982   18.4622 C.ar      1 UNK         0.0000 
     26 Br26        5.5600   54.1963   14.6248 Br        1 UNK         0.0000 
     27 C27         2.1385   53.5086   26.0900 C.3       1 UNK         0.0000 
     28 H28         1.2180   51.5035   29.6457 H         1 UNK         0.0000 
     29 H29         2.8381   51.4790   28.9909 H         1 UNK         0.0000 
     30 H30         1.4503   51.3543   27.9235 H         1 UNK         0.0000 
     31 H31         0.2673   54.8965   28.2845 H         1 UNK         0.0000 
     32 H32        -0.1606   53.2989   27.6802 H         1 UNK         0.0000 
     33 H33        -0.2873   53.6385   29.3888 H         1 UNK         0.0000 
     34 H34         2.3509   55.0755   30.0108 H         1 UNK         0.0000 
     35 H35         1.5724   53.7467   30.8586 H         1 UNK         0.0000 
     36 H36         3.2368   53.5915   30.3535 H         1 UNK         0.0000 
     37 H37         4.5428   53.8080   28.6111 H         1 UNK         0.0000 
     38 H38         4.3005   52.4901   27.5412 H         1 UNK         0.0000 
     39 H39         5.1628   55.3518   26.9098 H         1 UNK         0.0000 
     40 H40         6.0640   53.8832   26.6707 H         1 UNK         0.0000 
     41 H41         6.4846   56.1090   25.1071 H         1 UNK         0.0000 
     42 H42         8.0812   55.6904   24.4812 H         1 UNK         0.0000 
     43 H43         4.0028   53.5496   20.9240 H         1 UNK         0.0000 
     44 H44         5.1019   52.5562   19.3103 H         1 UNK         0.0000 
     45 H45         5.1157   52.3288   16.8832 H         1 UNK         0.0000 
     46 H46         5.9609   56.5038   16.4463 H         1 UNK         0.0000 
     47 H47         5.9356   56.7793   18.8804 H         1 UNK         0.0000 
     48 H48         2.0017   52.4292   26.0600 H         1 UNK         0.0000 
     49 H49         1.1695   53.9530   25.8738 H         1 UNK         0.0000 
@<TRIPOS>BOND
     1    1    2 1    
     2    1   28 1    
     3    1   29 1    
     4    1   30 1    
     5    2    3 1    
     6    2    4 1    
     7    2    5 1    
     8    3   31 1    
     9    3   32 1    
    10    3   33 1    
    11    4   34 1    
    12    4   35 1    
    13    4   36 1    
    14    5    6 1    
    15    5   27 1    
    16    5    7 1    
    17    7    8 1    
    18    7   37 1    
    19    7   38 1    
    20    8    9 1    
    21    8   39 1    
    22    8   40 1    
    23    9   13 1    
    24    9   10 2    
    25   10   11 1    
    26   10   27 1    
    27   11   12 1    
    28   12   13 2    
    29   12   17 am   BACKBONE|DICT|INTERRES
    30   13   14 1    
    31   14   15 2    
    32   14   16 am   BACKBONE|DICT|INTERRES
    33   16   41 1    
    34   16   42 1    
    35   17   18 am   BACKBONE|DICT|INTERRES
    36   17   43 1    
    37   18   19 2    
    38   18   20 1    
    39   20   25 ar   
    40   20   21 ar   
    41   21   22 ar   
    42   21   44 1    
    43   22   23 ar   
    44   22   45 1    
    45   23   24 ar   
    46   23   26 1    
    47   24   25 ar   
    48   24   46 1    
    49   25   47 1    
    50   27   48 1    
    51   27   49 1    
@<TRIPOS>SUBSTRUCTURE
     1 UNK         1 GROUP             0       ****    0 ROOT    
