@<TRIPOS>MOLECULE
ZINC35724594_2881
70   72    1
SMALL
USER_CHARGES


@<TRIPOS>ATOM
      1 C1         -0.7601   52.0998   19.8213 C.3       1 UNK         0.0000 
      2 C2         -0.5517   50.5922   19.6498 C.3       1 UNK         0.0000 
      3 C3          0.9190   50.1597   19.3954 C.3       1 UNK         0.0000 
      4 H4          0.8870   49.0679   19.3823 H         1 UNK         0.0000 
      5 C5          1.3533   50.5476   17.9671 C.3       1 UNK         0.0000 
      6 C6          1.9869   50.5336   20.4934 C.3       1 UNK         0.0000 
      7 H7          2.8282   49.8473   20.3720 H         1 UNK         0.0000 
      8 C8          1.4311   50.2431   21.9178 C.2       1 UNK         0.0000 
      9 O9          0.9181   49.1443   22.1285 O.2       1 UNK         0.0000 
     10 N10         1.5235   51.2317   22.8328 N.am      1 UNK         0.0000 
     11 C11         1.0502   51.2038   24.1326 C.2       1 UNK         0.0000 
     12 N12         0.5666   50.1817   24.8042 N.2       1 UNK         0.0000 
     13 N13         0.2843   50.5067   26.1268 N.2       1 UNK         0.0000 
     14 C14         0.5573   51.7601   26.4218 C.2       1 UNK         0.0000 
     15 S15         1.1268   52.6740   25.0473 S.3       1 UNK         0.0000 
     16 C16         0.4507   52.3586   27.7935 C.ar      1 UNK         0.0000 
     17 C17        -0.2757   51.6985   28.7929 C.ar      1 UNK         0.0000 
     18 C18        -0.3371   52.2208   30.0831 C.ar      1 UNK         0.0000 
     19 C19         0.3228   53.4120   30.3776 C.ar      1 UNK         0.0000 
     20 C20         1.0370   54.0865   29.3913 C.ar      1 UNK         0.0000 
     21 C21         1.1038   53.5588   28.1051 C.ar      1 UNK         0.0000 
     22 Cl22        0.2687   54.0584   31.9757 Cl        1 UNK         0.0000 
     23 N23         2.5396   51.8917   20.3194 N.am      1 UNK         0.0000 
     24 C24         3.8012   52.2620   20.5980 C.2       1 UNK         0.0000 
     25 O25         4.6874   51.4838   20.9524 O.2       1 UNK         0.0000 
     26 N26         3.9598   53.5850   20.4241 N.am      1 UNK         0.0000 
     27 C27         5.1647   54.3065   20.4983 C.ar      1 UNK         0.0000 
     28 C28         5.6349   54.9002   19.2991 C.ar      1 UNK         0.0000 
     29 C29         6.8092   55.6585   19.3306 C.ar      1 UNK         0.0000 
     30 C30         7.5028   55.8526   20.5135 C.ar      1 UNK         0.0000 
     31 C31         7.0290   55.2969   21.6924 C.ar      1 UNK         0.0000 
     32 C32         5.8712   54.5014   21.7209 C.ar      1 UNK         0.0000 
     33 C33         5.4474   53.8457   23.0613 C.3       1 UNK         0.0000 
     34 C34         6.4903   53.9187   24.2034 C.3       1 UNK         0.0000 
     35 C35         4.0853   54.3307   23.5929 C.3       1 UNK         0.0000 
     36 C36         4.9498   54.7350   17.9243 C.3       1 UNK         0.0000 
     37 C37         5.0168   53.2976   17.3712 C.3       1 UNK         0.0000 
     38 C38         3.5356   55.3395   17.8567 C.3       1 UNK         0.0000 
     39 H39        -1.8229   52.3331   19.8739 H         1 UNK         0.0000 
     40 H40        -0.2993   52.4650   20.7394 H         1 UNK         0.0000 
     41 H41        -0.3409   52.6610   18.9867 H         1 UNK         0.0000 
     42 H42        -1.1766   50.2401   18.8276 H         1 UNK         0.0000 
     43 H43        -0.9507   50.0855   20.5288 H         1 UNK         0.0000 
     44 H44         1.4527   51.6249   17.8391 H         1 UNK         0.0000 
     45 H45         2.3121   50.0986   17.7196 H         1 UNK         0.0000 
     46 H46         0.6387   50.1913   17.2251 H         1 UNK         0.0000 
     47 H47         1.9536   52.0911   22.5281 H         1 UNK         0.0000 
     48 H48        -0.7907   50.7737   28.5746 H         1 UNK         0.0000 
     49 H49        -0.8917   51.6992   30.8533 H         1 UNK         0.0000 
     50 H50         1.5453   55.0111   29.6235 H         1 UNK         0.0000 
     51 H51         1.6788   54.0880   27.3600 H         1 UNK         0.0000 
     52 H52         1.9083   52.5678   19.9162 H         1 UNK         0.0000 
     53 H53         3.1792   54.1000   20.0433 H         1 UNK         0.0000 
     54 H54         7.2011   56.1034   18.4268 H         1 UNK         0.0000 
     55 H55         8.4178   56.4273   20.5147 H         1 UNK         0.0000 
     56 H56         7.6071   55.4859   22.5819 H         1 UNK         0.0000 
     57 H57         5.3606   52.7833   22.8587 H         1 UNK         0.0000 
     58 H58         7.4557   53.5172   23.8914 H         1 UNK         0.0000 
     59 H59         6.6443   54.9411   24.5505 H         1 UNK         0.0000 
     60 H60         6.1673   53.3367   25.0673 H         1 UNK         0.0000 
     61 H61         3.3217   54.4119   22.8214 H         1 UNK         0.0000 
     62 H62         3.7141   53.6370   24.3456 H         1 UNK         0.0000 
     63 H63         4.1685   55.2965   24.0823 H         1 UNK         0.0000 
     64 H64         5.5282   55.3285   17.2133 H         1 UNK         0.0000 
     65 H65         6.0139   52.8723   17.4877 H         1 UNK         0.0000 
     66 H66         4.3170   52.6248   17.8636 H         1 UNK         0.0000 
     67 H67         4.7770   53.2757   16.3082 H         1 UNK         0.0000 
     68 H68         3.5023   56.3105   18.3513 H         1 UNK         0.0000 
     69 H69         3.2264   55.4906   16.8223 H         1 UNK         0.0000 
     70 H70         2.7899   54.6931   18.3155 H         1 UNK         0.0000 
@<TRIPOS>BOND
     1    1    2 1    
     2    1   39 1    
     3    1   40 1    
     4    1   41 1    
     5    2    3 1    
     6    2   42 1    
     7    2   43 1    
     8    3    4 1    
     9    3    5 1    
    10    3    6 1    
    11    5   44 1    
    12    5   45 1    
    13    5   46 1    
    14    6    7 1    
    15    6    8 1    
    16    6   23 1    
    17    8    9 2    
    18    8   10 am   BACKBONE|DICT|INTERRES
    19   10   11 am   BACKBONE|DICT|INTERRES
    20   10   47 1    
    21   11   15 1    
    22   11   12 2    
    23   12   13 1    
    24   13   14 2    
    25   14   15 1    
    26   14   16 1    
    27   16   21 ar   
    28   16   17 ar   
    29   17   18 ar   
    30   17   48 1    
    31   18   19 ar   
    32   18   49 1    
    33   19   20 ar   
    34   19   22 1    
    35   20   21 ar   
    36   20   50 1    
    37   21   51 1    
    38   23   24 am   BACKBONE|DICT|INTERRES
    39   23   52 1    
    40   24   25 2    
    41   24   26 am   BACKBONE|DICT|INTERRES
    42   26   27 1    
    43   26   53 1    
    44   27   32 ar   
    45   27   28 ar   
    46   28   29 ar   
    47   28   36 1    
    48   29   30 ar   
    49   29   54 1    
    50   30   31 ar   
    51   30   55 1    
    52   31   32 ar   
    53   31   56 1    
    54   32   33 1    
    55   33   34 1    
    56   33   35 1    
    57   33   57 1    
    58   34   58 1    
    59   34   59 1    
    60   34   60 1    
    61   35   61 1    
    62   35   62 1    
    63   35   63 1    
    64   36   37 1    
    65   36   38 1    
    66   36   64 1    
    67   37   65 1    
    68   37   66 1    
    69   37   67 1    
    70   38   68 1    
    71   38   69 1    
    72   38   70 1    
@<TRIPOS>SUBSTRUCTURE
     1 UNK         1 GROUP             0       ****    0 ROOT    
