@<TRIPOS>MOLECULE
ZINC01518498_3553
37   39    1
SMALL
USER_CHARGES


@<TRIPOS>ATOM
      1 C1          1.7420   55.1370   29.4602 C.3       1 UNK         0.0000 
      2 C2          2.0377   53.6431   29.2055 C.3       1 UNK         0.0000 
      3 H3          1.3220   53.0811   29.8083 H         1 UNK         0.0000 
      4 C4          3.4348   53.1694   29.6616 C.3       1 UNK         0.0000 
      5 C5          4.5496   53.9497   28.9387 C.3       1 UNK         0.0000 
      6 C6          4.2479   53.9351   27.4474 C.2       1 UNK         0.0000 
      7 C7          3.0122   53.6080   26.8618 C.2       1 UNK         0.0000 
      8 C8          3.0242   53.7540   25.4464 C.2       1 UNK         0.0000 
      9 C9          4.3115   54.0973   24.9750 C.2       1 UNK         0.0000 
     10 S10         5.4289   54.3901   26.2845 S.3       1 UNK         0.0000 
     11 N11         4.6920   54.2043   23.6363 N.am      1 UNK         0.0000 
     12 C12         5.9039   54.4965   23.1216 C.2       1 UNK         0.0000 
     13 O13         6.9361   54.6437   23.7722 O.2       1 UNK         0.0000 
     14 C14         5.9137   54.6860   21.6919 C.2       1 UNK         0.0000 
     15 C15         6.9251   55.3000   20.9509 C.2       1 UNK         0.0000 
     16 C16         6.6785   55.3020   19.5748 C.2       1 UNK         0.0000 
     17 C17         5.4950   54.6598   19.2419 C.2       1 UNK         0.0000 
     18 S18         4.6811   54.0345   20.6386 S.3       1 UNK         0.0000 
     19 Cl19        4.8267   54.4344   17.6765 Cl        1 UNK         0.0000 
     20 C20         1.8769   53.4482   24.5995 C.2       1 UNK         0.0000 
     21 O21         1.0157   52.6345   24.9207 O.2       1 UNK         0.0000 
     22 N22         1.8030   54.0961   23.4340 N.am      1 UNK         0.0000 
     23 C23         1.8004   53.2278   27.7324 C.3       1 UNK         0.0000 
     24 H24         2.3670   55.7878   28.8472 H         1 UNK         0.0000 
     25 H25         1.9023   55.4091   30.5021 H         1 UNK         0.0000 
     26 H26         0.7063   55.3714   29.2209 H         1 UNK         0.0000 
     27 H27         3.5605   53.3092   30.7346 H         1 UNK         0.0000 
     28 H28         3.5534   52.1015   29.4684 H         1 UNK         0.0000 
     29 H29         4.5942   54.9743   29.3096 H         1 UNK         0.0000 
     30 H30         5.5193   53.4968   29.1447 H         1 UNK         0.0000 
     31 H31         3.9666   54.0001   22.9661 H         1 UNK         0.0000 
     32 H32         7.8130   55.7276   21.3971 H         1 UNK         0.0000 
     33 H33         7.3439   55.7415   18.8463 H         1 UNK         0.0000 
     34 H34         2.3855   54.8996   23.2541 H         1 UNK         0.0000 
     35 H35         1.0643   53.8583   22.7891 H         1 UNK         0.0000 
     36 H36         1.6158   52.1544   27.6695 H         1 UNK         0.0000 
     37 H37         0.8879   53.6962   27.3614 H         1 UNK         0.0000 
@<TRIPOS>BOND
     1    1    2 1    
     2    1   24 1    
     3    1   25 1    
     4    1   26 1    
     5    2    3 1    
     6    2   23 1    
     7    2    4 1    
     8    4    5 1    
     9    4   27 1    
    10    4   28 1    
    11    5    6 1    
    12    5   29 1    
    13    5   30 1    
    14    6   10 1    
    15    6    7 2    
    16    7    8 1    
    17    7   23 1    
    18    8    9 2    
    19    8   20 1    
    20    9   10 1    
    21    9   11 am   BACKBONE|DICT|INTERRES
    22   11   12 am   BACKBONE|DICT|INTERRES
    23   11   31 1    
    24   12   13 2    
    25   12   14 1    
    26   14   18 1    
    27   14   15 2    
    28   15   16 1    
    29   15   32 1    
    30   16   17 2    
    31   16   33 1    
    32   17   18 1    
    33   17   19 1    
    34   20   21 2    
    35   20   22 am   BACKBONE|DICT|INTERRES
    36   22   34 1    
    37   22   35 1    
    38   23   36 1    
    39   23   37 1    
@<TRIPOS>SUBSTRUCTURE
     1 UNK         1 GROUP             0       ****    0 ROOT    
