ZINC36050041_4635
                    3D
 Schrodinger Suite 2024-2.
 65 69  0  0  1  0            999 V2000
   -0.0176   53.0280   30.4853 C   0  0  0  0  0  0
   -0.6686   51.8197   29.7935 C   0  0  0  0  0  0
   -0.6770   51.9589   28.3810 O   0  0  0  0  0  0
    0.4041   51.6530   27.6308 C   0  0  0  0  0  0
    1.4955   51.2967   28.0817 O   0  0  0  0  0  0
    0.1468   51.8272   26.2020 C   0  0  0  0  0  0
    0.9178   52.5882   25.3484 C   0  0  0  0  0  0
    0.6030   52.6633   24.0118 N   0  0  0  0  0  0
   -0.1404   51.7606   23.4962 C   0  0  0  0  0  0
   -0.8144   50.7593   24.1848 N   0  0  0  0  0  0
   -0.9954   50.9215   25.6506 C   0  0  2  0  0  0
   -0.8709   49.9227   26.0766 H   0  0  0  0  0  0
   -2.4196   51.3787   25.9986 C   0  0  0  0  0  0
   -2.9479   52.5567   25.4564 C   0  0  0  0  0  0
   -4.2485   52.9552   25.7629 C   0  0  0  0  0  0
   -5.0326   52.1794   26.6169 C   0  0  0  0  0  0
   -4.5169   51.0031   27.1672 C   0  0  0  0  0  0
   -3.2136   50.6086   26.8561 C   0  0  0  0  0  0
   -5.3545   50.1647   28.1147 C   0  0  0  0  0  0
   -1.4618   49.8214   23.4000 C   0  0  0  0  0  0
   -1.4842   50.1949   22.1063 C   0  0  0  0  0  0
   -0.6083   51.6939   21.7875 S   0  0  0  0  0  0
   -2.1070   48.6226   23.9256 C   0  0  0  0  0  0
   -3.1941   47.9951   23.4406 C   0  0  0  0  0  0
   -3.9281   48.2620   22.4184 O   0  5  0  0  0  0
   -3.6622   46.8667   24.0737 N   0  0  0  0  0  0
   -5.0419   46.6084   24.4723 C   0  0  0  0  0  0
   -5.1858   45.1595   24.8981 C   0  0  0  0  0  0
   -4.7996   44.7392   26.1759 C   0  0  0  0  0  0
   -4.9158   43.3900   26.5175 C   0  0  0  0  0  0
   -5.4376   42.5019   25.5769 C   0  0  0  0  0  0
   -5.8276   42.8914   24.3366 N   0  0  0  0  0  0
   -5.7053   44.2057   24.0166 C   0  0  0  0  0  0
    2.1171   53.4428   25.7068 C   0  0  0  0  0  0
    3.1228   53.6790   24.7488 C   0  0  0  0  0  0
    4.3001   54.3470   25.0718 C   0  0  0  0  0  0
    4.4968   54.7987   26.3697 C   0  0  0  0  0  0
    3.5044   54.6287   27.3280 C   0  0  0  0  0  0
    2.3179   53.9867   26.9888 C   0  0  0  0  0  0
   -0.0975   52.9382   31.5692 H   0  0  0  0  0  0
    1.0412   53.1011   30.2374 H   0  0  0  0  0  0
   -0.4954   53.9609   30.1871 H   0  0  0  0  0  0
   -1.6956   51.6972   30.1277 H   0  0  0  0  0  0
   -0.1715   50.8971   30.0673 H   0  0  0  0  0  0
   -2.3493   53.1645   24.7939 H   0  0  0  0  0  0
   -4.6483   53.8632   25.3369 H   0  0  0  0  0  0
   -6.0393   52.4939   26.8495 H   0  0  0  0  0  0
   -2.8191   49.6967   27.2813 H   0  0  0  0  0  0
   -5.8678   49.3709   27.5711 H   0  0  0  0  0  0
   -4.7256   49.7076   28.8810 H   0  0  0  0  0  0
   -6.0924   50.7750   28.6369 H   0  0  0  0  0  0
   -1.9570   49.6557   21.2990 H   0  0  0  0  0  0
   -1.6490   48.1941   24.8059 H   0  0  0  0  0  0
   -3.0381   46.5408   24.7936 H   0  0  0  0  0  0
   -5.7389   46.8578   23.6712 H   0  0  0  0  0  0
   -5.2951   47.2594   25.3103 H   0  0  0  0  0  0
   -4.3934   45.4425   26.8899 H   0  0  0  0  0  0
   -4.6047   43.0389   27.4910 H   0  0  0  0  0  0
   -5.5450   41.4532   25.8115 H   0  0  0  0  0  0
   -6.0207   44.4862   23.0219 H   0  0  0  0  0  0
    3.0226   53.2982   23.7427 H   0  0  0  0  0  0
    5.0659   54.4891   24.3236 H   0  0  0  0  0  0
    5.4182   55.2969   26.6324 H   0  0  0  0  0  0
    3.6476   55.0079   28.3290 H   0  0  0  0  0  0
    1.5653   53.9167   27.7563 H   0  0  0  0  0  0
  1  2  1  0  0  0
  1 40  1  0  0  0
  1 41  1  0  0  0
  1 42  1  0  0  0
  2  3  1  0  0  0
  2 43  1  0  0  0
  2 44  1  0  0  0
  3  4  1  0  0  0
  4  5  2  0  0  0
  4  6  1  0  0  0
  6 11  1  0  0  0
  6  7  2  0  0  0
  7  8  1  0  0  0
  7 34  1  0  0  0
  8  9  2  0  0  0
  9 22  1  0  0  0
  9 10  1  0  0  0
 10 11  1  0  0  0
 10 20  1  0  0  0
 11 12  1  0  0  0
 11 13  1  0  0  0
 13 18  2  0  0  0
 13 14  1  0  0  0
 14 15  2  0  0  0
 14 45  1  0  0  0
 15 16  1  0  0  0
 15 46  1  0  0  0
 16 17  2  0  0  0
 16 47  1  0  0  0
 17 18  1  0  0  0
 17 19  1  0  0  0
 18 48  1  0  0  0
 19 49  1  0  0  0
 19 50  1  0  0  0
 19 51  1  0  0  0
 20 21  2  0  0  0
 20 23  1  0  0  0
 21 22  1  0  0  0
 21 52  1  0  0  0
 23 24  2  0  0  0
 23 53  1  0  0  0
 24 25  1  0  0  0
 24 26  1  0  0  0
 26 27  1  0  0  0
 26 54  1  0  0  0
 27 28  1  0  0  0
 27 55  1  0  0  0
 27 56  1  0  0  0
 28 33  2  0  0  0
 28 29  1  0  0  0
 29 30  2  0  0  0
 29 57  1  0  0  0
 30 31  1  0  0  0
 30 58  1  0  0  0
 31 32  2  0  0  0
 31 59  1  0  0  0
 32 33  1  0  0  0
 33 60  1  0  0  0
 34 39  2  0  0  0
 34 35  1  0  0  0
 35 36  2  0  0  0
 35 61  1  0  0  0
 36 37  1  0  0  0
 36 62  1  0  0  0
 37 38  2  0  0  0
 37 63  1  0  0  0
 38 39  1  0  0  0
 38 64  1  0  0  0
 39 65  1  0  0  0
M  CHG  1  25  -1
M  END
> <i_i_glide_confnum>
141

> <i_i_glide_lignum>
4636

> <i_i_glide_posenum>
258

> <i_i_glide_rotatable_bonds>
9

> <i_m_Source_File_Index>
3576

> <b_m_subgroup_collapsed>
0

> <r_i_docking_score>
-3.70593

> <r_i_glide_ecoul>
-3.77425

> <r_i_glide_eff_state_penalty>
0

> <r_i_glide_einternal>
7.04254

> <r_i_glide_emodel>
-49.0677

> <r_i_glide_energy>
-42.6329

> <r_i_glide_erotb>
0.525192

> <r_i_glide_esite>
-0.025396

> <r_i_glide_evdw>
-38.8586

> <r_i_glide_gscore>
-3.70593

> <r_i_glide_hbond>
0

> <r_i_glide_ligand_efficiency>
-0.0975244

> <r_i_glide_ligand_efficiency_ln>
-0.799107

> <r_i_glide_ligand_efficiency_sa>
-0.327875

> <r_i_glide_lipo>
-1.57398

> <r_i_glide_metal>
0

> <r_i_glide_rewards>
-0.12268

> <s_i_glide_gridfile>
wee1_glide-grid

> <s_m_Source_File>
wee1_decoys_glide_SP.sdf

> <s_m_Source_Path>
/Users/zhangxujun/Desktop

> <s_m_entry_id>
3851

> <s_m_entry_name>
wee1_decoys_glide_SP.3576

> <s_m_subgroup_title>
wee1_decoys_glide_SP

> <s_m_subgroupid>
wee1_decoys_glide_SP


$$$$
