@<TRIPOS>MOLECULE
ZINC10129856_154
73   76    1
SMALL
USER_CHARGES


@<TRIPOS>ATOM
      1 C1          7.0706   55.3932   24.3017 C.3       1 UNK         0.0000 
      2 C2          5.9367   54.9152   25.1805 C.ar      1 UNK         0.0000 
      3 C3          4.7448   54.4967   24.5944 C.ar      1 UNK         0.0000 
      4 C4          3.6686   54.0906   25.3827 C.ar      1 UNK         0.0000 
      5 C5          3.7914   54.1006   26.7851 C.ar      1 UNK         0.0000 
      6 C6          5.0121   54.4847   27.3807 C.ar      1 UNK         0.0000 
      7 C7          6.0708   54.8967   26.5682 C.ar      1 UNK         0.0000 
      8 C8          5.2547   54.4078   28.8818 C.3       1 UNK         0.0000 
      9 N9          2.6958   53.6552   27.5382 N.am      1 UNK         0.0000 
     10 C10         1.9967   54.3780   28.4489 C.2       1 UNK         0.0000 
     11 O11         2.3045   55.5180   28.8083 O.2       1 UNK         0.0000 
     12 C12         0.7894   53.6963   29.0135 C.2       1 UNK         0.0000 
     13 O13         0.2867   54.0694   30.0756 O.2       1 UNK         0.0000 
     14 N14         0.2802   52.6803   28.2772 N.am      1 UNK         0.0000 
     15 C15        -0.8626   51.8433   28.6411 C.3       1 UNK         0.0000 
     16 C16        -1.8465   51.5825   27.4586 C.3       1 UNK         0.0000 
     17 H17        -2.4574   52.4709   27.2825 H         1 UNK         0.0000 
     18 C18        -1.1138   51.2625   26.1464 C.ar      1 UNK         0.0000 
     19 C19        -1.2548   52.1094   25.0465 C.ar      1 UNK         0.0000 
     20 C20        -0.5624   51.8507   23.8677 C.ar      1 UNK         0.0000 
     21 C21         0.2882   50.7395   23.7526 C.ar      1 UNK         0.0000 
     22 C22         0.4014   49.8842   24.8620 C.ar      1 UNK         0.0000 
     23 C23        -0.2831   50.1439   26.0462 C.ar      1 UNK         0.0000 
     24 N24         1.0130   50.4954   22.5516 N.pl3     1 UNK         0.0000 
     25 C25         1.0860   51.5177   21.5045 C.3       1 UNK         0.0000 
     26 C26         2.0450   49.4582   22.5162 C.3       1 UNK         0.0000 
     27 C27        -3.9856   50.3291   26.7622 C.3       1 UNK         0.0000 
     28 C28        -4.7316   49.0170   27.0572 C.3       1 UNK         0.0000 
     29 C29        -5.2555   48.9346   28.4862 C.ar      1 UNK         0.0000 
     30 C30        -6.3193   48.0795   28.8001 C.ar      1 UNK         0.0000 
     31 C31        -6.7748   47.9429   30.1093 C.ar      1 UNK         0.0000 
     32 C32        -6.1672   48.6664   31.1292 C.ar      1 UNK         0.0000 
     33 C33        -5.1190   49.5317   30.8298 C.ar      1 UNK         0.0000 
     34 C34        -4.6551   49.6873   29.5173 C.ar      1 UNK         0.0000 
     35 C35        -3.5311   50.6848   29.2459 C.3       1 UNK         0.0000 
     36 C36         2.3851   53.6541   24.6842 C.3       1 UNK         0.0000 
     37 H37         6.7044   56.0942   23.5520 H         1 UNK         0.0000 
     38 H38         7.5044   54.5455   23.7722 H         1 UNK         0.0000 
     39 H39         7.8366   55.9137   24.8746 H         1 UNK         0.0000 
     40 H40         4.6528   54.4988   23.5176 H         1 UNK         0.0000 
     41 H41         7.0018   55.1982   27.0259 H         1 UNK         0.0000 
     42 H42         4.7675   53.5311   29.3081 H         1 UNK         0.0000 
     43 H43         6.3168   54.3086   29.1067 H         1 UNK         0.0000 
     44 H44         4.8777   55.2967   29.3857 H         1 UNK         0.0000 
     45 H45         2.3786   52.7286   27.3073 H         1 UNK         0.0000 
     46 H46         0.7040   52.4411   27.3945 H         1 UNK         0.0000 
     47 H47        -0.4541   50.8967   28.9957 H         1 UNK         0.0000 
     48 H48        -1.3851   52.2724   29.4955 H         1 UNK         0.0000 
     49 H49        -1.8915   52.9802   25.1009 H         1 UNK         0.0000 
     50 H50        -0.6950   52.5406   23.0504 H         1 UNK         0.0000 
     51 H51         1.0346   49.0101   24.8375 H         1 UNK         0.0000 
     52 H52        -0.1603   49.4687   26.8817 H         1 UNK         0.0000 
     53 H53         0.0925   51.8208   21.1737 H         1 UNK         0.0000 
     54 H54         1.5962   52.4074   21.8756 H         1 UNK         0.0000 
     55 H55         1.6304   51.1680   20.6260 H         1 UNK         0.0000 
     56 H56         1.6322   48.4967   22.8159 H         1 UNK         0.0000 
     57 H57         2.4829   49.3374   21.5240 H         1 UNK         0.0000 
     58 H58         2.8505   49.6972   23.2116 H         1 UNK         0.0000 
     59 H59        -4.6210   51.2167   26.7677 H         1 UNK         0.0000 
     60 H60        -3.4912   50.2378   25.7944 H         1 UNK         0.0000 
     61 H61        -5.5441   48.8825   26.3421 H         1 UNK         0.0000 
     62 H62        -4.0474   48.1804   26.9001 H         1 UNK         0.0000 
     63 H63        -6.7895   47.4988   28.0199 H         1 UNK         0.0000 
     64 H64        -7.5923   47.2729   30.3327 H         1 UNK         0.0000 
     65 H65        -6.5073   48.5614   32.1492 H         1 UNK         0.0000 
     66 H66        -4.6572   50.0913   31.6325 H         1 UNK         0.0000 
     67 H67        -2.7317   50.5479   29.9764 H         1 UNK         0.0000 
     68 H68        -3.9181   51.6977   29.2817 H         1 UNK         0.0000 
     69 H69         2.2845   52.5699   24.7331 H         1 UNK         0.0000 
     70 H70         1.5102   54.0967   25.1612 H         1 UNK         0.0000 
     71 H71         2.3615   53.9653   23.6389 H         1 UNK         0.0000 
     72 N72        -2.8956   50.4967   27.8431 N.4       1 UNK         0.0000 
     73 H73        -2.3767   49.6089   27.8911 H         1 UNK         0.0000 
@<TRIPOS>BOND
     1    1    2 1    
     2    1   37 1    
     3    1   38 1    
     4    1   39 1    
     5    2    7 ar   
     6    2    3 ar   
     7    3    4 ar   
     8    3   40 1    
     9    4    5 ar   
    10    4   36 1    
    11    5    6 ar   
    12    5    9 1    
    13    6    7 ar   
    14    6    8 1    
    15    7   41 1    
    16    8   42 1    
    17    8   43 1    
    18    8   44 1    
    19    9   10 am   BACKBONE|DICT|INTERRES
    20    9   45 1    
    21   10   11 2    
    22   10   12 1    
    23   12   13 2    
    24   12   14 am   BACKBONE|DICT|INTERRES
    25   14   15 1    
    26   14   46 1    
    27   15   16 1    
    28   15   47 1    
    29   15   48 1    
    30   16   17 1    
    31   16   18 1    
    32   16   72 1    
    33   18   23 ar   
    34   18   19 ar   
    35   19   20 ar   
    36   19   49 1    
    37   20   21 ar   
    38   20   50 1    
    39   21   22 ar   
    40   21   24 1    
    41   22   23 ar   
    42   22   51 1    
    43   23   52 1    
    44   24   25 1    
    45   24   26 1    
    46   25   53 1    
    47   25   54 1    
    48   25   55 1    
    49   26   56 1    
    50   26   57 1    
    51   26   58 1    
    52   27   28 1    
    53   27   59 1    
    54   27   60 1    
    55   27   72 1    
    56   28   29 1    
    57   28   61 1    
    58   28   62 1    
    59   29   34 ar   
    60   29   30 ar   
    61   30   31 ar   
    62   30   63 1    
    63   31   32 ar   
    64   31   64 1    
    65   32   33 ar   
    66   32   65 1    
    67   33   34 ar   
    68   33   66 1    
    69   34   35 1    
    70   35   67 1    
    71   35   68 1    
    72   35   72 1    
    73   36   69 1    
    74   36   70 1    
    75   36   71 1    
    76   72   73 1    
@<TRIPOS>SUBSTRUCTURE
     1 UNK         1 GROUP             0       ****    0 ROOT    
