@<TRIPOS>MOLECULE
ZINC63869538_199
49   52    1
SMALL
USER_CHARGES


@<TRIPOS>ATOM
      1 C1          2.6248   55.1703   28.8246 C.2       1 UNK         0.0000 
      2 C2          1.8517   55.6513   29.9599 C.2       1 UNK         0.0000 
      3 C3          0.8252   54.9297   30.4817 C.2       1 UNK         0.0000 
      4 C4          0.4381   53.7219   29.8935 C.2       1 UNK         0.0000 
      5 N5         -0.4955   52.8829   30.2547 N.pl3     1 UNK         0.0000 
      6 C6         -0.6083   51.8133   29.2610 C.3       1 UNK         0.0000 
      7 C7          0.5816   52.0788   28.3655 C.2       1 UNK         0.0000 
      8 C8          1.1066   53.2516   28.7598 C.2       1 UNK         0.0000 
      9 C9          2.2546   54.0092   28.2495 C.2       1 UNK         0.0000 
     10 C10         1.0021   51.1358   27.2475 C.3       1 UNK         0.0000 
     11 C11        -0.1373   50.4619   26.4364 C.3       1 UNK         0.0000 
     12 H12        -0.9537   50.0984   27.0629 H         1 UNK         0.0000 
     13 C13        -0.6566   51.3981   25.3666 C.2       1 UNK         0.0000 
     14 O14        -1.1777   52.4964   25.5557 O.2       1 UNK         0.0000 
     15 N15        -0.3747   50.7946   24.1928 N.am      1 UNK         0.0000 
     16 C16         0.2293   49.5863   24.3160 C.2       1 UNK         0.0000 
     17 O17         0.7029   48.8969   23.4175 O.2       1 UNK         0.0000 
     18 N18         0.3486   49.3769   25.6307 N.am      1 UNK         0.0000 
     19 C19        -0.5835   51.4386   22.8777 C.3       1 UNK         0.0000 
     20 C20         0.6464   52.2250   22.3604 C.2       1 UNK         0.0000 
     21 O21         0.6509   52.4964   21.1638 O.2       1 UNK         0.0000 
     22 N22         1.6178   52.5967   23.2288 N.am      1 UNK         0.0000 
     23 C23         2.8449   53.2529   22.9815 C.ar      1 UNK         0.0000 
     24 C24         3.4140   53.4242   21.7106 C.ar      1 UNK         0.0000 
     25 C25         4.6577   54.0363   21.5735 C.ar      1 UNK         0.0000 
     26 C26         5.3645   54.4742   22.6932 C.ar      1 UNK         0.0000 
     27 C27         4.8207   54.3001   23.9789 C.ar      1 UNK         0.0000 
     28 C28         3.5552   53.7007   24.1014 C.ar      1 UNK         0.0000 
     29 C29         5.5896   54.7519   25.2289 C.3       1 UNK         0.0000 
     30 F30         4.8940   54.5671   26.3514 F         1 UNK         0.0000 
     31 F31         5.9048   56.0446   25.1562 F         1 UNK         0.0000 
     32 F32         6.7223   54.0605   25.3337 F         1 UNK         0.0000 
     33 Cl33        6.9111   55.2103   22.4416 Cl        1 UNK         0.0000 
     34 H34         3.5007   55.6962   28.4808 H         1 UNK         0.0000 
     35 H35         2.1148   56.5985   30.4142 H         1 UNK         0.0000 
     36 H36         0.3050   55.3054   31.3483 H         1 UNK         0.0000 
     37 H37        -1.5704   51.8896   28.7559 H         1 UNK         0.0000 
     38 H38        -0.5747   50.8967   29.8184 H         1 UNK         0.0000 
     39 H39         2.8502   53.6402   27.4274 H         1 UNK         0.0000 
     40 H40         1.6339   50.3661   27.6850 H         1 UNK         0.0000 
     41 H41         1.6665   51.6972   26.5889 H         1 UNK         0.0000 
     42 H42         0.4719   48.4518   26.0272 H         1 UNK         0.0000 
     43 H43        -1.4430   52.1104   22.8998 H         1 UNK         0.0000 
     44 H44        -0.8140   50.6612   22.1467 H         1 UNK         0.0000 
     45 H45         1.4336   52.4001   24.1985 H         1 UNK         0.0000 
     46 H46         2.9208   53.0828   20.8134 H         1 UNK         0.0000 
     47 H47         5.0786   54.1593   20.5854 H         1 UNK         0.0000 
     48 H48         3.1269   53.5563   25.0825 H         1 UNK         0.0000 
     49 H49        -1.0759   52.9482   31.0907 H         1 UNK         0.0000 
@<TRIPOS>BOND
     1    1    9 2    
     2    1    2 1    
     3    1   34 1    
     4    2    3 2    
     5    2   35 1    
     6    3    4 1    
     7    3   36 1    
     8    4    8 1    
     9    4    5 2    
    10    5    6 1    
    11    5   49 1    
    12    6    7 1    
    13    6   37 1    
    14    6   38 1    
    15    7    8 2    
    16    7   10 1    
    17    8    9 1    
    18    9   39 1    
    19   10   11 1    
    20   10   40 1    
    21   10   41 1    
    22   11   12 1    
    23   11   18 1    
    24   11   13 1    
    25   13   14 2    
    26   13   15 am   BACKBONE|DICT|INTERRES
    27   15   16 am   BACKBONE|DICT|INTERRES
    28   15   19 1    
    29   16   17 2    
    30   16   18 am   BACKBONE|DICT|INTERRES
    31   18   42 1    
    32   19   20 1    
    33   19   43 1    
    34   19   44 1    
    35   20   21 2    
    36   20   22 am   BACKBONE|DICT|INTERRES
    37   22   23 1    
    38   22   45 1    
    39   23   28 ar   
    40   23   24 ar   
    41   24   25 ar   
    42   24   46 1    
    43   25   26 ar   
    44   25   47 1    
    45   26   27 ar   
    46   26   33 1    
    47   27   28 ar   
    48   27   29 1    
    49   28   48 1    
    50   29   30 1    
    51   29   31 1    
    52   29   32 1    
@<TRIPOS>SUBSTRUCTURE
     1 UNK         1 GROUP             0       ****    0 ROOT    
