ZINC01025752_4604
                    3D
 Schrodinger Suite 2024-2.
 53 56  0  0  1  0            999 V2000
    0.2958   48.4731   24.7361 C   0  0  0  0  0  0
   -0.7952   49.4264   24.2181 C   0  0  0  0  0  0
   -0.8992   50.7051   25.0944 N   0  3  0  0  0  0
   -1.5036   50.3310   26.4800 C   0  0  0  0  0  0
   -2.6322   51.3036   26.8573 C   0  0  0  0  0  0
    0.3079   51.6286   25.1031 C   0  0  0  0  0  0
    0.5109   52.4963   26.1767 C   0  0  0  0  0  0
    1.6068   53.3524   26.1696 C   0  0  0  0  0  0
    2.5639   53.3292   25.1520 C   0  0  0  0  0  0
    2.3040   52.4979   24.0505 C   0  0  0  0  0  0
    1.1881   51.6612   24.0145 C   0  0  0  0  0  0
    3.8234   54.2418   25.2610 C   0  0  1  0  0  0
    3.3701   55.2320   25.3132 H   0  0  0  0  0  0
    4.6823   54.1187   26.5517 C   0  0  0  0  0  0
    4.4567   53.9820   27.9344 C   0  0  0  0  0  0
    5.7056   53.8933   28.4892 N   0  0  0  0  0  0
    6.7067   53.9706   27.6259 N   0  0  0  0  0  0
    5.8762   53.8086   29.4802 H   0  0  0  0  0  0
    6.0947   54.1006   26.4818 C   0  0  0  0  0  0
    6.8539   54.2363   25.3523 O   0  0  0  0  0  0
    6.1609   54.3173   24.1947 C   0  0  0  0  0  0
    4.8081   54.3094   24.0572 C   0  0  0  0  0  0
    4.2836   54.4370   22.7387 C   0  0  0  0  0  0
    3.9076   54.4963   21.6503 N   0  0  0  0  0  0
    7.0982   54.4425   23.1991 N   0  0  0  0  0  0
    3.2614   53.9339   28.8131 C   0  0  0  0  0  0
    2.7734   52.6990   29.2492 C   0  0  0  0  0  0
    1.6284   52.6473   30.0413 C   0  0  0  0  0  0
    0.9864   53.8290   30.4071 C   0  0  0  0  0  0
    1.4835   55.0645   29.9948 C   0  0  0  0  0  0
    2.6262   55.1179   29.2002 C   0  0  0  0  0  0
    0.3894   47.6067   24.0846 H   0  0  0  0  0  0
    0.0641   48.0993   25.7326 H   0  0  0  0  0  0
    1.2717   48.9538   24.7860 H   0  0  0  0  0  0
   -0.6234   49.7591   23.1950 H   0  0  0  0  0  0
   -1.7841   48.9639   24.2329 H   0  0  0  0  0  0
   -1.9111   49.3186   26.4297 H   0  0  0  0  0  0
   -0.6814   50.2978   27.1979 H   0  0  0  0  0  0
   -3.0035   51.0757   27.8578 H   0  0  0  0  0  0
   -2.3198   52.3474   26.8540 H   0  0  0  0  0  0
   -3.4757   51.2116   26.1719 H   0  0  0  0  0  0
   -0.1603   52.5483   27.0183 H   0  0  0  0  0  0
    1.6890   54.0650   26.9666 H   0  0  0  0  0  0
    2.9783   52.4534   23.2119 H   0  0  0  0  0  0
    1.0598   51.0384   23.1440 H   0  0  0  0  0  0
    6.8070   54.5349   22.2376 H   0  0  0  0  0  0
    8.0485   54.7285   23.4217 H   0  0  0  0  0  0
    3.2622   51.7829   28.9488 H   0  0  0  0  0  0
    1.2305   51.6970   30.3653 H   0  0  0  0  0  0
    0.1004   53.7842   31.0252 H   0  0  0  0  0  0
    0.9864   55.9774   30.2917 H   0  0  0  0  0  0
    3.0058   56.0774   28.8802 H   0  0  0  0  0  0
   -1.6525   51.2145   24.6525 H   0  0  0  0  0  0
  1  2  1  0  0  0
  1 32  1  0  0  0
  1 33  1  0  0  0
  1 34  1  0  0  0
  2  3  1  0  0  0
  2 35  1  0  0  0
  2 36  1  0  0  0
  3  4  1  0  0  0
  3  6  1  0  0  0
  3 53  1  0  0  0
  4  5  1  0  0  0
  4 37  1  0  0  0
  4 38  1  0  0  0
  5 39  1  0  0  0
  5 40  1  0  0  0
  5 41  1  0  0  0
  6 11  2  0  0  0
  6  7  1  0  0  0
  7  8  2  0  0  0
  7 42  1  0  0  0
  8  9  1  0  0  0
  8 43  1  0  0  0
  9 10  2  0  0  0
  9 12  1  0  0  0
 10 11  1  0  0  0
 10 44  1  0  0  0
 11 45  1  0  0  0
 12 13  1  0  0  0
 12 22  1  0  0  0
 12 14  1  0  0  0
 14 19  1  0  0  0
 14 15  2  0  0  0
 15 26  1  0  0  0
 15 16  1  0  0  0
 16 18  1  0  0  0
 16 17  1  0  0  0
 17 19  2  0  0  0
 19 20  1  0  0  0
 20 21  1  0  0  0
 21 22  2  0  0  0
 21 25  1  0  0  0
 22 23  1  0  0  0
 23 24  3  0  0  0
 25 46  1  0  0  0
 25 47  1  0  0  0
 26 31  2  0  0  0
 26 27  1  0  0  0
 27 28  2  0  0  0
 27 48  1  0  0  0
 28 29  1  0  0  0
 28 49  1  0  0  0
 29 30  2  0  0  0
 29 50  1  0  0  0
 30 31  1  0  0  0
 30 51  1  0  0  0
 31 52  1  0  0  0
M  CHG  1   3   1
M  END
> <i_i_glide_confnum>
1

> <i_i_glide_lignum>
4605

> <i_i_glide_posenum>
9

> <i_i_glide_rotatable_bonds>
6

> <i_m_Source_File_Index>
1024

> <b_m_subgroup_collapsed>
0

> <r_i_docking_score>
-7.07435

> <r_i_glide_ecoul>
-3.92476

> <r_i_glide_eff_state_penalty>
0

> <r_i_glide_einternal>
14.3413

> <r_i_glide_emodel>
-59.7924

> <r_i_glide_energy>
-45.4644

> <r_i_glide_erotb>
0.390946

> <r_i_glide_esite>
-0.0180639

> <r_i_glide_evdw>
-41.5396

> <r_i_glide_gscore>
-7.07435

> <r_i_glide_hbond>
-0.32

> <r_i_glide_ligand_efficiency>
-0.243943

> <r_i_glide_ligand_efficiency_ln>
-1.61985

> <r_i_glide_ligand_efficiency_sa>
-0.74947

> <r_i_glide_lipo>
-3.43913

> <r_i_glide_metal>
0

> <r_i_glide_rewards>
-1.02241

> <s_i_glide_gridfile>
wee1_glide-grid

> <s_m_Source_File>
wee1_decoys_glide_SP.sdf

> <s_m_Source_Path>
/Users/zhangxujun/Desktop

> <s_m_entry_id>
1299

> <s_m_entry_name>
wee1_decoys_glide_SP.1024

> <s_m_subgroup_title>
wee1_decoys_glide_SP

> <s_m_subgroupid>
wee1_decoys_glide_SP


$$$$
