@<TRIPOS>MOLECULE
ZINC35724680_3542
58   60    1
SMALL
USER_CHARGES


@<TRIPOS>ATOM
      1 C1         10.8310   49.6966   17.0447 C.3       1 UNK         0.0000 
      2 C2          9.8643   50.8845   16.9037 C.3       1 UNK         0.0000 
      3 C3          9.1421   51.0408   15.5580 C.ar      1 UNK         0.0000 
      4 C4          9.4791   50.2191   14.4697 C.ar      1 UNK         0.0000 
      5 C5          8.8279   50.3494   13.2472 C.ar      1 UNK         0.0000 
      6 C6          7.8270   51.3024   13.0929 C.ar      1 UNK         0.0000 
      7 C7          7.4806   52.1321   14.1583 C.ar      1 UNK         0.0000 
      8 C8          8.1298   52.0142   15.4022 C.ar      1 UNK         0.0000 
      9 N9          7.8379   52.8452   16.5113 N.am      1 UNK         0.0000 
     10 C10         6.8320   53.7212   16.6983 C.2       1 UNK         0.0000 
     11 O11         5.8880   53.9074   15.9315 O.2       1 UNK         0.0000 
     12 N12         6.9984   54.4194   17.8336 N.am      1 UNK         0.0000 
     13 C13         6.2263   55.6159   18.2027 C.3       1 UNK         0.0000 
     14 H14         5.1789   55.3948   17.9889 H         1 UNK         0.0000 
     15 C15         6.6381   56.8639   17.3300 C.3       1 UNK         0.0000 
     16 H16         6.4777   56.5655   16.2943 H         1 UNK         0.0000 
     17 C17         8.1367   57.2387   17.4076 C.3       1 UNK         0.0000 
     18 C18         5.7559   58.1239   17.5081 C.3       1 UNK         0.0000 
     19 C19         4.2579   57.8763   17.2814 C.3       1 UNK         0.0000 
     20 C20         6.3038   55.8585   19.7350 C.2       1 UNK         0.0000 
     21 O21         6.8008   56.8965   20.1833 O.2       1 UNK         0.0000 
     22 N22         5.8123   54.8634   20.5107 N.am      1 UNK         0.0000 
     23 C23         5.9061   54.8234   21.8962 C.2       1 UNK         0.0000 
     24 N24         6.8994   55.2969   22.6120 N.2       1 UNK         0.0000 
     25 N25         6.7041   55.1212   23.9740 N.2       1 UNK         0.0000 
     26 C26         5.5745   54.5227   24.2675 C.2       1 UNK         0.0000 
     27 S27         4.6394   54.0966   22.8463 S.3       1 UNK         0.0000 
     28 C28         5.1148   54.2767   25.6754 C.ar      1 UNK         0.0000 
     29 C29         6.0483   54.2697   26.7210 C.ar      1 UNK         0.0000 
     30 C30         5.6368   54.0951   28.0380 C.ar      1 UNK         0.0000 
     31 C31         4.2846   53.9207   28.3200 C.ar      1 UNK         0.0000 
     32 C32         3.3460   53.9169   27.2911 C.ar      1 UNK         0.0000 
     33 C33         3.7603   54.0952   25.9729 C.ar      1 UNK         0.0000 
     34 Cl34        3.7722   53.7170   29.9560 Cl        1 UNK         0.0000 
     35 H35        11.2574   49.6573   18.0475 H         1 UNK         0.0000 
     36 H36        10.3047   48.7597   16.8779 H         1 UNK         0.0000 
     37 H37        11.6603   49.7598   16.3394 H         1 UNK         0.0000 
     38 H38        10.4040   51.8083   17.1158 H         1 UNK         0.0000 
     39 H39         9.1087   50.7799   17.6817 H         1 UNK         0.0000 
     40 H40        10.2501   49.4672   14.5474 H         1 UNK         0.0000 
     41 H41         9.1107   49.7147   12.4204 H         1 UNK         0.0000 
     42 H42         7.3237   51.4075   12.1411 H         1 UNK         0.0000 
     43 H43         6.7106   52.8684   13.9830 H         1 UNK         0.0000 
     44 H44         8.4782   52.7314   17.2810 H         1 UNK         0.0000 
     45 H45         7.7531   54.1800   18.4552 H         1 UNK         0.0000 
     46 H46         8.4186   57.6353   18.3825 H         1 UNK         0.0000 
     47 H47         8.7753   56.3770   17.2024 H         1 UNK         0.0000 
     48 H48         8.3801   58.0025   16.6693 H         1 UNK         0.0000 
     49 H49         5.9041   58.5751   18.4899 H         1 UNK         0.0000 
     50 H50         6.0753   58.8881   16.7971 H         1 UNK         0.0000 
     51 H51         3.7115   58.8201   17.2746 H         1 UNK         0.0000 
     52 H52         4.0792   57.3712   16.3299 H         1 UNK         0.0000 
     53 H53         3.8366   57.2657   18.0813 H         1 UNK         0.0000 
     54 H54         5.3343   54.0978   20.0577 H         1 UNK         0.0000 
     55 H55         7.1006   54.4049   26.5210 H         1 UNK         0.0000 
     56 H56         6.3648   54.1029   28.8382 H         1 UNK         0.0000 
     57 H57         2.2964   53.7832   27.5135 H         1 UNK         0.0000 
     58 H58         3.0175   54.1044   25.1888 H         1 UNK         0.0000 
@<TRIPOS>BOND
     1    1    2 1    
     2    1   35 1    
     3    1   36 1    
     4    1   37 1    
     5    2    3 1    
     6    2   38 1    
     7    2   39 1    
     8    3    8 ar   
     9    3    4 ar   
    10    4    5 ar   
    11    4   40 1    
    12    5    6 ar   
    13    5   41 1    
    14    6    7 ar   
    15    6   42 1    
    16    7    8 ar   
    17    7   43 1    
    18    8    9 1    
    19    9   10 am   BACKBONE|DICT|INTERRES
    20    9   44 1    
    21   10   11 2    
    22   10   12 am   BACKBONE|DICT|INTERRES
    23   12   13 1    
    24   12   45 1    
    25   13   14 1    
    26   13   15 1    
    27   13   20 1    
    28   15   16 1    
    29   15   17 1    
    30   15   18 1    
    31   17   46 1    
    32   17   47 1    
    33   17   48 1    
    34   18   19 1    
    35   18   49 1    
    36   18   50 1    
    37   19   51 1    
    38   19   52 1    
    39   19   53 1    
    40   20   21 2    
    41   20   22 am   BACKBONE|DICT|INTERRES
    42   22   23 am   BACKBONE|DICT|INTERRES
    43   22   54 1    
    44   23   27 1    
    45   23   24 2    
    46   24   25 1    
    47   25   26 2    
    48   26   27 1    
    49   26   28 1    
    50   28   33 ar   
    51   28   29 ar   
    52   29   30 ar   
    53   29   55 1    
    54   30   31 ar   
    55   30   56 1    
    56   31   32 ar   
    57   31   34 1    
    58   32   33 ar   
    59   32   57 1    
    60   33   58 1    
@<TRIPOS>SUBSTRUCTURE
     1 UNK         1 GROUP             0       ****    0 ROOT    
