@<TRIPOS>MOLECULE
ZINC39403940_891
49   52    1
SMALL
USER_CHARGES


@<TRIPOS>ATOM
      1 C1          3.8504   58.4633   16.1648 C.ar      1 UNK         0.0000 
      2 C2          3.6796   57.1043   16.4410 C.ar      1 UNK         0.0000 
      3 C3          4.6538   56.1639   16.0592 C.ar      1 UNK         0.0000 
      4 C4          5.8008   56.6244   15.3973 C.ar      1 UNK         0.0000 
      5 C5          5.9697   57.9803   15.1150 C.ar      1 UNK         0.0000 
      6 C6          4.9932   58.8969   15.4955 C.ar      1 UNK         0.0000 
      7 Br7         7.5347   58.5757   14.2120 Br        1 UNK         0.0000 
      8 C8          4.5124   54.7286   16.3342 C.2       1 UNK         0.0000 
      9 N9          3.4688   54.2114   16.8417 N.2       1 UNK         0.0000 
     10 N10         3.5450   52.8666   17.0562 N.pl3     1 UNK         0.0000 
     11 C11         2.5463   52.1851   17.6244 C.cat     1 UNK         0.0000 
     12 N12         2.7044   50.9984   18.1710 N.pl3     1 UNK         0.0000 
     13 C13         1.4180   50.6843   18.7318 C.3       1 UNK         0.0000 
     14 H14         1.0441   49.7479   18.3155 H         1 UNK         0.0000 
     15 N15         0.5869   51.7766   18.3235 N.2       1 UNK         0.0000 
     16 N16         1.2917   52.6218   17.6903 N.2       1 UNK         0.0000 
     17 S17         1.5986   50.5460   20.5360 S.3       1 UNK         0.0000 
     18 C18         2.2679   52.1929   20.9752 C.3       1 UNK         0.0000 
     19 C19         2.3426   52.4842   22.4768 C.2       1 UNK         0.0000 
     20 O20         2.2326   51.5682   23.2849 O.2       1 UNK         0.0000 
     21 N21         2.5301   53.7724   22.8252 N.am      1 UNK         0.0000 
     22 C22         2.6067   54.3503   24.1819 C.3       1 UNK         0.0000 
     23 H23         2.2149   55.3583   24.0819 H         1 UNK         0.0000 
     24 C24         4.0267   54.4967   24.7939 C.3       1 UNK         0.0000 
     25 H25         4.2274   55.5482   24.9781 H         1 UNK         0.0000 
     26 C26         4.0396   53.8681   26.1694 C.2       1 UNK         0.0000 
     27 C27         2.8381   53.4645   26.6101 C.2       1 UNK         0.0000 
     28 S28         1.5046   53.6897   25.4658 S.3       1 UNK         0.0000 
     29 C29         2.8831   52.8724   27.9985 C.3       1 UNK         0.0000 
     30 C30         4.3477   53.0467   28.4015 C.3       1 UNK         0.0000 
     31 C31         5.1163   53.6101   27.2019 C.3       1 UNK         0.0000 
     32 C32         5.1480   54.0716   23.9410 C.1       1 UNK         0.0000 
     33 N33         6.0317   53.7395   23.2720 N.1       1 UNK         0.0000 
     34 H34         3.1035   59.1835   16.4698 H         1 UNK         0.0000 
     35 H35         2.7831   56.7913   16.9541 H         1 UNK         0.0000 
     36 H36         6.5767   55.9383   15.0877 H         1 UNK         0.0000 
     37 H37         5.1188   59.9500   15.2820 H         1 UNK         0.0000 
     38 H38         5.3881   54.1355   16.0738 H         1 UNK         0.0000 
     39 H39         4.4399   52.4100   16.9337 H         1 UNK         0.0000 
     40 H40         1.6251   52.9373   20.5131 H         1 UNK         0.0000 
     41 H41         3.2621   52.3039   20.5445 H         1 UNK         0.0000 
     42 H42         2.5571   54.4417   22.0669 H         1 UNK         0.0000 
     43 H43         2.5924   51.8211   27.9678 H         1 UNK         0.0000 
     44 H44         2.2096   53.3943   28.6783 H         1 UNK         0.0000 
     45 H45         4.7775   52.0996   28.7340 H         1 UNK         0.0000 
     46 H46         4.4271   53.7285   29.2487 H         1 UNK         0.0000 
     47 H47         5.6509   54.5266   27.4588 H         1 UNK         0.0000 
     48 H48         5.8484   52.9011   26.8145 H         1 UNK         0.0000 
     49 H49         3.5681   50.4485   18.1864 H         1 UNK         0.0000 
@<TRIPOS>BOND
     1    1    6 ar   
     2    1    2 ar   
     3    1   34 1    
     4    2    3 ar   
     5    2   35 1    
     6    3    4 ar   
     7    3    8 1    
     8    4    5 ar   
     9    4   36 1    
    10    5    6 ar   
    11    5    7 1    
    12    6   37 1    
    13    8    9 2    
    14    8   38 1    
    15    9   10 1    
    16   10   11 ar   
    17   10   39 1    
    18   11   16 1    
    19   11   12 ar   
    20   12   13 1    
    21   12   49 1    
    22   13   14 1    
    23   13   15 1    
    24   13   17 1    
    25   15   16 2    
    26   17   18 1    
    27   18   19 1    
    28   18   40 1    
    29   18   41 1    
    30   19   20 2    
    31   19   21 am   BACKBONE|DICT|INTERRES
    32   21   22 1    
    33   21   42 1    
    34   22   23 1    
    35   22   28 1    
    36   22   24 1    
    37   24   25 1    
    38   24   26 1    
    39   24   32 1    
    40   26   31 1    
    41   26   27 2    
    42   27   28 1    
    43   27   29 1    
    44   29   30 1    
    45   29   43 1    
    46   29   44 1    
    47   30   31 1    
    48   30   45 1    
    49   30   46 1    
    50   31   47 1    
    51   31   48 1    
    52   32   33 3    
@<TRIPOS>SUBSTRUCTURE
     1 UNK         1 GROUP             0       ****    0 ROOT    
