@<TRIPOS>MOLECULE
ZINC28955946_5339
60   63    1
SMALL
USER_CHARGES


@<TRIPOS>ATOM
      1 C1          3.7529   54.1005   24.4375 C.2       1 UNK         0.0000 
      2 C2          4.5322   54.2977   23.2977 C.2       1 UNK         0.0000 
      3 C3          5.8633   54.5264   23.5946 C.2       1 UNK         0.0000 
      4 S4          6.1666   54.4825   25.3053 S.3       1 UNK         0.0000 
      5 C5          4.4913   54.0973   25.6111 C.2       1 UNK         0.0000 
      6 C6          3.9328   53.8267   26.9161 C.2       1 UNK         0.0000 
      7 C7          4.5625   53.3685   28.0113 C.2       1 UNK         0.0000 
      8 S8          3.6200   53.0901   29.5046 S.o2      1 UNK         0.0000 
      9 O9          4.3039   52.0522   30.2810 O.2       1 UNK         0.0000 
     10 O10         3.3596   54.4131   30.0817 O.2       1 UNK         0.0000 
     11 N11         2.0799   52.4102   29.0031 N.pl3     1 UNK         0.0000 
     12 C12         0.8975   53.2940   28.9054 C.3       1 UNK         0.0000 
     13 C13        -0.1302   52.8051   27.8666 C.3       1 UNK         0.0000 
     14 H14        -0.8171   53.6314   27.6808 H         1 UNK         0.0000 
     15 C15        -1.0110   51.6440   28.2896 C.3       1 UNK         0.0000 
     16 C16        -1.6520   51.1625   26.9829 C.3       1 UNK         0.0000 
     17 N17        -0.6036   51.4444   25.9918 N.am      1 UNK         0.0000 
     18 C18         0.4409   52.3344   26.5182 C.3       1 UNK         0.0000 
     19 C19        -0.6036   50.8665   24.7646 C.2       1 UNK         0.0000 
     20 O20        -1.5724   50.2284   24.3464 O.2       1 UNK         0.0000 
     21 C21         0.6666   50.9787   23.8774 C.3       1 UNK         0.0000 
     22 C22         0.8290   49.7373   22.9664 C.3       1 UNK         0.0000 
     23 C23         2.0994   49.9032   22.1072 C.3       1 UNK         0.0000 
     24 N24         2.0627   51.1404   21.2987 N.pl3     1 UNK         0.0000 
     25 C25         1.9567   52.3048   22.1900 C.3       1 UNK         0.0000 
     26 C26         0.6413   52.2541   23.0076 C.3       1 UNK         0.0000 
     27 C27         2.0562   51.2019   19.9048 C.ar      1 UNK         0.0000 
     28 C28         2.3816   52.3870   19.2129 C.ar      1 UNK         0.0000 
     29 C29         2.3801   52.4122   17.8149 C.ar      1 UNK         0.0000 
     30 N30         2.0478   51.2977   17.1365 N.pl3     1 UNK         0.0000 
     31 C31         1.7085   50.1460   17.7420 C.ar      1 UNK         0.0000 
     32 C32         1.7296   50.0713   19.1365 C.ar      1 UNK         0.0000 
     33 Cl33        7.1077   54.8964   22.4822 Cl        1 UNK         0.0000 
     34 H34         2.6874   53.9307   24.4087 H         1 UNK         0.0000 
     35 H35         4.1381   54.3151   22.2912 H         1 UNK         0.0000 
     36 H36         2.8708   54.0046   26.9637 H         1 UNK         0.0000 
     37 H37         5.6181   53.1535   28.0601 H         1 UNK         0.0000 
     38 H38         1.8962   51.4564   29.3256 H         1 UNK         0.0000 
     39 H39         0.4356   53.3627   29.8924 H         1 UNK         0.0000 
     40 H40         1.2309   54.3006   28.6544 H         1 UNK         0.0000 
     41 H41        -0.3829   50.8435   28.6824 H         1 UNK         0.0000 
     42 H42        -1.7152   51.8764   29.0881 H         1 UNK         0.0000 
     43 H43        -1.8884   50.0984   27.0499 H         1 UNK         0.0000 
     44 H44        -2.5397   51.7571   26.7657 H         1 UNK         0.0000 
     45 H45         0.7047   53.1682   25.8715 H         1 UNK         0.0000 
     46 H46         1.3171   51.7073   26.6967 H         1 UNK         0.0000 
     47 H47         1.5052   51.0062   24.5713 H         1 UNK         0.0000 
     48 H48         0.9724   48.8303   23.5552 H         1 UNK         0.0000 
     49 H49        -0.0023   49.6181   22.2676 H         1 UNK         0.0000 
     50 H50         2.9664   49.9661   22.7674 H         1 UNK         0.0000 
     51 H51         2.2837   49.0093   21.5124 H         1 UNK         0.0000 
     52 H52         2.8103   52.2487   22.8638 H         1 UNK         0.0000 
     53 H53         2.0355   53.2628   21.6795 H         1 UNK         0.0000 
     54 H54        -0.1832   52.2431   22.2925 H         1 UNK         0.0000 
     55 H55         0.6184   53.1619   23.6060 H         1 UNK         0.0000 
     56 H56         2.6989   53.2848   19.7278 H         1 UNK         0.0000 
     57 H57         2.6573   53.2710   17.2185 H         1 UNK         0.0000 
     58 H58         1.4990   49.3068   17.0916 H         1 UNK         0.0000 
     59 H59         1.4678   49.1358   19.6030 H         1 UNK         0.0000 
     60 H60         2.1149   51.3057   16.1268 H         1 UNK         0.0000 
@<TRIPOS>BOND
     1    1    5 2    
     2    1    2 1    
     3    1   34 1    
     4    2    3 2    
     5    2   35 1    
     6    3    4 1    
     7    3   33 1    
     8    4    5 1    
     9    5    6 1    
    10    6    7 2    
    11    6   36 1    
    12    7    8 1    
    13    7   37 1    
    14    8    9 2    
    15    8   10 2    
    16    8   11 1    
    17   11   12 1    
    18   11   38 1    
    19   12   13 1    
    20   12   39 1    
    21   12   40 1    
    22   13   14 1    
    23   13   18 1    
    24   13   15 1    
    25   15   16 1    
    26   15   41 1    
    27   15   42 1    
    28   16   17 1    
    29   16   43 1    
    30   16   44 1    
    31   17   18 1    
    32   17   19 am   BACKBONE|DICT|INTERRES
    33   18   45 1    
    34   18   46 1    
    35   19   20 2    
    36   19   21 1    
    37   21   26 1    
    38   21   22 1    
    39   21   47 1    
    40   22   23 1    
    41   22   48 1    
    42   22   49 1    
    43   23   24 1    
    44   23   50 1    
    45   23   51 1    
    46   24   25 1    
    47   24   27 1    
    48   25   26 1    
    49   25   52 1    
    50   25   53 1    
    51   26   54 1    
    52   26   55 1    
    53   27   32 ar   
    54   27   28 ar   
    55   28   29 ar   
    56   28   56 1    
    57   29   30 ar   
    58   29   57 1    
    59   30   31 ar   
    60   30   60 1    
    61   31   32 ar   
    62   31   58 1    
    63   32   59 1    
@<TRIPOS>SUBSTRUCTURE
     1 UNK         1 GROUP             0       ****    0 ROOT    
