@<TRIPOS>MOLECULE
ZINC64066821_1162
69   74    1
SMALL
USER_CHARGES


@<TRIPOS>ATOM
      1 C1          9.0196   54.1740   16.8424 C.3       1 UNK         0.0000 
      2 O2          8.7657   55.0467   17.9398 O.3       1 UNK         0.0000 
      3 C3          7.6393   54.8450   18.7123 C.ar      1 UNK         0.0000 
      4 C4          7.4836   55.6890   19.8111 C.ar      1 UNK         0.0000 
      5 C5          6.3985   55.5391   20.6697 C.ar      1 UNK         0.0000 
      6 C6          5.4619   54.5276   20.4419 C.ar      1 UNK         0.0000 
      7 C7          5.5956   53.6950   19.3299 C.ar      1 UNK         0.0000 
      8 C8          6.6782   53.8516   18.4696 C.ar      1 UNK         0.0000 
      9 C9          4.2868   54.3387   21.3989 C.3       1 UNK         0.0000 
     10 C10         4.5961   53.5775   22.7054 C.3       1 UNK         0.0000 
     11 H11         4.8679   52.5473   22.4820 H         1 UNK         0.0000 
     12 N12         5.7406   54.1219   23.4132 N.pl3     1 UNK         0.0000 
     13 C13         5.4369   54.2678   24.7510 C.ar      1 UNK         0.0000 
     14 C14         6.2929   54.5935   25.8004 C.ar      1 UNK         0.0000 
     15 C15         5.7857   54.6658   27.0987 C.ar      1 UNK         0.0000 
     16 C16         4.4274   54.4367   27.3291 C.ar      1 UNK         0.0000 
     17 C17         3.5761   54.1178   26.2675 C.ar      1 UNK         0.0000 
     18 C18         4.0932   54.0140   24.9709 C.ar      1 UNK         0.0000 
     19 N19         3.5263   53.6882   23.7292 N.pl3     1 UNK         0.0000 
     20 C20         2.4844   52.6332   23.6389 C.3       1 UNK         0.0000 
     21 C21         1.0496   53.1332   23.9777 C.3       1 UNK         0.0000 
     22 C22        -0.0106   51.9933   23.9781 C.3       1 UNK         0.0000 
     23 N23         0.0507   51.3324   22.6559 N.am      1 UNK         0.0000 
     24 C24         1.3268   50.6347   22.4851 C.3       1 UNK         0.0000 
     25 C25         2.4068   51.7218   22.3738 C.3       1 UNK         0.0000 
     26 C26        -0.7841   51.7649   21.6635 C.2       1 UNK         0.0000 
     27 O27        -1.7490   52.4792   21.9395 O.2       1 UNK         0.0000 
     28 C28        -0.7360   51.3600   20.1676 C.3       1 UNK         0.0000 
     29 C29         0.3741   50.4810   19.6106 C.2       1 UNK         0.0000 
     30 C30         0.4061   49.1491   19.4262 C.2       1 UNK         0.0000 
     31 C31        -0.5626   48.1043   19.7919 C.2       1 UNK         0.0000 
     32 C32        -0.3381   46.8147   19.4685 C.2       1 UNK         0.0000 
     33 C33         0.8895   46.4948   18.7515 C.2       1 UNK         0.0000 
     34 C34         1.7983   47.4473   18.4151 C.2       1 UNK         0.0000 
     35 C35         1.5683   48.7854   18.7427 C.2       1 UNK         0.0000 
     36 N36         2.3042   49.8331   18.4814 N.pl3     1 UNK         0.0000 
     37 C37         1.6148   51.0504   18.9361 C.3       1 UNK         0.0000 
     38 H38         9.9615   54.4523   16.3700 H         1 UNK         0.0000 
     39 H39         9.1076   53.1334   17.1646 H         1 UNK         0.0000 
     40 H40         8.2382   54.2491   16.0835 H         1 UNK         0.0000 
     41 H41         8.2238   56.4516   20.0007 H         1 UNK         0.0000 
     42 H42         6.2982   56.1940   21.5216 H         1 UNK         0.0000 
     43 H43         4.8761   52.9129   19.1367 H         1 UNK         0.0000 
     44 H44         6.7622   53.1784   17.6303 H         1 UNK         0.0000 
     45 H45         3.4742   53.8739   20.8474 H         1 UNK         0.0000 
     46 H46         3.8802   55.2965   21.6817 H         1 UNK         0.0000 
     47 H47         6.6054   54.1554   22.8925 H         1 UNK         0.0000 
     48 H48         7.3401   54.7719   25.6171 H         1 UNK         0.0000 
     49 H49         6.4384   54.9067   27.9252 H         1 UNK         0.0000 
     50 H50         4.0349   54.5027   28.3326 H         1 UNK         0.0000 
     51 H51         2.5348   53.9333   26.4776 H         1 UNK         0.0000 
     52 H52         2.7012   51.9283   24.4416 H         1 UNK         0.0000 
     53 H53         0.7478   53.9024   23.2665 H         1 UNK         0.0000 
     54 H54         1.0288   53.6093   24.9551 H         1 UNK         0.0000 
     55 H55        -1.0207   52.2989   24.2594 H         1 UNK         0.0000 
     56 H56         0.2399   51.2445   24.7308 H         1 UNK         0.0000 
     57 H57         1.4927   50.0459   23.3901 H         1 UNK         0.0000 
     58 H58         1.3365   49.8531   21.7328 H         1 UNK         0.0000 
     59 H59         3.3422   51.2033   22.1733 H         1 UNK         0.0000 
     60 H60         2.1925   52.3380   21.5076 H         1 UNK         0.0000 
     61 H61        -0.7432   52.2806   19.5818 H         1 UNK         0.0000 
     62 H62        -1.6834   50.8664   19.9508 H         1 UNK         0.0000 
     63 H63        -1.4704   48.3425   20.3275 H         1 UNK         0.0000 
     64 H64        -1.0445   46.0416   19.7331 H         1 UNK         0.0000 
     65 H65         1.0890   45.4678   18.4820 H         1 UNK         0.0000 
     66 H66         2.6938   47.1621   17.8786 H         1 UNK         0.0000 
     67 H67         2.3078   51.5893   19.5758 H         1 UNK         0.0000 
     68 H68         1.3934   51.6561   18.0547 H         1 UNK         0.0000 
     69 H69         3.1892   49.8098   17.9537 H         1 UNK         0.0000 
@<TRIPOS>BOND
     1    1    2 1    
     2    1   38 1    
     3    1   39 1    
     4    1   40 1    
     5    2    3 1    
     6    3    8 ar   
     7    3    4 ar   
     8    4    5 ar   
     9    4   41 1    
    10    5    6 ar   
    11    5   42 1    
    12    6    7 ar   
    13    6    9 1    
    14    7    8 ar   
    15    7   43 1    
    16    8   44 1    
    17    9   10 1    
    18    9   45 1    
    19    9   46 1    
    20   10   11 1    
    21   10   19 1    
    22   10   12 1    
    23   12   13 1    
    24   12   47 1    
    25   13   18 ar   
    26   13   14 ar   
    27   14   15 ar   
    28   14   48 1    
    29   15   16 ar   
    30   15   49 1    
    31   16   17 ar   
    32   16   50 1    
    33   17   18 ar   
    34   17   51 1    
    35   18   19 1    
    36   19   20 1    
    37   20   25 1    
    38   20   21 1    
    39   20   52 1    
    40   21   22 1    
    41   21   53 1    
    42   21   54 1    
    43   22   23 1    
    44   22   55 1    
    45   22   56 1    
    46   23   24 1    
    47   23   26 am   BACKBONE|DICT|INTERRES
    48   24   25 1    
    49   24   57 1    
    50   24   58 1    
    51   25   59 1    
    52   25   60 1    
    53   26   27 2    
    54   26   28 1    
    55   28   29 1    
    56   28   61 1    
    57   28   62 1    
    58   29   37 1    
    59   29   30 2    
    60   30   35 1    
    61   30   31 1    
    62   31   32 2    
    63   31   63 1    
    64   32   33 1    
    65   32   64 1    
    66   33   34 2    
    67   33   65 1    
    68   34   35 1    
    69   34   66 1    
    70   35   36 2    
    71   36   37 1    
    72   36   69 1    
    73   37   67 1    
    74   37   68 1    
@<TRIPOS>SUBSTRUCTURE
     1 UNK         1 GROUP             0       ****    0 ROOT    
