@<TRIPOS>MOLECULE
ZINC40930891_4854
56   59    1
SMALL
USER_CHARGES


@<TRIPOS>ATOM
      1 C1         -0.0932   48.8973   21.3688 C.ar      1 UNK         0.0000 
      2 C2         -1.4508   48.9757   21.0810 C.ar      1 UNK         0.0000 
      3 C3         -1.8715   49.5154   19.8684 C.ar      1 UNK         0.0000 
      4 C4         -0.9459   49.9971   18.9285 C.ar      1 UNK         0.0000 
      5 C5          0.4363   49.9157   19.2220 C.ar      1 UNK         0.0000 
      6 C6          0.8409   49.3500   20.4411 C.ar      1 UNK         0.0000 
      7 C7          1.5082   50.4792   18.2665 C.3       1 UNK         0.0000 
      8 N8          2.7044   51.0695   18.8803 N.am      1 UNK         0.0000 
      9 C9          2.7180   52.0329   19.8197 C.2       1 UNK         0.0000 
     10 O10         1.6829   52.4967   20.2973 O.2       1 UNK         0.0000 
     11 C11         4.0930   52.5142   20.3468 C.3       1 UNK         0.0000 
     12 C12         4.3083   54.0184   20.0075 C.3       1 UNK         0.0000 
     13 C13         5.5518   54.6175   20.7010 C.3       1 UNK         0.0000 
     14 N14         5.4356   54.3314   22.2176 N.4       1 UNK         0.0000 
     15 C15         5.4236   52.8094   22.4809 C.3       1 UNK         0.0000 
     16 C16         4.1303   52.2477   21.8735 C.3       1 UNK         0.0000 
     17 C17         6.5329   55.0203   23.0752 C.3       1 UNK         0.0000 
     18 C18         6.1462   54.9600   24.5545 C.2       1 UNK         0.0000 
     19 N19         5.0098   54.5996   25.0966 N.2       1 UNK         0.0000 
     20 C20         5.3103   54.5213   26.3802 C.2       1 UNK         0.0000 
     21 N21         6.5329   54.8970   26.6968 N.2       1 UNK         0.0000 
     22 O22         7.1044   55.2199   25.4684 O.3       1 UNK         0.0000 
     23 C23         4.3396   53.9943   27.4019 C.ar      1 UNK         0.0000 
     24 C24         4.7775   53.7057   28.7016 C.ar      1 UNK         0.0000 
     25 C25         3.9044   53.1646   29.6407 C.ar      1 UNK         0.0000 
     26 C26         2.5797   52.9191   29.2921 C.ar      1 UNK         0.0000 
     27 C27         2.1229   53.2128   28.0097 C.ar      1 UNK         0.0000 
     28 C28         3.0002   53.7469   27.0686 C.ar      1 UNK         0.0000 
     29 Cl29        1.5041   52.2408   30.4573 Cl        1 UNK         0.0000 
     30 C30        -1.4681   50.5931   17.6131 C.3       1 UNK         0.0000 
     31 F31        -1.2554   51.9097   17.6053 F         1 UNK         0.0000 
     32 F32        -0.8480   50.0422   16.5689 F         1 UNK         0.0000 
     33 F33        -2.7778   50.3951   17.4485 F         1 UNK         0.0000 
     34 H34         0.2370   48.4968   22.3154 H         1 UNK         0.0000 
     35 H35        -2.1779   48.6237   21.7990 H         1 UNK         0.0000 
     36 H36        -2.9324   49.5629   19.6704 H         1 UNK         0.0000 
     37 H37         1.8912   49.2806   20.6862 H         1 UNK         0.0000 
     38 H38         1.8387   49.6689   17.6146 H         1 UNK         0.0000 
     39 H39         1.1020   51.2455   17.6074 H         1 UNK         0.0000 
     40 H40         3.5980   50.7739   18.4825 H         1 UNK         0.0000 
     41 H41         4.8559   51.9170   19.8434 H         1 UNK         0.0000 
     42 H42         4.4279   54.1697   18.9328 H         1 UNK         0.0000 
     43 H43         3.5043   54.6283   20.4010 H         1 UNK         0.0000 
     44 H44         6.4892   54.2149   20.3211 H         1 UNK         0.0000 
     45 H45         5.5492   55.7027   20.5824 H         1 UNK         0.0000 
     46 H46         6.3044   52.3355   22.0817 H         1 UNK         0.0000 
     47 H47         5.5037   52.6742   23.5497 H         1 UNK         0.0000 
     48 H48         3.3171   52.7603   22.3933 H         1 UNK         0.0000 
     49 H49         4.1116   51.1764   22.0792 H         1 UNK         0.0000 
     50 H50         7.4643   54.4946   22.8558 H         1 UNK         0.0000 
     51 H51         6.6289   56.0430   22.7098 H         1 UNK         0.0000 
     52 H52         5.8068   53.8791   28.9845 H         1 UNK         0.0000 
     53 H53         4.2590   52.9275   30.6326 H         1 UNK         0.0000 
     54 H54         1.0938   53.0187   27.7429 H         1 UNK         0.0000 
     55 H55         2.6323   53.9535   26.0738 H         1 UNK         0.0000 
     56 H56         4.5581   54.7140   22.5471 H         1 UNK         0.0000 
@<TRIPOS>BOND
     1    1    6 ar   
     2    1    2 ar   
     3    1   34 1    
     4    2    3 ar   
     5    2   35 1    
     6    3    4 ar   
     7    3   36 1    
     8    4    5 ar   
     9    4   30 1    
    10    5    6 ar   
    11    5    7 1    
    12    6   37 1    
    13    7    8 1    
    14    7   38 1    
    15    7   39 1    
    16    8    9 am   BACKBONE|DICT|INTERRES
    17    8   40 1    
    18    9   10 2    
    19    9   11 1    
    20   11   16 1    
    21   11   12 1    
    22   11   41 1    
    23   12   13 1    
    24   12   42 1    
    25   12   43 1    
    26   13   14 1    
    27   13   44 1    
    28   13   45 1    
    29   14   15 1    
    30   14   17 1    
    31   14   56 1    
    32   15   16 1    
    33   15   46 1    
    34   15   47 1    
    35   16   48 1    
    36   16   49 1    
    37   17   18 1    
    38   17   50 1    
    39   17   51 1    
    40   18   22 1    
    41   18   19 2    
    42   19   20 1    
    43   20   21 2    
    44   20   23 1    
    45   21   22 1    
    46   23   28 ar   
    47   23   24 ar   
    48   24   25 ar   
    49   24   52 1    
    50   25   26 ar   
    51   25   53 1    
    52   26   27 ar   
    53   26   29 1    
    54   27   28 ar   
    55   27   54 1    
    56   28   55 1    
    57   30   31 1    
    58   30   32 1    
    59   30   33 1    
@<TRIPOS>SUBSTRUCTURE
     1 UNK         1 GROUP             0       ****    0 ROOT    
