@<TRIPOS>MOLECULE
ZINC14957950_4273
60   61    1
SMALL
USER_CHARGES


@<TRIPOS>ATOM
      1 C1          5.0079   56.0773   17.4592 C.3       1 UNK         0.0000 
      2 C2          5.1784   55.2313   18.7301 C.ar      1 UNK         0.0000 
      3 C3          4.6203   53.9318   18.8345 C.ar      1 UNK         0.0000 
      4 C4          4.7761   53.2120   20.0400 C.ar      1 UNK         0.0000 
      5 C5          5.4190   53.7903   21.1503 C.ar      1 UNK         0.0000 
      6 C6          5.9994   55.0565   21.0162 C.ar      1 UNK         0.0000 
      7 C7          5.9041   55.7615   19.8129 C.ar      1 UNK         0.0000 
      8 Cl8         6.7044   57.2964   19.6818 Cl        1 UNK         0.0000 
      9 O9          6.7045   55.5974   22.0667 O.3       1 UNK         0.0000 
     10 C10         5.6485   52.9854   22.4431 C.3       1 UNK         0.0000 
     11 C11         4.8406   53.4186   23.6559 C.2       1 UNK         0.0000 
     12 C12         5.3026   53.6967   24.9003 C.2       1 UNK         0.0000 
     13 C13         6.7826   53.6991   25.2982 C.3       1 UNK         0.0000 
     14 C14         4.3327   54.0266   26.0347 C.3       1 UNK         0.0000 
     15 H15         3.3316   54.1234   25.6312 H         1 UNK         0.0000 
     16 C16         4.3857   53.1387   27.3196 C.3       1 UNK         0.0000 
     17 C17         3.1405   53.0329   28.2887 C.3       1 UNK         0.0000 
     18 C18         2.6539   54.4636   28.7284 C.3       1 UNK         0.0000 
     19 H19         2.3648   55.0005   27.8235 H         1 UNK         0.0000 
     20 C20         1.3839   54.4302   29.6161 C.3       1 UNK         0.0000 
     21 C21         0.2141   53.6944   28.9594 C.3       1 UNK         0.0000 
     22 C22         0.6422   52.2904   28.5322 C.2       1 UNK         0.0000 
     23 O23         0.0191   51.2967   28.8812 O.2       1 UNK         0.0000 
     24 C24         1.9253   52.2159   27.6665 C.3       1 UNK         0.0000 
     25 H25         2.2153   51.1646   27.6817 H         1 UNK         0.0000 
     26 C26         1.4990   52.5035   26.2067 C.3       1 UNK         0.0000 
     27 C27         3.7216   55.2612   29.4921 C.3       1 UNK         0.0000 
     28 C28         3.5737   52.2237   29.5537 C.3       1 UNK         0.0000 
     29 O29         4.6804   55.2967   26.4347 O.3       1 UNK         0.0000 
     30 O30         4.3593   51.9012   20.1344 O.3       1 UNK         0.0000 
     31 C31         3.8718   53.2732   17.7010 C.2       1 UNK         0.0000 
     32 O32         3.6718   53.7385   16.5804 O.2       1 UNK         0.0000 
     33 H33         5.3650   57.1019   17.5304 H         1 UNK         0.0000 
     34 H34         5.5162   55.6042   16.6190 H         1 UNK         0.0000 
     35 H35         3.9505   56.1599   17.2076 H         1 UNK         0.0000 
     36 H36         6.6006   55.0927   22.8771 H         1 UNK         0.0000 
     37 H37         5.4575   51.9254   22.2862 H         1 UNK         0.0000 
     38 H38         6.7044   53.0202   22.6695 H         1 UNK         0.0000 
     39 H39         3.7747   53.4582   23.4791 H         1 UNK         0.0000 
     40 H40         6.9432   53.1269   26.2112 H         1 UNK         0.0000 
     41 H41         7.4610   53.2967   24.5522 H         1 UNK         0.0000 
     42 H42         7.1045   54.7220   25.4920 H         1 UNK         0.0000 
     43 H43         4.6911   52.1452   27.0451 H         1 UNK         0.0000 
     44 H44         5.2571   53.4400   27.9042 H         1 UNK         0.0000 
     45 H45         1.0779   55.4500   29.8568 H         1 UNK         0.0000 
     46 H46         1.5945   53.9826   30.5879 H         1 UNK         0.0000 
     47 H47        -0.1369   54.2307   28.0817 H         1 UNK         0.0000 
     48 H48        -0.6198   53.6063   29.6559 H         1 UNK         0.0000 
     49 H49         0.6497   51.8860   25.9068 H         1 UNK         0.0000 
     50 H50         1.2090   53.5439   26.0565 H         1 UNK         0.0000 
     51 H51         2.2890   52.2559   25.4990 H         1 UNK         0.0000 
     52 H52         3.9126   54.8251   30.4716 H         1 UNK         0.0000 
     53 H53         4.6851   55.2967   28.9908 H         1 UNK         0.0000 
     54 H54         3.3739   56.2814   29.6580 H         1 UNK         0.0000 
     55 H55         2.7879   52.1139   30.3000 H         1 UNK         0.0000 
     56 H56         3.8856   51.2188   29.2819 H         1 UNK         0.0000 
     57 H57         4.4315   52.6701   30.0547 H         1 UNK         0.0000 
     58 H58         4.2769   55.4567   27.2908 H         1 UNK         0.0000 
     59 H59         4.5338   51.3946   19.3235 H         1 UNK         0.0000 
     60 H60         3.4773   52.2825   17.9248 H         1 UNK         0.0000 
@<TRIPOS>BOND
     1    1    2 1    
     2    1   33 1    
     3    1   34 1    
     4    1   35 1    
     5    2    7 ar   
     6    2    3 ar   
     7    3    4 ar   
     8    3   31 1    
     9    4    5 ar   
    10    4   30 1    
    11    5    6 ar   
    12    5   10 1    
    13    6    7 ar   
    14    6    9 1    
    15    7    8 1    
    16    9   36 1    
    17   10   11 1    
    18   10   37 1    
    19   10   38 1    
    20   11   12 2    
    21   11   39 1    
    22   12   13 1    
    23   12   14 1    
    24   13   40 1    
    25   13   41 1    
    26   13   42 1    
    27   14   15 1    
    28   14   16 1    
    29   14   29 1    
    30   16   17 1    
    31   16   43 1    
    32   16   44 1    
    33   17   24 1    
    34   17   18 1    
    35   17   28 1    
    36   18   19 1    
    37   18   20 1    
    38   18   27 1    
    39   20   21 1    
    40   20   45 1    
    41   20   46 1    
    42   21   22 1    
    43   21   47 1    
    44   21   48 1    
    45   22   23 2    
    46   22   24 1    
    47   24   25 1    
    48   24   26 1    
    49   26   49 1    
    50   26   50 1    
    51   26   51 1    
    52   27   52 1    
    53   27   53 1    
    54   27   54 1    
    55   28   55 1    
    56   28   56 1    
    57   28   57 1    
    58   29   58 1    
    59   30   59 1    
    60   31   32 2    
    61   31   60 1    
@<TRIPOS>SUBSTRUCTURE
     1 UNK         1 GROUP             0       ****    0 ROOT    
