@<TRIPOS>MOLECULE
ZINC39675240_3078
76   79    1
SMALL
USER_CHARGES


@<TRIPOS>ATOM
      1 C1          2.7065   47.0830   13.5805 C.3       1 UNK         0.0000 
      2 C2          2.5852   46.5916   15.0254 C.3       1 UNK         0.0000 
      3 O3          1.1949   46.4359   15.3064 O.3       1 UNK         0.0000 
      4 C4          0.7098   46.6302   16.5852 C.ar      1 UNK         0.0000 
      5 C5         -0.6757   46.5776   16.7296 C.ar      1 UNK         0.0000 
      6 C6         -1.2709   46.7949   17.9696 C.ar      1 UNK         0.0000 
      7 C7         -0.4846   47.0825   19.0912 C.ar      1 UNK         0.0000 
      8 C8          0.9109   47.0837   18.9548 C.ar      1 UNK         0.0000 
      9 C9          1.5031   46.8692   17.7151 C.ar      1 UNK         0.0000 
     10 C10        -1.1589   47.3470   20.4235 C.2       1 UNK         0.0000 
     11 O11        -2.1265   46.6532   20.7459 O.2       1 UNK         0.0000 
     12 N12        -0.6941   48.3441   21.2215 N.am      1 UNK         0.0000 
     13 C13         0.3017   49.3503   20.8344 C.3       1 UNK         0.0000 
     14 C14         0.0431   50.4986   21.8262 C.3       1 UNK         0.0000 
     15 H15        -0.7342   51.1517   21.4250 H         1 UNK         0.0000 
     16 C16        -0.4625   49.7916   23.1213 C.3       1 UNK         0.0000 
     17 C17        -1.3217   48.6603   22.5110 C.3       1 UNK         0.0000 
     18 C18        -1.2278   50.7451   24.0773 C.3       1 UNK         0.0000 
     19 C19        -1.8219   50.0032   25.2968 C.3       1 UNK         0.0000 
     20 N20        -0.6613   49.3507   26.0817 N.4       1 UNK         0.0000 
     21 C21         0.1994   48.4075   25.2150 C.3       1 UNK         0.0000 
     22 C22         0.6919   49.1875   23.9861 C.3       1 UNK         0.0000 
     23 C23         1.3468   51.3126   22.0106 C.2       1 UNK         0.0000 
     24 O24         2.4415   50.7520   22.0791 O.2       1 UNK         0.0000 
     25 N25         1.1990   52.6465   22.0982 N.am      1 UNK         0.0000 
     26 C26         2.1958   53.5963   22.6079 C.3       1 UNK         0.0000 
     27 H27         1.7483   54.5838   22.4814 H         1 UNK         0.0000 
     28 C28         3.5201   53.5993   21.8136 C.3       1 UNK         0.0000 
     29 C29         2.3509   53.3687   24.1314 C.3       1 UNK         0.0000 
     30 C30         3.3653   54.2530   24.8804 C.3       1 UNK         0.0000 
     31 C31         3.4503   54.0050   26.3892 C.ar      1 UNK         0.0000 
     32 C32         4.5537   54.4968   27.0894 C.ar      1 UNK         0.0000 
     33 C33         4.6722   54.2737   28.4590 C.ar      1 UNK         0.0000 
     34 C34         3.7043   53.5346   29.1374 C.ar      1 UNK         0.0000 
     35 C35         2.5919   53.0513   28.4431 C.ar      1 UNK         0.0000 
     36 C36         2.4611   53.2947   27.0826 C.ar      1 UNK         0.0000 
     37 O37         3.9040   53.3284   30.4838 O.3       1 UNK         0.0000 
     38 C38         3.2657   52.2234   31.1123 C.3       1 UNK         0.0000 
     39 H39         3.7440   47.2960   13.3185 H         1 UNK         0.0000 
     40 H40         2.3052   46.3539   12.8768 H         1 UNK         0.0000 
     41 H41         2.1496   48.0102   13.4457 H         1 UNK         0.0000 
     42 H42         3.0862   47.3165   15.6633 H         1 UNK         0.0000 
     43 H43         3.0957   45.6370   15.1576 H         1 UNK         0.0000 
     44 H44        -1.2932   46.3811   15.8655 H         1 UNK         0.0000 
     45 H45        -2.3497   46.7623   18.0458 H         1 UNK         0.0000 
     46 H46         1.5599   47.2433   19.8029 H         1 UNK         0.0000 
     47 H47         2.5805   46.8960   17.6612 H         1 UNK         0.0000 
     48 H48         0.2052   49.7073   19.8078 H         1 UNK         0.0000 
     49 H49         1.2780   48.9103   21.0439 H         1 UNK         0.0000 
     50 H50        -1.5071   47.8105   23.1672 H         1 UNK         0.0000 
     51 H51        -2.3076   49.0701   22.2819 H         1 UNK         0.0000 
     52 H52        -0.5904   51.5721   24.3965 H         1 UNK         0.0000 
     53 H53        -2.0528   51.2129   23.5364 H         1 UNK         0.0000 
     54 H54        -2.3151   50.6765   25.9997 H         1 UNK         0.0000 
     55 H55        -2.5138   49.2010   25.0316 H         1 UNK         0.0000 
     56 H56        -0.0639   50.0815   26.4378 H         1 UNK         0.0000 
     57 H57         1.0400   48.0994   25.8358 H         1 UNK         0.0000 
     58 H58        -0.4114   47.5326   24.9912 H         1 UNK         0.0000 
     59 H59         1.2767   48.5078   23.3642 H         1 UNK         0.0000 
     60 H60         1.3985   49.9482   24.3211 H         1 UNK         0.0000 
     61 H61         0.2940   53.0355   21.8911 H         1 UNK         0.0000 
     62 H62         4.1625   54.4221   22.1244 H         1 UNK         0.0000 
     63 H63         4.0937   52.6869   21.9773 H         1 UNK         0.0000 
     64 H64         3.3428   53.7040   20.7419 H         1 UNK         0.0000 
     65 H65         2.6003   52.3240   24.3268 H         1 UNK         0.0000 
     66 H66         1.3622   53.5281   24.5647 H         1 UNK         0.0000 
     67 H67         3.1156   55.2966   24.7155 H         1 UNK         0.0000 
     68 H68         4.3582   54.0898   24.4576 H         1 UNK         0.0000 
     69 H69         5.3242   55.0514   26.5733 H         1 UNK         0.0000 
     70 H70         5.5319   54.6570   28.9918 H         1 UNK         0.0000 
     71 H71         1.8174   52.4916   28.9451 H         1 UNK         0.0000 
     72 H72         1.5888   52.9005   26.5891 H         1 UNK         0.0000 
     73 H73         3.6472   52.1173   32.1265 H         1 UNK         0.0000 
     74 H74         3.4920   51.2971   30.5824 H         1 UNK         0.0000 
     75 H75         2.1840   52.3544   31.1766 H         1 UNK         0.0000 
     76 H76        -1.0096   48.8730   26.9286 H         1 UNK         0.0000 
@<TRIPOS>BOND
     1    1    2 1    
     2    1   39 1    
     3    1   40 1    
     4    1   41 1    
     5    2    3 1    
     6    2   42 1    
     7    2   43 1    
     8    3    4 1    
     9    4    9 ar   
    10    4    5 ar   
    11    5    6 ar   
    12    5   44 1    
    13    6    7 ar   
    14    6   45 1    
    15    7    8 ar   
    16    7   10 1    
    17    8    9 ar   
    18    8   46 1    
    19    9   47 1    
    20   10   11 2    
    21   10   12 am   BACKBONE|DICT|INTERRES
    22   12   17 1    
    23   12   13 1    
    24   13   14 1    
    25   13   48 1    
    26   13   49 1    
    27   14   15 1    
    28   14   16 1    
    29   14   23 1    
    30   16   22 1    
    31   16   17 1    
    32   16   18 1    
    33   17   50 1    
    34   17   51 1    
    35   18   19 1    
    36   18   52 1    
    37   18   53 1    
    38   19   20 1    
    39   19   54 1    
    40   19   55 1    
    41   20   21 1    
    42   20   56 1    
    43   20   76 1    
    44   21   22 1    
    45   21   57 1    
    46   21   58 1    
    47   22   59 1    
    48   22   60 1    
    49   23   24 2    
    50   23   25 am   BACKBONE|DICT|INTERRES
    51   25   26 1    
    52   25   61 1    
    53   26   27 1    
    54   26   28 1    
    55   26   29 1    
    56   28   62 1    
    57   28   63 1    
    58   28   64 1    
    59   29   30 1    
    60   29   65 1    
    61   29   66 1    
    62   30   31 1    
    63   30   67 1    
    64   30   68 1    
    65   31   36 ar   
    66   31   32 ar   
    67   32   33 ar   
    68   32   69 1    
    69   33   34 ar   
    70   33   70 1    
    71   34   35 ar   
    72   34   37 1    
    73   35   36 ar   
    74   35   71 1    
    75   36   72 1    
    76   37   38 1    
    77   38   73 1    
    78   38   74 1    
    79   38   75 1    
@<TRIPOS>SUBSTRUCTURE
     1 UNK         1 GROUP             0       ****    0 ROOT    
