@<TRIPOS>MOLECULE
ZINC39665179_2205
72   75    1
SMALL
USER_CHARGES


@<TRIPOS>ATOM
      1 C1         -6.8472   50.0804   24.9647 C.3       1 UNK         0.0000 
      2 C2         -5.3749   50.3791   25.3068 C.3       1 UNK         0.0000 
      3 H3         -5.2465   50.2463   26.3809 H         1 UNK         0.0000 
      4 C4         -4.9998   51.8433   24.9527 C.3       1 UNK         0.0000 
      5 N5         -3.5868   52.2108   25.1056 N.am      1 UNK         0.0000 
      6 C6         -2.8650   52.1253   26.2380 C.2       1 UNK         0.0000 
      7 O7         -3.3551   51.7555   27.3038 O.2       1 UNK         0.0000 
      8 C8         -1.3821   52.5734   26.1393 C.3       1 UNK         0.0000 
      9 H9         -1.3141   53.2972   25.3440 H         1 UNK         0.0000 
     10 C10        -0.8932   53.1081   27.5107 C.3       1 UNK         0.0000 
     11 N11         0.5688   53.0468   27.4332 N.am      1 UNK         0.0000 
     12 C12         0.9533   52.0611   26.4158 C.3       1 UNK         0.0000 
     13 C13        -0.3474   51.4895   25.7882 C.3       1 UNK         0.0000 
     14 C14        -0.7118   50.1379   26.4301 C.3       1 UNK         0.0000 
     15 C15         0.3347   49.0408   26.1985 C.3       1 UNK         0.0000 
     16 N16         0.6183   48.8986   24.6860 N.4       1 UNK         0.0000 
     17 C17         0.8719   50.2215   23.9288 C.3       1 UNK         0.0000 
     18 C18        -0.2669   51.2017   24.2653 C.3       1 UNK         0.0000 
     19 C19         1.3830   53.9268   28.1127 C.2       1 UNK         0.0000 
     20 O20         0.8881   54.8052   28.8231 O.2       1 UNK         0.0000 
     21 C21         2.9584   53.8689   28.0199 C.3       1 UNK         0.0000 
     22 C22         3.4210   54.5778   26.7113 C.3       1 UNK         0.0000 
     23 C23         4.9514   54.4699   26.4953 C.3       1 UNK         0.0000 
     24 C24         5.8029   54.9268   27.7051 C.3       1 UNK         0.0000 
     25 C25         5.2027   54.5838   29.0816 C.3       1 UNK         0.0000 
     26 C26         3.6493   54.6513   29.1789 C.3       1 UNK         0.0000 
     27 C27         3.3681   52.3901   28.1151 C.3       1 UNK         0.0000 
     28 O28        -4.5199   49.4655   24.6055 O.3       1 UNK         0.0000 
     29 C29        -4.5040   48.1745   25.0911 C.ar      1 UNK         0.0000 
     30 C30        -3.8557   47.8742   26.2928 C.ar      1 UNK         0.0000 
     31 C31        -3.8458   46.5683   26.7742 C.ar      1 UNK         0.0000 
     32 C32        -4.5085   45.5646   26.0642 C.ar      1 UNK         0.0000 
     33 C33        -5.1590   45.8554   24.8644 C.ar      1 UNK         0.0000 
     34 C34        -5.1457   47.1600   24.3717 C.ar      1 UNK         0.0000 
     35 H35        -7.5195   50.8196   25.4064 H         1 UNK         0.0000 
     36 H36        -6.9996   50.0923   23.8870 H         1 UNK         0.0000 
     37 H37        -7.1514   49.1017   25.3396 H         1 UNK         0.0000 
     38 H38        -5.2596   52.0425   23.9144 H         1 UNK         0.0000 
     39 H39        -5.6098   52.5282   25.5410 H         1 UNK         0.0000 
     40 H40        -3.1180   52.5208   24.2691 H         1 UNK         0.0000 
     41 H41        -1.2819   54.1107   27.6818 H         1 UNK         0.0000 
     42 H42        -1.1900   52.4233   28.3084 H         1 UNK         0.0000 
     43 H43         1.5294   51.2496   26.8293 H         1 UNK         0.0000 
     44 H44         1.4992   52.5795   25.6287 H         1 UNK         0.0000 
     45 H45        -0.8222   50.2706   27.5069 H         1 UNK         0.0000 
     46 H46        -1.6791   49.7697   26.0858 H         1 UNK         0.0000 
     47 H47         1.2902   49.1942   26.6986 H         1 UNK         0.0000 
     48 H48        -0.0966   48.0998   26.5296 H         1 UNK         0.0000 
     49 H49         1.4094   48.2737   24.5544 H         1 UNK         0.0000 
     50 H50         1.8587   50.5839   24.2169 H         1 UNK         0.0000 
     51 H51         0.8934   49.9623   22.8689 H         1 UNK         0.0000 
     52 H52        -1.2260   50.8446   23.8778 H         1 UNK         0.0000 
     53 H53        -0.0659   52.1317   23.7295 H         1 UNK         0.0000 
     54 H54         2.9397   54.1447   25.8344 H         1 UNK         0.0000 
     55 H55         3.1241   55.6278   26.7354 H         1 UNK         0.0000 
     56 H56         5.2035   53.4333   26.2684 H         1 UNK         0.0000 
     57 H57         5.2413   55.0344   25.6088 H         1 UNK         0.0000 
     58 H58         6.7902   54.4695   27.6274 H         1 UNK         0.0000 
     59 H59         6.0292   55.9833   27.6777 H         1 UNK         0.0000 
     60 H60         5.5663   53.5835   29.2830 H         1 UNK         0.0000 
     61 H61         5.6405   55.2157   29.8536 H         1 UNK         0.0000 
     62 H62         3.3532   55.7035   29.1670 H         1 UNK         0.0000 
     63 H63         3.3434   54.2488   30.1438 H         1 UNK         0.0000 
     64 H64         4.3480   52.1782   28.5209 H         1 UNK         0.0000 
     65 H65         2.6742   51.7462   28.6606 H         1 UNK         0.0000 
     66 H66         3.4294   52.0985   27.0888 H         1 UNK         0.0000 
     67 H67        -3.3669   48.6503   26.8648 H         1 UNK         0.0000 
     68 H68        -3.3400   46.3429   27.7031 H         1 UNK         0.0000 
     69 H69        -4.5222   44.5566   26.4600 H         1 UNK         0.0000 
     70 H70        -5.6860   45.0766   24.3272 H         1 UNK         0.0000 
     71 H71        -5.6542   47.3942   23.4477 H         1 UNK         0.0000 
     72 H72        -0.1818   48.4448   24.2683 H         1 UNK         0.0000 
@<TRIPOS>BOND
     1    1    2 1    
     2    1   35 1    
     3    1   36 1    
     4    1   37 1    
     5    2    3 1    
     6    2    4 1    
     7    2   28 1    
     8    4    5 1    
     9    4   38 1    
    10    4   39 1    
    11    5    6 am   BACKBONE|DICT|INTERRES
    12    5   40 1    
    13    6    7 2    
    14    6    8 1    
    15    8    9 1    
    16    8   13 1    
    17    8   10 1    
    18   10   11 1    
    19   10   41 1    
    20   10   42 1    
    21   11   12 1    
    22   11   19 am   BACKBONE|DICT|INTERRES
    23   12   13 1    
    24   12   43 1    
    25   12   44 1    
    26   13   18 1    
    27   13   14 1    
    28   14   15 1    
    29   14   45 1    
    30   14   46 1    
    31   15   16 1    
    32   15   47 1    
    33   15   48 1    
    34   16   17 1    
    35   16   49 1    
    36   16   72 1    
    37   17   18 1    
    38   17   50 1    
    39   17   51 1    
    40   18   52 1    
    41   18   53 1    
    42   19   20 2    
    43   19   21 1    
    44   21   26 1    
    45   21   22 1    
    46   21   27 1    
    47   22   23 1    
    48   22   54 1    
    49   22   55 1    
    50   23   24 1    
    51   23   56 1    
    52   23   57 1    
    53   24   25 1    
    54   24   58 1    
    55   24   59 1    
    56   25   26 1    
    57   25   60 1    
    58   25   61 1    
    59   26   62 1    
    60   26   63 1    
    61   27   64 1    
    62   27   65 1    
    63   27   66 1    
    64   28   29 1    
    65   29   34 ar   
    66   29   30 ar   
    67   30   31 ar   
    68   30   67 1    
    69   31   32 ar   
    70   31   68 1    
    71   32   33 ar   
    72   32   69 1    
    73   33   34 ar   
    74   33   70 1    
    75   34   71 1    
@<TRIPOS>SUBSTRUCTURE
     1 UNK         1 GROUP             0       ****    0 ROOT    
