@<TRIPOS>MOLECULE
ZINC20923064_5491
47   49    1
SMALL
USER_CHARGES


@<TRIPOS>ATOM
      1 C1          1.5038   55.9547   30.1951 C.2       1 UNK         0.0000 
      2 C2          1.7525   56.0878   28.8830 C.2       1 UNK         0.0000 
      3 C3          2.0357   54.9655   27.8883 C.3       1 UNK         0.0000 
      4 N4          2.4702   53.7089   28.4839 N.pl3     1 UNK         0.0000 
      5 C5          1.7597   52.5458   28.6906 C.ar      1 UNK         0.0000 
      6 N6          2.4895   51.6967   29.3663 N.2       1 UNK         0.0000 
      7 N7          3.7487   52.2502   29.5452 N.2       1 UNK         0.0000 
      8 C8          3.7218   53.4298   28.9847 C.ar      1 UNK         0.0000 
      9 S9          5.1056   54.4968   28.8831 S.3       1 UNK         0.0000 
     10 C10         6.0265   53.6956   27.5462 C.3       1 UNK         0.0000 
     11 C11         5.9607   54.4958   26.2467 C.2       1 UNK         0.0000 
     12 O12         6.7041   55.4673   26.0825 O.2       1 UNK         0.0000 
     13 N13         5.0863   54.0338   25.3242 N.am      1 UNK         0.0000 
     14 N14         5.0861   54.4967   23.9962 N.am      1 UNK         0.0000 
     15 C15         6.1541   54.2769   23.1925 C.2       1 UNK         0.0000 
     16 O16         7.1811   53.6967   23.5425 O.2       1 UNK         0.0000 
     17 C17         6.0381   54.7937   21.7867 C.ar      1 UNK         0.0000 
     18 C18         7.1047   55.5062   21.2251 C.ar      1 UNK         0.0000 
     19 C19         7.0424   55.9243   19.8986 C.ar      1 UNK         0.0000 
     20 C20         5.9214   55.6192   19.1296 C.ar      1 UNK         0.0000 
     21 C21         4.8630   54.8965   19.6755 C.ar      1 UNK         0.0000 
     22 C22         4.9133   54.4940   21.0074 C.ar      1 UNK         0.0000 
     23 Cl23        5.8453   56.1368   17.4856 Cl        1 UNK         0.0000 
     24 C24         0.3835   52.2322   28.2123 C.ar      1 UNK         0.0000 
     25 C25        -0.5582   51.6968   29.0949 C.ar      1 UNK         0.0000 
     26 C26        -1.8072   51.2972   28.6246 C.ar      1 UNK         0.0000 
     27 C27        -2.1282   51.4720   27.2805 C.ar      1 UNK         0.0000 
     28 C28        -1.2004   52.0195   26.3975 C.ar      1 UNK         0.0000 
     29 C29         0.0600   52.3863   26.8611 C.ar      1 UNK         0.0000 
     30 Br30       -3.8482   50.9621   26.6458 Br        1 UNK         0.0000 
     31 H31         1.3194   56.8206   30.8156 H         1 UNK         0.0000 
     32 H32         1.4772   54.9868   30.6726 H         1 UNK         0.0000 
     33 H33         1.7499   57.0895   28.4819 H         1 UNK         0.0000 
     34 H34         2.8121   55.2778   27.1913 H         1 UNK         0.0000 
     35 H35         1.1304   54.7978   27.3118 H         1 UNK         0.0000 
     36 H36         7.0717   53.6422   27.8533 H         1 UNK         0.0000 
     37 H37         5.6981   52.6649   27.4024 H         1 UNK         0.0000 
     38 H38         4.6062   53.1505   25.4249 H         1 UNK         0.0000 
     39 H39         4.4753   55.2902   23.8703 H         1 UNK         0.0000 
     40 H40         7.9920   55.7199   21.8076 H         1 UNK         0.0000 
     41 H41         7.8679   56.4672   19.4617 H         1 UNK         0.0000 
     42 H42         3.9989   54.6570   19.0717 H         1 UNK         0.0000 
     43 H43         4.0871   53.9258   21.4114 H         1 UNK         0.0000 
     44 H44        -0.3178   51.5597   30.1395 H         1 UNK         0.0000 
     45 H45        -2.5159   50.8412   29.3019 H         1 UNK         0.0000 
     46 H46        -1.4510   52.1388   25.3537 H         1 UNK         0.0000 
     47 H47         0.7893   52.7684   26.1621 H         1 UNK         0.0000 
@<TRIPOS>BOND
     1    1    2 2    
     2    1   31 1    
     3    1   32 1    
     4    2    3 1    
     5    2   33 1    
     6    3    4 1    
     7    3   34 1    
     8    3   35 1    
     9    4    8 ar   
    10    4    5 ar   
    11    5    6 ar   
    12    5   24 1    
    13    6    7 ar   
    14    7    8 ar   
    15    8    9 1    
    16    9   10 1    
    17   10   11 1    
    18   10   36 1    
    19   10   37 1    
    20   11   12 2    
    21   11   13 am   BACKBONE|DICT|INTERRES
    22   13   14 1    
    23   13   38 1    
    24   14   15 am   BACKBONE|DICT|INTERRES
    25   14   39 1    
    26   15   16 2    
    27   15   17 1    
    28   17   22 ar   
    29   17   18 ar   
    30   18   19 ar   
    31   18   40 1    
    32   19   20 ar   
    33   19   41 1    
    34   20   21 ar   
    35   20   23 1    
    36   21   22 ar   
    37   21   42 1    
    38   22   43 1    
    39   24   29 ar   
    40   24   25 ar   
    41   25   26 ar   
    42   25   44 1    
    43   26   27 ar   
    44   26   45 1    
    45   27   28 ar   
    46   27   30 1    
    47   28   29 ar   
    48   28   46 1    
    49   29   47 1    
@<TRIPOS>SUBSTRUCTURE
     1 UNK         1 GROUP             0       ****    0 ROOT    
