ZINC35664797_324
                    3D
 Schrodinger Suite 2024-2.
 73 75  0  0  1  0            999 V2000
    7.0056   54.2706   26.7798 C   0  0  0  0  0  0
    6.7413   55.3046   25.6720 C   0  0  0  0  0  0
    5.4655   55.0717   25.1001 O   0  0  0  0  0  0
    5.2725   54.1862   24.0979 C   0  0  0  0  0  0
    6.2161   53.6974   23.4776 O   0  0  0  0  0  0
    3.8281   53.8971   23.8395 C   0  0  0  0  0  0
    3.3536   53.1140   22.8192 C   0  0  0  0  0  0
    1.9870   52.8405   22.6984 N   0  0  0  0  0  0
    1.0453   53.4484   23.4967 C   0  0  0  0  0  0
   -0.1302   53.1260   23.6801 O   0  0  0  0  0  0
    1.5047   54.4950   24.2081 N   0  0  0  0  0  0
    2.8158   54.4473   24.8802 C   0  0  1  0  0  0
    3.1049   55.4703   25.1094 H   0  0  0  0  0  0
    2.7755   53.8066   26.2938 C   0  0  0  0  0  0
    1.9305   52.7258   26.5979 C   0  0  0  0  0  0
    1.8790   52.2053   27.8901 C   0  0  0  0  0  0
    2.6546   52.7708   28.8966 C   0  0  0  0  0  0
    3.4569   53.8732   28.6282 C   0  0  0  0  0  0
    3.5000   54.3971   27.3400 C   0  0  0  0  0  0
    2.6245   52.2525   30.1460 F   0  0  0  0  0  0
    1.4091   51.7698   21.8485 C   0  0  0  0  0  0
    1.5546   50.3887   22.4736 C   0  0  0  0  0  0
    0.5254   49.6172   22.8486 C   0  0  0  0  0  0
    4.2182   52.5100   21.6885 C   0  0  0  0  0  0
    4.1539   53.3496   20.3852 N   0  3  2  0  0  0
    4.5439   52.4971   19.1546 C   0  0  0  0  0  0
    4.2749   53.1838   17.8013 C   0  0  0  0  0  0
    5.3912   54.1255   17.2926 C   0  0  0  0  0  0
    5.8784   55.1170   18.2742 N   0  0  0  0  0  0
    4.9078   55.5592   19.2817 C   0  0  0  0  0  0
    4.9126   54.6876   20.5527 C   0  0  0  0  0  0
    7.1968   55.4385   18.4173 C   0  0  0  0  0  0
    7.6255   56.0356   19.4100 O   0  0  0  0  0  0
    7.9586   55.2442   17.3197 N   0  0  0  0  0  0
    9.4140   55.3927   17.2037 C   0  0  0  0  0  0
    9.9124   56.8372   17.4033 C   0  0  0  0  0  0
   10.1736   54.3833   18.0814 C   0  0  0  0  0  0
    7.9052   54.4952   27.3410 H   0  0  0  0  0  0
    6.1993   54.2452   27.5097 H   0  0  0  0  0  0
    7.1080   53.2674   26.3669 H   0  0  0  0  0  0
    7.5245   55.2912   24.9135 H   0  0  0  0  0  0
    6.7310   56.3072   26.0938 H   0  0  0  0  0  0
    0.7785   54.9534   24.7404 H   0  0  0  0  0  0
    1.3216   52.2530   25.8451 H   0  0  0  0  0  0
    1.2420   51.3610   28.1084 H   0  0  0  0  0  0
    4.0412   54.3202   29.4181 H   0  0  0  0  0  0
    4.1065   55.2728   27.1647 H   0  0  0  0  0  0
    0.3485   51.9382   21.6481 H   0  0  0  0  0  0
    1.8710   51.7829   20.8622 H   0  0  0  0  0  0
    2.5590   50.0195   22.6275 H   0  0  0  0  0  0
    0.6938   48.6470   23.2952 H   0  0  0  0  0  0
   -0.4964   49.9404   22.7241 H   0  0  0  0  0  0
    5.2758   52.3660   21.8863 H   0  0  0  0  0  0
    3.8749   51.5091   21.4398 H   0  0  0  0  0  0
    5.5823   52.1864   19.2856 H   0  0  0  0  0  0
    3.9014   51.6211   19.2301 H   0  0  0  0  0  0
    4.1181   52.4082   17.0483 H   0  0  0  0  0  0
    3.3252   53.7185   17.8430 H   0  0  0  0  0  0
    4.9565   54.6788   16.4586 H   0  0  0  0  0  0
    6.2114   53.5070   16.9232 H   0  0  0  0  0  0
    3.9125   55.7293   18.8697 H   0  0  0  0  0  0
    5.2140   56.5599   19.5933 H   0  0  0  0  0  0
    4.4151   55.2031   21.3731 H   0  0  0  0  0  0
    5.9233   54.4467   20.8907 H   0  0  0  0  0  0
    7.4867   54.9347   16.4837 H   0  0  0  0  0  0
    9.6416   55.1344   16.1673 H   0  0  0  0  0  0
   10.9947   56.8895   17.2782 H   0  0  0  0  0  0
    9.4701   57.5234   16.6801 H   0  0  0  0  0  0
    9.7095   57.2075   18.4084 H   0  0  0  0  0  0
   11.2509   54.5374   18.0171 H   0  0  0  0  0  0
    9.9074   54.4967   19.1329 H   0  0  0  0  0  0
    9.9850   53.3557   17.7725 H   0  0  0  0  0  0
    3.1797   53.5876   20.2435 H   0  0  0  0  0  0
  1  2  1  0  0  0
  1 38  1  0  0  0
  1 39  1  0  0  0
  1 40  1  0  0  0
  2  3  1  0  0  0
  2 41  1  0  0  0
  2 42  1  0  0  0
  3  4  1  0  0  0
  4  5  2  0  0  0
  4  6  1  0  0  0
  6 12  1  0  0  0
  6  7  2  0  0  0
  7  8  1  0  0  0
  7 24  1  0  0  0
  8  9  1  0  0  0
  8 21  1  0  0  0
  9 10  2  0  0  0
  9 11  1  0  0  0
 11 12  1  0  0  0
 11 43  1  0  0  0
 12 13  1  0  0  0
 12 14  1  0  0  0
 14 19  2  0  0  0
 14 15  1  0  0  0
 15 16  2  0  0  0
 15 44  1  0  0  0
 16 17  1  0  0  0
 16 45  1  0  0  0
 17 18  2  0  0  0
 17 20  1  0  0  0
 18 19  1  0  0  0
 18 46  1  0  0  0
 19 47  1  0  0  0
 21 22  1  0  0  0
 21 48  1  0  0  0
 21 49  1  0  0  0
 22 23  2  0  0  0
 22 50  1  0  0  0
 23 51  1  0  0  0
 23 52  1  0  0  0
 24 25  1  0  0  0
 24 53  1  0  0  0
 24 54  1  0  0  0
 25 31  1  0  0  0
 25 26  1  0  0  0
 25 73  1  0  0  0
 26 27  1  0  0  0
 26 55  1  0  0  0
 26 56  1  0  0  0
 27 28  1  0  0  0
 27 57  1  0  0  0
 27 58  1  0  0  0
 28 29  1  0  0  0
 28 59  1  0  0  0
 28 60  1  0  0  0
 29 30  1  0  0  0
 29 32  1  0  0  0
 30 31  1  0  0  0
 30 61  1  0  0  0
 30 62  1  0  0  0
 31 63  1  0  0  0
 31 64  1  0  0  0
 32 33  2  0  0  0
 32 34  1  0  0  0
 34 35  1  0  0  0
 34 65  1  0  0  0
 35 36  1  0  0  0
 35 37  1  0  0  0
 35 66  1  0  0  0
 36 67  1  0  0  0
 36 68  1  0  0  0
 36 69  1  0  0  0
 37 70  1  0  0  0
 37 71  1  0  0  0
 37 72  1  0  0  0
M  CHG  1  25   1
M  END
> <i_i_glide_confnum>
47

> <i_i_glide_lignum>
325

> <i_i_glide_posenum>
23

> <i_i_glide_rotatable_bonds>
11

> <i_m_Source_File_Index>
68

> <b_m_subgroup_collapsed>
0

> <r_i_docking_score>
-4.92299

> <r_i_glide_ecoul>
-2.74602

> <r_i_glide_eff_state_penalty>
0

> <r_i_glide_einternal>
8.72945

> <r_i_glide_emodel>
-54.3434

> <r_i_glide_energy>
-43.5081

> <r_i_glide_erotb>
0.728039

> <r_i_glide_esite>
-0.0119182

> <r_i_glide_evdw>
-40.7621

> <r_i_glide_gscore>
-4.92299

> <r_i_glide_hbond>
0

> <r_i_glide_ligand_efficiency>
-0.13675

> <r_i_glide_ligand_efficiency_ln>
-1.07406

> <r_i_glide_ligand_efficiency_sa>
-0.451538

> <r_i_glide_lipo>
-2.34502

> <r_i_glide_metal>
0

> <r_i_glide_rewards>
-0.844082

> <s_i_glide_gridfile>
wee1_glide-grid

> <s_m_Source_File>
wee1_decoys_glide_SP.sdf

> <s_m_Source_Path>
/Users/zhangxujun/Desktop

> <s_m_entry_id>
343

> <s_m_entry_name>
wee1_decoys_glide_SP.68

> <s_m_subgroup_title>
wee1_decoys_glide_SP

> <s_m_subgroupid>
wee1_decoys_glide_SP


$$$$
