ZINC19820016_2682
                    3D
 Schrodinger Suite 2024-2.
 60 64  0  0  1  0            999 V2000
   -5.0626   53.8886   24.9407 C   0  0  0  0  0  0
   -4.2191   52.9579   25.6938 N   0  0  0  0  0  0
   -4.8833   52.1697   26.7340 C   0  0  0  0  0  0
   -2.9863   52.4963   25.1518 C   0  0  0  0  0  0
   -2.1689   51.6068   25.8685 C   0  0  0  0  0  0
   -0.9407   51.1923   25.3620 C   0  0  0  0  0  0
   -0.4976   51.6578   24.1220 C   0  0  0  0  0  0
   -1.3094   52.5159   23.3848 C   0  0  0  0  0  0
   -2.5366   52.9302   23.8935 C   0  0  0  0  0  0
    0.8751   51.2421   23.5635 C   0  0  1  0  0  0
    1.2970   50.6006   24.3423 H   0  0  0  0  0  0
    0.8133   50.3874   22.2672 C   0  0  0  0  0  0
    1.6216   50.6656   21.2166 C   0  0  0  0  0  0
    1.6012   49.8938   20.0804 N   0  0  0  0  0  0
    2.2336   50.0848   19.3185 H   0  0  0  0  0  0
    0.7108   48.8327   19.9742 C   0  0  0  0  0  0
   -0.0858   48.5434   20.9441 N   0  0  0  0  0  0
   -0.0552   49.1971   22.1922 C   0  0  0  0  0  0
   -0.6489   48.8274   23.2010 O   0  0  0  0  0  0
    0.6686   48.0586   18.7619 N   0  0  0  0  0  0
   -0.2371   46.9055   18.5749 C   0  0  0  0  0  0
    0.4815   45.6404   18.0663 C   0  0  0  0  0  0
    1.2926   45.9143   16.7960 C   0  0  0  0  0  0
    2.2394   47.0958   17.0293 C   0  0  0  0  0  0
    1.5159   48.3394   17.5853 C   0  0  0  0  0  0
    2.4867   51.7220   21.2170 N   0  0  0  0  0  0
    2.6134   52.6019   22.2691 C   0  0  0  0  0  0
    1.9050   52.4129   23.4230 C   0  0  0  0  0  0
    2.1382   53.2967   24.5986 C   0  0  0  0  0  0
    1.5274   53.1720   25.6595 O   0  0  0  0  0  0
    3.1616   54.4345   24.4424 C   0  0  0  0  0  0
    4.2791   54.0733   23.4490 C   0  0  0  0  0  0
    3.6943   53.6664   22.0883 C   0  0  0  0  0  0
   -5.5104   53.3826   24.0830 H   0  0  0  0  0  0
   -4.4847   54.7348   24.5658 H   0  0  0  0  0  0
   -5.8683   54.2912   25.5562 H   0  0  0  0  0  0
   -4.2585   52.0752   27.6226 H   0  0  0  0  0  0
   -5.8341   52.6113   27.0357 H   0  0  0  0  0  0
   -5.0884   51.1648   26.3657 H   0  0  0  0  0  0
   -2.4583   51.2301   26.8375 H   0  0  0  0  0  0
   -0.3338   50.5133   25.9469 H   0  0  0  0  0  0
   -0.9785   52.8846   22.4262 H   0  0  0  0  0  0
   -3.1220   53.6073   23.2921 H   0  0  0  0  0  0
   -0.7071   46.6347   19.5223 H   0  0  0  0  0  0
   -1.0726   47.2071   17.9390 H   0  0  0  0  0  0
    1.1041   45.2266   18.8586 H   0  0  0  0  0  0
   -0.2580   44.8670   17.8584 H   0  0  0  0  0  0
    0.6190   46.1437   15.9703 H   0  0  0  0  0  0
    1.8544   45.0266   16.4995 H   0  0  0  0  0  0
    2.7069   47.3571   16.0800 H   0  0  0  0  0  0
    3.0721   46.8321   17.6818 H   0  0  0  0  0  0
    0.9317   48.8603   16.8261 H   0  0  0  0  0  0
    2.3031   49.0471   17.8447 H   0  0  0  0  0  0
    3.0217   51.8983   20.3793 H   0  0  0  0  0  0
    2.6117   55.2921   24.0565 H   0  0  0  0  0  0
    3.5444   54.7196   25.4233 H   0  0  0  0  0  0
    4.9768   54.8972   23.3219 H   0  0  0  0  0  0
    4.8829   53.2694   23.8668 H   0  0  0  0  0  0
    3.3357   54.5051   21.4939 H   0  0  0  0  0  0
    4.5403   53.2441   21.5428 H   0  0  0  0  0  0
  1  2  1  0  0  0
  1 34  1  0  0  0
  1 35  1  0  0  0
  1 36  1  0  0  0
  2  3  1  0  0  0
  2  4  1  0  0  0
  3 37  1  0  0  0
  3 38  1  0  0  0
  3 39  1  0  0  0
  4  9  2  0  0  0
  4  5  1  0  0  0
  5  6  2  0  0  0
  5 40  1  0  0  0
  6  7  1  0  0  0
  6 41  1  0  0  0
  7  8  2  0  0  0
  7 10  1  0  0  0
  8  9  1  0  0  0
  8 42  1  0  0  0
  9 43  1  0  0  0
 10 11  1  0  0  0
 10 28  1  0  0  0
 10 12  1  0  0  0
 12 18  1  0  0  0
 12 13  2  0  0  0
 13 14  1  0  0  0
 13 26  1  0  0  0
 14 15  1  0  0  0
 14 16  1  0  0  0
 16 17  2  0  0  0
 16 20  1  0  0  0
 17 18  1  0  0  0
 18 19  2  0  0  0
 20 25  1  0  0  0
 20 21  1  0  0  0
 21 22  1  0  0  0
 21 44  1  0  0  0
 21 45  1  0  0  0
 22 23  1  0  0  0
 22 46  1  0  0  0
 22 47  1  0  0  0
 23 24  1  0  0  0
 23 48  1  0  0  0
 23 49  1  0  0  0
 24 25  1  0  0  0
 24 50  1  0  0  0
 24 51  1  0  0  0
 25 52  1  0  0  0
 25 53  1  0  0  0
 26 27  1  0  0  0
 26 54  1  0  0  0
 27 33  1  0  0  0
 27 28  2  0  0  0
 28 29  1  0  0  0
 29 30  2  0  0  0
 29 31  1  0  0  0
 31 32  1  0  0  0
 31 55  1  0  0  0
 31 56  1  0  0  0
 32 33  1  0  0  0
 32 57  1  0  0  0
 32 58  1  0  0  0
 33 59  1  0  0  0
 33 60  1  0  0  0
M  END
> <i_i_glide_confnum>
5

> <i_i_glide_lignum>
2683

> <i_i_glide_posenum>
216

> <i_i_glide_rotatable_bonds>
3

> <i_m_Source_File_Index>
4465

> <b_m_subgroup_collapsed>
0

> <r_i_docking_score>
-4.0984

> <r_i_glide_ecoul>
-2.01223

> <r_i_glide_eff_state_penalty>
0

> <r_i_glide_einternal>
0.425689

> <r_i_glide_emodel>
-45.3366

> <r_i_glide_energy>
-35.191

> <r_i_glide_erotb>
0.224824

> <r_i_glide_esite>
-0.0478754

> <r_i_glide_evdw>
-33.1787

> <r_i_glide_gscore>
-4.0984

> <r_i_glide_hbond>
0

> <r_i_glide_ligand_efficiency>
-0.132207

> <r_i_glide_ligand_efficiency_ln>
-0.924315

> <r_i_glide_ligand_efficiency_sa>
-0.415311

> <r_i_glide_lipo>
-1.33767

> <r_i_glide_metal>
0

> <r_i_glide_rewards>
-0.976914

> <s_i_glide_gridfile>
wee1_glide-grid

> <s_m_Source_File>
wee1_decoys_glide_SP.sdf

> <s_m_Source_Path>
/Users/zhangxujun/Desktop

> <s_m_entry_id>
4740

> <s_m_entry_name>
wee1_decoys_glide_SP.4465

> <s_m_subgroup_title>
wee1_decoys_glide_SP

> <s_m_subgroupid>
wee1_decoys_glide_SP


$$$$
