@<TRIPOS>MOLECULE
ZINC09319148_3916
38   40    1
SMALL
USER_CHARGES


@<TRIPOS>ATOM
      1 C1          4.5773   54.0954   22.1390 C.ar      1 UNK         0.0000 
      2 C2          4.8521   54.2998   20.7897 C.ar      1 UNK         0.0000 
      3 C3          6.0484   54.9053   20.4135 C.ar      1 UNK         0.0000 
      4 C4          6.9765   55.2971   21.3762 C.ar      1 UNK         0.0000 
      5 C5          6.7047   55.0918   22.7258 C.ar      1 UNK         0.0000 
      6 C6          5.4942   54.4966   23.1153 C.ar      1 UNK         0.0000 
      7 N7          5.1027   54.2720   24.4479 N.am      1 UNK         0.0000 
      8 C8          5.6835   54.6683   25.6055 C.2       1 UNK         0.0000 
      9 O9          6.7387   55.2998   25.6841 O.2       1 UNK         0.0000 
     10 C10         4.9683   54.3062   26.8196 C.2       1 UNK         0.0000 
     11 C11         5.4708   54.4950   28.1105 C.2       1 UNK         0.0000 
     12 S12         4.3035   53.9822   29.2818 S.3       1 UNK         0.0000 
     13 C13         3.2466   53.5470   27.9694 C.2       1 UNK         0.0000 
     14 N14         3.7408   53.7925   26.7798 N.2       1 UNK         0.0000 
     15 N15         1.9880   52.9720   28.1179 N.am      1 UNK         0.0000 
     16 C16         1.3855   52.5401   29.2518 C.2       1 UNK         0.0000 
     17 O17         1.8273   52.7204   30.3852 O.2       1 UNK         0.0000 
     18 N18         0.2113   51.8839   29.0976 N.am      1 UNK         0.0000 
     19 C19        -0.4154   51.4065   27.9271 C.ar      1 UNK         0.0000 
     20 C20         0.3037   50.8981   26.8386 C.ar      1 UNK         0.0000 
     21 C21        -0.3649   50.4243   25.7132 C.ar      1 UNK         0.0000 
     22 C22        -1.7575   50.4371   25.6829 C.ar      1 UNK         0.0000 
     23 C23        -2.4831   50.8993   26.7792 C.ar      1 UNK         0.0000 
     24 C24        -1.8113   51.3702   27.9057 C.ar      1 UNK         0.0000 
     25 Cl25       -2.5895   49.8546   24.2873 Cl        1 UNK         0.0000 
     26 Cl26        6.3929   55.1625   18.7433 Cl        1 UNK         0.0000 
     27 H27         3.6392   53.6339   22.4136 H         1 UNK         0.0000 
     28 H28         4.1359   53.9952   20.0391 H         1 UNK         0.0000 
     29 H29         7.9119   55.7498   21.0790 H         1 UNK         0.0000 
     30 H30         7.4525   55.4034   23.4378 H         1 UNK         0.0000 
     31 H31         4.2397   53.7615   24.5491 H         1 UNK         0.0000 
     32 H32         6.4257   54.8968   28.4183 H         1 UNK         0.0000 
     33 H33         1.4914   52.7871   27.2599 H         1 UNK         0.0000 
     34 H34        -0.3070   51.7227   29.9494 H         1 UNK         0.0000 
     35 H35         1.3778   50.8313   26.8816 H         1 UNK         0.0000 
     36 H36         0.1943   50.0292   24.8779 H         1 UNK         0.0000 
     37 H37        -3.5625   50.8739   26.7653 H         1 UNK         0.0000 
     38 H38        -2.3821   51.6967   28.7622 H         1 UNK         0.0000 
@<TRIPOS>BOND
     1    1    6 ar   
     2    1    2 ar   
     3    1   27 1    
     4    2    3 ar   
     5    2   28 1    
     6    3    4 ar   
     7    3   26 1    
     8    4    5 ar   
     9    4   29 1    
    10    5    6 ar   
    11    5   30 1    
    12    6    7 1    
    13    7    8 am   BACKBONE|DICT|INTERRES
    14    7   31 1    
    15    8    9 2    
    16    8   10 1    
    17   10   14 1    
    18   10   11 2    
    19   11   12 1    
    20   11   32 1    
    21   12   13 1    
    22   13   14 2    
    23   13   15 am   BACKBONE|DICT|INTERRES
    24   15   16 am   BACKBONE|DICT|INTERRES
    25   15   33 1    
    26   16   17 2    
    27   16   18 am   BACKBONE|DICT|INTERRES
    28   18   19 1    
    29   18   34 1    
    30   19   24 ar   
    31   19   20 ar   
    32   20   21 ar   
    33   20   35 1    
    34   21   22 ar   
    35   21   36 1    
    36   22   23 ar   
    37   22   25 1    
    38   23   24 ar   
    39   23   37 1    
    40   24   38 1    
@<TRIPOS>SUBSTRUCTURE
     1 UNK         1 GROUP             0       ****    0 ROOT    
