@<TRIPOS>MOLECULE
ZINC10042285_3153
60   63    1
SMALL
USER_CHARGES


@<TRIPOS>ATOM
      1 C1          3.6142   54.0232   14.4344 C.3       1 UNK         0.0000 
      2 C2          2.6046   53.4356   15.4150 C.ar      1 UNK         0.0000 
      3 C3          1.2648   53.3938   15.0184 C.ar      1 UNK         0.0000 
      4 C4          0.3016   52.7982   15.8270 C.ar      1 UNK         0.0000 
      5 C5          0.6707   52.2216   17.0380 C.ar      1 UNK         0.0000 
      6 C6          2.0020   52.2500   17.4616 C.ar      1 UNK         0.0000 
      7 C7          2.9768   52.8821   16.6630 C.ar      1 UNK         0.0000 
      8 N8          4.3030   52.8968   17.1368 N.am      1 UNK         0.0000 
      9 C9          5.0559   53.9956   17.3430 C.2       1 UNK         0.0000 
     10 O10         4.6788   55.1455   17.1108 O.2       1 UNK         0.0000 
     11 C11         6.4435   53.7402   17.9431 C.3       1 UNK         0.0000 
     12 S12         7.1577   55.1374   18.8879 S.3       1 UNK         0.0000 
     13 C13         6.4411   54.8967   20.4858 C.2       1 UNK         0.0000 
     14 N14         7.0341   55.2968   21.5779 N.2       1 UNK         0.0000 
     15 C15         6.3195   54.9821   22.6901 C.ar      1 UNK         0.0000 
     16 C16         6.6939   55.2964   24.0041 C.ar      1 UNK         0.0000 
     17 C17         5.8082   54.9916   25.0394 C.ar      1 UNK         0.0000 
     18 C18         4.5652   54.3967   24.7950 C.ar      1 UNK         0.0000 
     19 C19         4.1884   54.0581   23.4846 C.ar      1 UNK         0.0000 
     20 C20         5.0775   54.3503   22.4461 C.ar      1 UNK         0.0000 
     21 S21         4.8954   54.0968   20.7257 S.3       1 UNK         0.0000 
     22 N22         3.7475   54.1924   25.9223 N.am      1 UNK         0.0000 
     23 C23         2.5617   53.5528   26.0272 C.2       1 UNK         0.0000 
     24 O24         1.9593   52.9945   25.1102 O.2       1 UNK         0.0000 
     25 C25         2.0113   53.5047   27.4256 C.ar      1 UNK         0.0000 
     26 C26         1.4967   52.3060   27.9262 C.ar      1 UNK         0.0000 
     27 C27         1.0465   52.2300   29.2399 C.ar      1 UNK         0.0000 
     28 C28         1.0780   53.3587   30.0719 C.ar      1 UNK         0.0000 
     29 C29         1.5155   54.5827   29.5586 C.ar      1 UNK         0.0000 
     30 C30         2.0012   54.6438   28.2425 C.ar      1 UNK         0.0000 
     31 O31         1.4596   55.6630   30.4169 O.3       1 UNK         0.0000 
     32 C32         1.9044   56.9271   29.9692 C.3       1 UNK         0.0000 
     33 O33         0.7097   53.3417   31.4010 O.3       1 UNK         0.0000 
     34 C34         0.7044   52.0978   32.0780 C.3       1 UNK         0.0000 
     35 C35         2.3561   51.5960   18.7932 C.3       1 UNK         0.0000 
     36 H36         4.5731   53.5085   14.4982 H         1 UNK         0.0000 
     37 H37         3.2783   53.9044   13.4038 H         1 UNK         0.0000 
     38 H38         3.7685   55.0848   14.6274 H         1 UNK         0.0000 
     39 H39         0.9667   53.8138   14.0687 H         1 UNK         0.0000 
     40 H40        -0.7291   52.7691   15.5059 H         1 UNK         0.0000 
     41 H41        -0.0845   51.7476   17.6476 H         1 UNK         0.0000 
     42 H42         4.6542   52.0030   17.4771 H         1 UNK         0.0000 
     43 H43         6.4469   52.8368   18.5543 H         1 UNK         0.0000 
     44 H44         7.1128   53.5430   17.1065 H         1 UNK         0.0000 
     45 H45         7.6206   55.8067   24.2045 H         1 UNK         0.0000 
     46 H46         6.0891   55.2519   26.0505 H         1 UNK         0.0000 
     47 H47         3.2381   53.6061   23.2486 H         1 UNK         0.0000 
     48 H48         4.1240   54.5364   26.7914 H         1 UNK         0.0000 
     49 H49         1.4669   51.4175   27.3097 H         1 UNK         0.0000 
     50 H50         0.6690   51.2858   29.5957 H         1 UNK         0.0000 
     51 H51         2.3632   55.5794   27.8444 H         1 UNK         0.0000 
     52 H52         1.8106   57.6433   30.7854 H         1 UNK         0.0000 
     53 H53         2.9543   56.8967   29.6795 H         1 UNK         0.0000 
     54 H54         1.3114   57.2937   29.1304 H         1 UNK         0.0000 
     55 H55         0.5314   52.2706   33.1391 H         1 UNK         0.0000 
     56 H56        -0.0955   51.4709   31.6817 H         1 UNK         0.0000 
     57 H57         1.6610   51.5822   31.9852 H         1 UNK         0.0000 
     58 H58         3.1021   50.8146   18.6397 H         1 UNK         0.0000 
     59 H59         2.7851   52.3332   19.4720 H         1 UNK         0.0000 
     60 H60         1.4919   51.1464   19.2820 H         1 UNK         0.0000 
@<TRIPOS>BOND
     1    1    2 1    
     2    1   36 1    
     3    1   37 1    
     4    1   38 1    
     5    2    7 ar   
     6    2    3 ar   
     7    3    4 ar   
     8    3   39 1    
     9    4    5 ar   
    10    4   40 1    
    11    5    6 ar   
    12    5   41 1    
    13    6    7 ar   
    14    6   35 1    
    15    7    8 1    
    16    8    9 am   BACKBONE|DICT|INTERRES
    17    8   42 1    
    18    9   10 2    
    19    9   11 1    
    20   11   12 1    
    21   11   43 1    
    22   11   44 1    
    23   12   13 1    
    24   13   21 1    
    25   13   14 2    
    26   14   15 1    
    27   15   20 ar   
    28   15   16 ar   
    29   16   17 ar   
    30   16   45 1    
    31   17   18 ar   
    32   17   46 1    
    33   18   19 ar   
    34   18   22 1    
    35   19   20 ar   
    36   19   47 1    
    37   20   21 1    
    38   22   23 am   BACKBONE|DICT|INTERRES
    39   22   48 1    
    40   23   24 2    
    41   23   25 1    
    42   25   30 ar   
    43   25   26 ar   
    44   26   27 ar   
    45   26   49 1    
    46   27   28 ar   
    47   27   50 1    
    48   28   29 ar   
    49   28   33 1    
    50   29   30 ar   
    51   29   31 1    
    52   30   51 1    
    53   31   32 1    
    54   32   52 1    
    55   32   53 1    
    56   32   54 1    
    57   33   34 1    
    58   34   55 1    
    59   34   56 1    
    60   34   57 1    
    61   35   58 1    
    62   35   59 1    
    63   35   60 1    
@<TRIPOS>SUBSTRUCTURE
     1 UNK         1 GROUP             0       ****    0 ROOT    
