ZINC66354559_4462
                    3D
 Schrodinger Suite 2024-2.
 52 55  0  0  1  0            999 V2000
    0.2940   52.6108   30.2831 C   0  0  0  0  0  0
    0.4272   54.1364   30.0869 C   0  0  0  0  0  0
    1.7022   54.6448   29.3600 C   0  0  2  0  0  0
    1.7848   54.0955   27.9024 C   0  0  0  0  0  0
    3.1998   54.1707   27.3556 C   0  0  0  0  0  0
    4.2696   54.2653   28.1713 C   0  0  0  0  0  0
    4.1415   54.3300   29.6713 C   0  0  0  0  0  0
    2.7964   54.0953   30.0979 O   0  0  0  0  0  0
    5.8457   54.3053   27.3141 S   0  0  0  0  0  0
    4.9540   54.6634   25.7943 C   0  0  2  0  0  0
    4.7260   55.7317   25.8281 H   0  0  0  0  0  0
    3.6828   53.8081   25.9730 C   0  0  2  0  0  0
    3.9844   52.7711   26.0658 H   0  0  0  0  0  0
    2.8878   53.8820   24.6580 C   0  0  0  0  0  0
    3.4920   54.0191   23.5357 N   0  0  0  0  0  0
    4.8907   54.0968   23.5580 C   0  0  0  0  0  0
    5.6604   54.4147   24.5404 N   0  0  0  0  0  0
    5.8126   53.7017   22.0776 S   0  0  0  0  0  0
    4.5609   53.6159   20.7472 C   0  0  0  0  0  0
    5.1375   54.1835   19.4475 C   0  0  0  0  0  0
    5.2103   55.4059   19.3230 O   0  0  0  0  0  0
    5.5836   53.2968   18.5283 N   0  0  0  0  0  0
    6.2241   53.5791   17.3067 C   0  0  0  0  0  0
    7.1048   52.6082   16.8229 C   0  0  0  0  0  0
    7.7730   52.8041   15.6177 C   0  0  0  0  0  0
    7.5548   53.9711   14.8892 C   0  0  0  0  0  0
    6.6695   54.9408   15.3549 C   0  0  0  0  0  0
    6.0002   54.7464   16.5606 C   0  0  0  0  0  0
    8.3819   54.2148   13.3944 Cl  0  0  0  0  0  0
    1.5314   53.6966   24.6511 N   0  0  0  0  0  0
    1.8061   56.1897   29.3777 C   0  0  0  0  0  0
    0.1801   52.0751   29.3414 H   0  0  0  0  0  0
    1.1570   52.1961   30.8049 H   0  0  0  0  0  0
   -0.5856   52.3759   30.8832 H   0  0  0  0  0  0
   -0.4566   54.4966   29.5638 H   0  0  0  0  0  0
    0.3837   54.6018   31.0733 H   0  0  0  0  0  0
    1.4621   53.0576   27.8449 H   0  0  0  0  0  0
    1.1044   54.6355   27.2593 H   0  0  0  0  0  0
    4.7044   53.5014   30.0814 H   0  0  0  0  0  0
    4.5518   55.2532   30.0747 H   0  0  0  0  0  0
    4.2440   52.5815   20.6112 H   0  0  0  0  0  0
    3.6722   54.1987   20.9904 H   0  0  0  0  0  0
    5.5044   52.3050   18.7302 H   0  0  0  0  0  0
    7.2747   51.6972   17.3783 H   0  0  0  0  0  0
    8.4552   52.0515   15.2504 H   0  0  0  0  0  0
    6.4974   55.8398   14.7818 H   0  0  0  0  0  0
    5.3041   55.5018   16.8925 H   0  0  0  0  0  0
    1.0527   53.6525   23.7652 H   0  0  0  0  0  0
    1.0382   53.4608   25.4976 H   0  0  0  0  0  0
    1.8363   56.5682   30.4000 H   0  0  0  0  0  0
    2.7044   56.5501   28.8820 H   0  0  0  0  0  0
    0.9549   56.6558   28.8840 H   0  0  0  0  0  0
  1  2  1  0  0  0
  1 32  1  0  0  0
  1 33  1  0  0  0
  1 34  1  0  0  0
  2  3  1  0  0  0
  2 35  1  0  0  0
  2 36  1  0  0  0
  3  8  1  0  0  0
  3  4  1  0  0  0
  3 31  1  0  0  0
  4  5  1  0  0  0
  4 37  1  0  0  0
  4 38  1  0  0  0
  5 12  1  0  0  0
  5  6  2  0  0  0
  6  7  1  0  0  0
  6  9  1  0  0  0
  7  8  1  0  0  0
  7 39  1  0  0  0
  7 40  1  0  0  0
  9 10  1  0  0  0
 10 11  1  0  0  0
 10 17  1  0  0  0
 10 12  1  0  0  0
 12 13  1  0  0  0
 12 14  1  0  0  0
 14 15  2  0  0  0
 14 30  1  0  0  0
 15 16  1  0  0  0
 16 17  2  0  0  0
 16 18  1  0  0  0
 18 19  1  0  0  0
 19 20  1  0  0  0
 19 41  1  0  0  0
 19 42  1  0  0  0
 20 21  2  0  0  0
 20 22  1  0  0  0
 22 23  1  0  0  0
 22 43  1  0  0  0
 23 28  2  0  0  0
 23 24  1  0  0  0
 24 25  2  0  0  0
 24 44  1  0  0  0
 25 26  1  0  0  0
 25 45  1  0  0  0
 26 27  2  0  0  0
 26 29  1  0  0  0
 27 28  1  0  0  0
 27 46  1  0  0  0
 28 47  1  0  0  0
 30 48  1  0  0  0
 30 49  1  0  0  0
 31 50  1  0  0  0
 31 51  1  0  0  0
 31 52  1  0  0  0
M  END
> <i_i_glide_confnum>
11

> <i_i_glide_lignum>
4463

> <i_i_glide_posenum>
343

> <i_i_glide_rotatable_bonds>
6

> <i_m_Source_File_Index>
4980

> <b_m_subgroup_collapsed>
0

> <r_i_docking_score>
-6.51701

> <r_i_glide_ecoul>
-5.53175

> <r_i_glide_eff_state_penalty>
0

> <r_i_glide_einternal>
6.29748

> <r_i_glide_emodel>
-59.3605

> <r_i_glide_energy>
-42.6884

> <r_i_glide_erotb>
0.394354

> <r_i_glide_esite>
-0.090993

> <r_i_glide_evdw>
-37.1567

> <r_i_glide_gscore>
-6.51701

> <r_i_glide_hbond>
-0.456

> <r_i_glide_ligand_efficiency>
-0.224724

> <r_i_glide_ligand_efficiency_ln>
-1.49223

> <r_i_glide_ligand_efficiency_sa>
-0.690425

> <r_i_glide_lipo>
-2.60224

> <r_i_glide_metal>
0

> <r_i_glide_rewards>
-1.07454

> <s_i_glide_gridfile>
wee1_glide-grid

> <s_m_Source_File>
wee1_decoys_glide_SP.sdf

> <s_m_Source_Path>
/Users/zhangxujun/Desktop

> <s_m_entry_id>
5255

> <s_m_entry_name>
wee1_decoys_glide_SP.4980

> <s_m_subgroup_title>
wee1_decoys_glide_SP

> <s_m_subgroupid>
wee1_decoys_glide_SP


$$$$
