@<TRIPOS>MOLECULE
ZINC36690277_1092
71   74    1
SMALL
USER_CHARGES


@<TRIPOS>ATOM
      1 C1          2.5719   50.2567   20.0494 C.3       1 UNK         0.0000 
      2 C2          2.1236   50.8640   18.7133 C.3       1 UNK         0.0000 
      3 N3          2.9413   52.1235   18.3092 N.4       1 UNK         0.0000 
      4 C4          2.3953   52.7816   17.0137 C.3       1 UNK         0.0000 
      5 C5          2.3886   51.7958   15.8381 C.3       1 UNK         0.0000 
      6 C6          3.1103   53.1844   19.4294 C.3       1 UNK         0.0000 
      7 C7          4.3555   52.8469   20.2802 C.3       1 UNK         0.0000 
      8 N8          5.1053   54.0145   20.7929 N.am      1 UNK         0.0000 
      9 C9          5.0686   54.1894   22.1820 C.2       1 UNK         0.0000 
     10 N10         6.1177   54.4256   22.9284 N.2       1 UNK         0.0000 
     11 C11         5.7869   54.4917   24.2445 C.ar      1 UNK         0.0000 
     12 C12         6.7045   54.7028   25.2785 C.ar      1 UNK         0.0000 
     13 C13         6.2418   54.6950   26.5961 C.ar      1 UNK         0.0000 
     14 C14         4.8907   54.4965   26.8800 C.ar      1 UNK         0.0000 
     15 C15         3.9489   54.3119   25.8647 C.ar      1 UNK         0.0000 
     16 C16         4.4110   54.3062   24.5416 C.ar      1 UNK         0.0000 
     17 S17         3.5316   54.0894   23.0348 S.3       1 UNK         0.0000 
     18 C18         5.8014   54.8939   19.9980 C.2       1 UNK         0.0000 
     19 O19         6.3601   55.9100   20.4263 O.2       1 UNK         0.0000 
     20 C20         5.8257   54.6650   18.5030 C.ar      1 UNK         0.0000 
     21 C21         5.3643   55.6770   17.6527 C.ar      1 UNK         0.0000 
     22 C22         5.3130   55.4660   16.2779 C.ar      1 UNK         0.0000 
     23 C23         5.7206   54.2442   15.7388 C.ar      1 UNK         0.0000 
     24 C24         6.2313   53.2500   16.5747 C.ar      1 UNK         0.0000 
     25 C25         6.2982   53.4666   17.9484 C.ar      1 UNK         0.0000 
     26 S26         5.5382   54.0246   13.9659 S.o2      1 UNK         0.0000 
     27 O27         4.0921   54.0732   13.7195 O.2       1 UNK         0.0000 
     28 O28         6.4310   55.0163   13.3549 O.2       1 UNK         0.0000 
     29 N29         6.1173   52.4069   13.5015 N.pl3     1 UNK         0.0000 
     30 C30         7.5756   52.1365   13.5119 C.3       1 UNK         0.0000 
     31 C31         7.8683   50.9345   12.5901 C.3       1 UNK         0.0000 
     32 H32         7.6278   51.1783   11.5526 H         1 UNK         0.0000 
     33 O33         7.0750   49.8268   13.0167 O.3       1 UNK         0.0000 
     34 C34         5.6672   50.0434   12.8976 C.3       1 UNK         0.0000 
     35 H35         5.4306   50.2615   11.8535 H         1 UNK         0.0000 
     36 C36         5.2656   51.2302   13.8032 C.3       1 UNK         0.0000 
     37 C37         4.9271   48.7577   13.2903 C.3       1 UNK         0.0000 
     38 C38         9.3392   50.5186   12.6467 C.3       1 UNK         0.0000 
     39 H39         2.0988   49.2882   20.2091 H         1 UNK         0.0000 
     40 H40         3.6461   50.0971   20.0612 H         1 UNK         0.0000 
     41 H41         2.3065   50.8869   20.8973 H         1 UNK         0.0000 
     42 H42         1.0738   51.1598   18.7256 H         1 UNK         0.0000 
     43 H43         2.2975   50.1422   17.9128 H         1 UNK         0.0000 
     44 H44         1.4039   53.1737   17.2456 H         1 UNK         0.0000 
     45 H45         3.0704   53.6112   16.7970 H         1 UNK         0.0000 
     46 H46         2.1998   52.3152   14.8983 H         1 UNK         0.0000 
     47 H47         3.3525   51.2970   15.7547 H         1 UNK         0.0000 
     48 H48         1.6236   51.0280   15.9433 H         1 UNK         0.0000 
     49 H49         2.1808   53.2121   19.9988 H         1 UNK         0.0000 
     50 H50         3.2148   54.1504   18.9361 H         1 UNK         0.0000 
     51 H51         5.0360   52.1801   19.7531 H         1 UNK         0.0000 
     52 H52         4.0297   52.2407   21.1244 H         1 UNK         0.0000 
     53 H53         7.7472   54.8421   25.0402 H         1 UNK         0.0000 
     54 H54         6.9358   54.8418   27.4139 H         1 UNK         0.0000 
     55 H55         4.5675   54.4924   27.9108 H         1 UNK         0.0000 
     56 H56         2.9037   54.1603   26.0939 H         1 UNK         0.0000 
     57 H57         5.0193   56.6208   18.0529 H         1 UNK         0.0000 
     58 H58         4.9350   56.2468   15.6332 H         1 UNK         0.0000 
     59 H59         6.5632   52.3004   16.1904 H         1 UNK         0.0000 
     60 H60         6.6999   52.6799   18.5673 H         1 UNK         0.0000 
     61 H61         8.1278   53.0244   13.2046 H         1 UNK         0.0000 
     62 H62         7.8558   51.8229   14.5173 H         1 UNK         0.0000 
     63 H63         5.4767   50.9169   14.8260 H         1 UNK         0.0000 
     64 H64         4.2157   51.4868   13.6581 H         1 UNK         0.0000 
     65 H65         3.8491   48.8671   13.1602 H         1 UNK         0.0000 
     66 H66         5.2546   47.9166   12.6784 H         1 UNK         0.0000 
     67 H67         5.1050   48.4972   14.3335 H         1 UNK         0.0000 
     68 H68        10.0007   51.3384   12.3605 H         1 UNK         0.0000 
     69 H69         9.6266   50.1814   13.6447 H         1 UNK         0.0000 
     70 H70         9.5166   49.6965   11.9556 H         1 UNK         0.0000 
     71 H71         3.8752   51.7836   18.0849 H         1 UNK         0.0000 
@<TRIPOS>BOND
     1    1    2 1    
     2    1   39 1    
     3    1   40 1    
     4    1   41 1    
     5    2    3 1    
     6    2   42 1    
     7    2   43 1    
     8    3    4 1    
     9    3    6 1    
    10    3   71 1    
    11    4    5 1    
    12    4   44 1    
    13    4   45 1    
    14    5   46 1    
    15    5   47 1    
    16    5   48 1    
    17    6    7 1    
    18    6   49 1    
    19    6   50 1    
    20    7    8 1    
    21    7   51 1    
    22    7   52 1    
    23    8    9 am   BACKBONE|DICT|INTERRES
    24    8   18 am   BACKBONE|DICT|INTERRES
    25    9   17 1    
    26    9   10 2    
    27   10   11 1    
    28   11   16 ar   
    29   11   12 ar   
    30   12   13 ar   
    31   12   53 1    
    32   13   14 ar   
    33   13   54 1    
    34   14   15 ar   
    35   14   55 1    
    36   15   16 ar   
    37   15   56 1    
    38   16   17 1    
    39   18   19 2    
    40   18   20 1    
    41   20   25 ar   
    42   20   21 ar   
    43   21   22 ar   
    44   21   57 1    
    45   22   23 ar   
    46   22   58 1    
    47   23   24 ar   
    48   23   26 1    
    49   24   25 ar   
    50   24   59 1    
    51   25   60 1    
    52   26   27 2    
    53   26   28 2    
    54   26   29 1    
    55   29   36 1    
    56   29   30 1    
    57   30   31 1    
    58   30   61 1    
    59   30   62 1    
    60   31   32 1    
    61   31   33 1    
    62   31   38 1    
    63   33   34 1    
    64   34   35 1    
    65   34   36 1    
    66   34   37 1    
    67   36   63 1    
    68   36   64 1    
    69   37   65 1    
    70   37   66 1    
    71   37   67 1    
    72   38   68 1    
    73   38   69 1    
    74   38   70 1    
@<TRIPOS>SUBSTRUCTURE
     1 UNK         1 GROUP             0       ****    0 ROOT    
