ZINC09033668_5428
                    3D
 Schrodinger Suite 2024-2.
 83 89  0  0  1  0            999 V2000
    1.8554   54.7591   27.9382 C   0  0  0  0  0  0
    2.3925   53.4092   27.3884 C   0  0  2  0  0  0
    3.1993   52.7191   28.5377 C   0  0  0  0  0  0
    4.5339   53.3932   28.9111 C   0  0  0  0  0  0
    5.4227   53.5439   27.6687 C   0  0  1  0  0  0
    5.6151   52.5507   27.2592 H   0  0  0  0  0  0
    4.7013   54.3601   26.5792 C   0  0  0  0  0  0
    3.3660   53.6968   26.2114 C   0  0  0  0  0  0
    3.1107   53.3412   24.9349 C   0  0  0  0  0  0
    1.9108   52.5771   24.4238 C   0  0  0  0  0  0
    0.7548   52.5765   25.4409 C   0  0  2  0  0  0
    0.3043   53.5508   25.2849 H   0  0  0  0  0  0
    1.2280   52.4325   26.9255 C   0  0  2  0  0  0
    1.6020   51.4133   27.0074 H   0  0  0  0  0  0
   -0.0179   52.5167   27.8413 C   0  0  0  0  0  0
   -1.0229   51.4046   27.5381 C   0  0  0  0  0  0
   -1.5253   51.3881   26.0624 C   0  0  1  0  0  0
   -0.3378   51.5142   25.0608 C   0  0  2  0  0  0
   -0.7424   51.8481   24.1009 H   0  0  0  0  0  0
    0.1295   50.0731   24.8176 C   0  0  0  0  0  0
   -1.1381   49.2787   25.0261 C   0  0  0  0  0  0
   -2.0702   49.9999   25.6816 C   0  0  0  0  0  0
   -3.3888   49.4934   26.0869 C   0  0  0  0  0  0
   -4.0256   48.7163   25.3739 O   0  0  0  0  0  0
   -3.9501   49.9073   27.4626 C   0  0  0  0  0  0
   -5.4298   49.5508   27.7651 C   0  0  2  0  0  0
   -5.8760   48.8463   27.0576 H   0  0  0  0  0  0
   -6.3325   50.8131   27.8298 C   0  0  0  0  0  0
   -7.0899   51.1323   28.9957 C   0  0  0  0  0  0
   -7.9182   52.2665   29.0093 C   0  0  0  0  0  0
   -7.9732   53.0720   27.8848 C   0  0  0  0  0  0
   -7.2637   52.7817   26.7605 C   0  0  0  0  0  0
   -6.4496   51.6439   26.6857 C   0  0  0  0  0  0
   -5.7589   51.2785   25.5444 O   0  0  0  0  0  0
   -5.8183   52.0682   24.3626 C   0  0  0  0  0  0
   -7.5455   53.7287   25.8195 O   0  0  0  0  0  0
   -8.2727   54.7292   26.4725 C   0  0  0  0  0  0
   -8.7212   54.1892   27.6834 O   0  0  0  0  0  0
   -7.0190   50.2538   30.2387 C   0  0  0  0  0  0
   -6.7252   48.7949   29.8805 C   0  0  0  0  0  0
   -4.8915   47.3361   28.9312 C   0  0  0  0  0  0
   -2.5439   52.5278   25.7875 C   0  0  0  0  0  0
    6.6886   54.0968   27.9762 O   0  0  0  0  0  0
    1.3707   54.6378   28.9093 H   0  0  0  0  0  0
    2.6272   55.5145   28.0757 H   0  0  0  0  0  0
    1.1045   55.1777   27.2826 H   0  0  0  0  0  0
    2.5821   52.6319   29.4331 H   0  0  0  0  0  0
    3.4269   51.6970   28.2564 H   0  0  0  0  0  0
    5.0383   52.8046   29.6793 H   0  0  0  0  0  0
    4.3336   54.3718   29.3487 H   0  0  0  0  0  0
    5.3484   54.4416   25.7044 H   0  0  0  0  0  0
    4.5340   55.3754   26.9203 H   0  0  0  0  0  0
    3.8721   53.5691   24.2038 H   0  0  0  0  0  0
    2.2338   51.5716   24.1570 H   0  0  0  0  0  0
    1.5731   53.0342   23.4923 H   0  0  0  0  0  0
    0.2926   52.4038   28.8802 H   0  0  0  0  0  0
   -0.4893   53.4993   27.7996 H   0  0  0  0  0  0
   -1.8483   51.4726   28.2447 H   0  0  0  0  0  0
   -0.5291   50.4590   27.7626 H   0  0  0  0  0  0
    0.9177   49.7538   25.4992 H   0  0  0  0  0  0
    0.5136   49.9509   23.8038 H   0  0  0  0  0  0
   -1.2335   48.2550   24.6923 H   0  0  0  0  0  0
   -3.8207   50.9689   27.6237 H   0  0  0  0  0  0
   -3.2955   49.4456   28.1963 H   0  0  0  0  0  0
   -8.5038   52.5093   29.8837 H   0  0  0  0  0  0
   -5.1804   51.6131   23.6065 H   0  0  0  0  0  0
   -6.8312   52.1128   23.9581 H   0  0  0  0  0  0
   -5.4466   53.0790   24.5336 H   0  0  0  0  0  0
   -7.6236   55.5828   26.6756 H   0  0  0  0  0  0
   -9.1129   55.0519   25.8579 H   0  0  0  0  0  0
   -6.2433   50.6319   30.9065 H   0  0  0  0  0  0
   -7.9528   50.3062   30.8011 H   0  0  0  0  0  0
   -7.4887   48.3308   29.2504 H   0  0  0  0  0  0
   -6.5839   48.2061   30.7903 H   0  0  0  0  0  0
   -5.6302   46.7961   28.3368 H   0  0  0  0  0  0
   -3.9213   47.3573   28.4302 H   0  0  0  0  0  0
   -4.7760   46.9015   29.9242 H   0  0  0  0  0  0
   -2.0966   53.4861   26.0210 H   0  0  0  0  0  0
   -2.8653   52.5530   24.7452 H   0  0  0  0  0  0
   -3.4438   52.4799   26.3930 H   0  0  0  0  0  0
    6.5939   54.8038   28.6235 H   0  0  0  0  0  0
   -5.3863   48.7925   29.1221 N   0  3  1  0  0  0
   -4.6992   49.2551   29.7053 H   0  0  0  0  0  0
  1  2  1  0  0  0
  1 44  1  0  0  0
  1 45  1  0  0  0
  1 46  1  0  0  0
  2  8  1  0  0  0
  2 13  1  0  0  0
  2  3  1  0  0  0
  3  4  1  0  0  0
  3 47  1  0  0  0
  3 48  1  0  0  0
  4  5  1  0  0  0
  4 49  1  0  0  0
  4 50  1  0  0  0
  5  6  1  0  0  0
  5  7  1  0  0  0
  5 43  1  0  0  0
  7  8  1  0  0  0
  7 51  1  0  0  0
  7 52  1  0  0  0
  8  9  2  0  0  0
  9 10  1  0  0  0
  9 53  1  0  0  0
 10 11  1  0  0  0
 10 54  1  0  0  0
 10 55  1  0  0  0
 11 12  1  0  0  0
 11 18  1  0  0  0
 11 13  1  0  0  0
 13 14  1  0  0  0
 13 15  1  0  0  0
 15 16  1  0  0  0
 15 56  1  0  0  0
 15 57  1  0  0  0
 16 17  1  0  0  0
 16 58  1  0  0  0
 16 59  1  0  0  0
 17 22  1  0  0  0
 17 18  1  0  0  0
 17 42  1  0  0  0
 18 19  1  0  0  0
 18 20  1  0  0  0
 20 21  1  0  0  0
 20 60  1  0  0  0
 20 61  1  0  0  0
 21 22  2  0  0  0
 21 62  1  0  0  0
 22 23  1  0  0  0
 23 24  2  0  0  0
 23 25  1  0  0  0
 25 26  1  0  0  0
 25 63  1  0  0  0
 25 64  1  0  0  0
 26 27  1  0  0  0
 26 28  1  0  0  0
 26 82  1  0  0  0
 28 33  2  0  0  0
 28 29  1  0  0  0
 29 30  2  0  0  0
 29 39  1  0  0  0
 30 31  1  0  0  0
 30 65  1  0  0  0
 31 38  1  0  0  0
 31 32  2  0  0  0
 32 33  1  0  0  0
 32 36  1  0  0  0
 33 34  1  0  0  0
 34 35  1  0  0  0
 35 66  1  0  0  0
 35 67  1  0  0  0
 35 68  1  0  0  0
 36 37  1  0  0  0
 37 38  1  0  0  0
 37 69  1  0  0  0
 37 70  1  0  0  0
 39 40  1  0  0  0
 39 71  1  0  0  0
 39 72  1  0  0  0
 40 73  1  0  0  0
 40 74  1  0  0  0
 40 82  1  0  0  0
 41 75  1  0  0  0
 41 76  1  0  0  0
 41 77  1  0  0  0
 41 82  1  0  0  0
 42 78  1  0  0  0
 42 79  1  0  0  0
 42 80  1  0  0  0
 43 81  1  0  0  0
 82 83  1  0  0  0
M  CHG  1  82   1
M  END
> <i_i_glide_confnum>
27

> <i_i_glide_lignum>
5429

> <i_i_glide_posenum>
319

> <i_i_glide_rotatable_bonds>
5

> <i_m_Source_File_Index>
1544

> <b_m_subgroup_collapsed>
0

> <r_i_docking_score>
-4.40838

> <r_i_glide_ecoul>
-3.22889

> <r_i_glide_eff_state_penalty>
0

> <r_i_glide_einternal>
4.95082

> <r_i_glide_emodel>
-39.966

> <r_i_glide_energy>
-32.2217

> <r_i_glide_erotb>
0.216571

> <r_i_glide_esite>
-0.103956

> <r_i_glide_evdw>
-28.9928

> <r_i_glide_gscore>
-4.40838

> <r_i_glide_hbond>
-0.216223

> <r_i_glide_ligand_efficiency>
-0.113035

> <r_i_glide_ligand_efficiency_ln>
-0.945282

> <r_i_glide_ligand_efficiency_sa>
-0.383327

> <r_i_glide_lipo>
-2.28167

> <r_i_glide_metal>
0

> <r_i_glide_rewards>
-0.0891262

> <s_i_glide_gridfile>
wee1_glide-grid

> <s_m_Source_File>
wee1_decoys_glide_SP.sdf

> <s_m_Source_Path>
/Users/zhangxujun/Desktop

> <s_m_entry_id>
1819

> <s_m_entry_name>
wee1_decoys_glide_SP.1544

> <s_m_subgroup_title>
wee1_decoys_glide_SP

> <s_m_subgroupid>
wee1_decoys_glide_SP


$$$$
