ZINC09309437_4013
                    3D
 Schrodinger Suite 2024-2.
 58 64  0  0  1  0            999 V2000
    3.8579   54.0961   23.1492 C   0  0  0  0  0  0
    2.5498   54.1168   23.6291 C   0  0  0  0  0  0
    1.5855   53.2826   23.0663 C   0  0  0  0  0  0
    1.9200   52.3958   22.0332 C   0  0  0  0  0  0
    3.2480   52.3823   21.5543 C   0  0  0  0  0  0
    4.2058   53.2369   22.1080 C   0  0  0  0  0  0
    3.6408   51.4673   20.4820 C   0  0  0  0  0  0
    2.7779   50.5812   19.9709 C   0  0  0  0  0  0
    1.3386   50.4970   20.4696 C   0  0  1  0  0  0
    1.2929   49.5616   21.0288 H   0  0  0  0  0  0
    0.9485   51.5572   21.4319 N   0  0  0  0  0  0
   -0.5062   51.7077   21.3300 C   0  0  1  0  0  0
   -0.6635   52.7368   21.0135 H   0  0  0  0  0  0
   -1.0258   50.7216   20.2548 C   0  0  2  0  0  0
   -1.3216   49.8088   20.7701 H   0  0  0  0  0  0
    0.2314   50.4432   19.3779 C   0  0  1  0  0  0
    0.4970   51.3055   18.1669 C   0  0  0  0  0  0
    0.6828   52.6817   18.0406 C   0  0  0  0  0  0
    0.9568   53.2297   16.7850 C   0  0  0  0  0  0
    1.0510   52.3962   15.6652 C   0  0  0  0  0  0
    0.8818   51.0140   15.7978 C   0  0  0  0  0  0
    0.6079   50.4868   17.0599 C   0  0  0  0  0  0
    0.4313   49.1677   17.4434 N   0  0  0  0  0  0
    0.1844   49.0232   18.7571 C   0  0  0  0  0  0
   -0.0193   47.9666   19.3581 O   0  0  0  0  0  0
   -2.2558   51.2790   19.4707 C   0  0  0  0  0  0
   -2.3415   52.4966   19.2802 O   0  0  0  0  0  0
   -3.3214   50.3290   18.9979 C   0  0  0  0  0  0
   -4.3970   50.8342   18.2451 C   0  0  0  0  0  0
   -5.3939   49.9617   17.8046 C   0  0  0  0  0  0
   -5.3812   48.6334   18.0705 N   0  0  0  0  0  0
   -4.3455   48.1475   18.7971 C   0  0  0  0  0  0
   -3.3070   48.9500   19.2753 C   0  0  0  0  0  0
   -1.2648   51.5410   22.6714 C   0  0  0  0  0  0
   -2.1218   52.3893   22.9299 O   0  0  0  0  0  0
   -1.0238   50.3966   23.5585 C   0  0  0  0  0  0
    0.0720   49.5343   23.6698 C   0  0  0  0  0  0
   -0.0973   48.5369   24.6324 C   0  0  0  0  0  0
   -1.3160   48.6311   25.2814 C   0  0  0  0  0  0
   -2.2543   49.9719   24.7198 S   0  0  0  0  0  0
    4.6030   54.7457   23.5815 H   0  0  0  0  0  0
    2.2800   54.7917   24.4288 H   0  0  0  0  0  0
    0.5799   53.3342   23.4497 H   0  0  0  0  0  0
    5.2228   53.2297   21.7408 H   0  0  0  0  0  0
    4.6445   51.5022   20.0834 H   0  0  0  0  0  0
    3.1073   49.9245   19.1783 H   0  0  0  0  0  0
    0.6387   53.3117   18.9129 H   0  0  0  0  0  0
    1.1079   54.2949   16.6840 H   0  0  0  0  0  0
    1.2712   52.8198   14.6958 H   0  0  0  0  0  0
    0.9756   50.3758   14.9313 H   0  0  0  0  0  0
    0.5061   48.3824   16.8137 H   0  0  0  0  0  0
   -4.4655   51.8839   17.9958 H   0  0  0  0  0  0
   -6.2268   50.3249   17.2211 H   0  0  0  0  0  0
   -4.3565   47.0865   18.9959 H   0  0  0  0  0  0
   -2.5245   48.4736   19.8457 H   0  0  0  0  0  0
    0.9825   49.6084   23.1021 H   0  0  0  0  0  0
    0.6471   47.7868   24.8589 H   0  0  0  0  0  0
   -1.6838   48.0071   26.0834 H   0  0  0  0  0  0
  1  6  2  0  0  0
  1  2  1  0  0  0
  1 41  1  0  0  0
  2  3  2  0  0  0
  2 42  1  0  0  0
  3  4  1  0  0  0
  3 43  1  0  0  0
  4 11  1  0  0  0
  4  5  2  0  0  0
  5  6  1  0  0  0
  5  7  1  0  0  0
  6 44  1  0  0  0
  7  8  2  0  0  0
  7 45  1  0  0  0
  8  9  1  0  0  0
  8 46  1  0  0  0
  9 10  1  0  0  0
  9 16  1  0  0  0
  9 11  1  0  0  0
 11 12  1  0  0  0
 12 13  1  0  0  0
 12 14  1  0  0  0
 12 34  1  0  0  0
 14 15  1  0  0  0
 14 16  1  0  0  0
 14 26  1  0  0  0
 16 24  1  0  0  0
 16 17  1  0  0  0
 17 22  2  0  0  0
 17 18  1  0  0  0
 18 19  2  0  0  0
 18 47  1  0  0  0
 19 20  1  0  0  0
 19 48  1  0  0  0
 20 21  2  0  0  0
 20 49  1  0  0  0
 21 22  1  0  0  0
 21 50  1  0  0  0
 22 23  1  0  0  0
 23 24  1  0  0  0
 23 51  1  0  0  0
 24 25  2  0  0  0
 26 27  2  0  0  0
 26 28  1  0  0  0
 28 33  2  0  0  0
 28 29  1  0  0  0
 29 30  2  0  0  0
 29 52  1  0  0  0
 30 31  1  0  0  0
 30 53  1  0  0  0
 31 32  2  0  0  0
 32 33  1  0  0  0
 32 54  1  0  0  0
 33 55  1  0  0  0
 34 35  2  0  0  0
 34 36  1  0  0  0
 36 40  1  0  0  0
 36 37  2  0  0  0
 37 38  1  0  0  0
 37 56  1  0  0  0
 38 39  2  0  0  0
 38 57  1  0  0  0
 39 40  1  0  0  0
 39 58  1  0  0  0
M  END
> <i_i_glide_confnum>
3

> <i_i_glide_lignum>
4014

> <i_i_glide_posenum>
343

> <i_i_glide_rotatable_bonds>
4

> <i_m_Source_File_Index>
470

> <b_m_subgroup_collapsed>
0

> <r_i_docking_score>
-3.55918

> <r_i_glide_ecoul>
-6.59247

> <r_i_glide_eff_state_penalty>
0

> <r_i_glide_einternal>
2.53866

> <r_i_glide_emodel>
-47.9607

> <r_i_glide_energy>
-39.3265

> <r_i_glide_erotb>
0.32243

> <r_i_glide_esite>
-0.0524692

> <r_i_glide_evdw>
-32.734

> <r_i_glide_gscore>
-3.55918

> <r_i_glide_hbond>
-0.32

> <r_i_glide_ligand_efficiency>
-0.0961941

> <r_i_glide_ligand_efficiency_ln>
-0.771903

> <r_i_glide_ligand_efficiency_sa>
-0.32054

> <r_i_glide_lipo>
-0.866466

> <r_i_glide_metal>
0

> <r_i_glide_rewards>
-0.0171051

> <s_i_glide_gridfile>
wee1_glide-grid

> <s_m_Source_File>
wee1_decoys_glide_SP.sdf

> <s_m_Source_Path>
/Users/zhangxujun/Desktop

> <s_m_entry_id>
745

> <s_m_entry_name>
wee1_decoys_glide_SP.470

> <s_m_subgroup_title>
wee1_decoys_glide_SP

> <s_m_subgroupid>
wee1_decoys_glide_SP


$$$$
