@<TRIPOS>MOLECULE
ZINC33779614_5594
60   63    1
SMALL
USER_CHARGES


@<TRIPOS>ATOM
      1 C1          1.2341   50.5612   21.2795 C.3       1 UNK         0.0000 
      2 C2          2.3695   51.5670   21.2785 C.ar      1 UNK         0.0000 
      3 C3          2.2644   52.7371   22.0340 C.ar      1 UNK         0.0000 
      4 C4          3.3020   53.6658   22.0300 C.ar      1 UNK         0.0000 
      5 C5          4.4486   53.4167   21.2745 C.ar      1 UNK         0.0000 
      6 C6          4.5468   52.2575   20.5020 C.ar      1 UNK         0.0000 
      7 C7          3.5043   51.3356   20.4999 C.ar      1 UNK         0.0000 
      8 N8          5.4936   54.3588   21.2446 N.pl3     1 UNK         0.0000 
      9 C9          5.9010   55.1218   20.1656 C.ar      1 UNK         0.0000 
     10 N10         6.8824   55.9224   20.5112 N.2       1 UNK         0.0000 
     11 N11         7.1413   55.6968   21.8570 N.2       1 UNK         0.0000 
     12 C12         6.3041   54.7880   22.2815 C.ar      1 UNK         0.0000 
     13 S13         6.3955   54.0967   23.9011 S.3       1 UNK         0.0000 
     14 C14         5.2384   55.1515   24.8101 C.3       1 UNK         0.0000 
     15 C15         4.9387   54.5719   26.1902 C.ar      1 UNK         0.0000 
     16 C16         5.8685   54.7969   27.2102 C.ar      1 UNK         0.0000 
     17 C17         5.6524   54.2924   28.4887 C.ar      1 UNK         0.0000 
     18 C18         4.5100   53.5485   28.7656 C.ar      1 UNK         0.0000 
     19 C19         3.5805   53.3079   27.7584 C.ar      1 UNK         0.0000 
     20 C20         3.7817   53.8139   26.4701 C.ar      1 UNK         0.0000 
     21 C21         2.7431   53.5032   25.4057 C.3       1 UNK         0.0000 
     22 C22         5.3344   54.9914   18.7522 C.3       1 UNK         0.0000 
     23 H23         4.3608   54.4965   18.8012 H         1 UNK         0.0000 
     24 C24         5.1058   56.3748   18.1073 C.3       1 UNK         0.0000 
     25 N25         6.2282   54.1301   17.9667 N.am      1 UNK         0.0000 
     26 C26         5.9816   53.6631   16.7273 C.2       1 UNK         0.0000 
     27 O27         4.9474   53.9401   16.1148 O.2       1 UNK         0.0000 
     28 C28         7.0429   52.7864   16.0929 C.ar      1 UNK         0.0000 
     29 C29         8.2757   52.5252   16.7171 C.ar      1 UNK         0.0000 
     30 C30         9.2284   51.7156   16.1003 C.ar      1 UNK         0.0000 
     31 C31         8.9721   51.1607   14.8484 C.ar      1 UNK         0.0000 
     32 C32         7.7542   51.4006   14.1959 C.ar      1 UNK         0.0000 
     33 C33         6.8036   52.2116   14.8352 C.ar      1 UNK         0.0000 
     34 N34         7.4708   50.8032   12.8685 N.pl3     1 UNK         0.0000 
     35 O35         8.3275   50.0969   12.3444 O.co2     1 UNK         0.0000 
     36 O36         6.3872   51.0407   12.3379 O.co2     1 UNK         0.0000 
     37 H37         1.3077   49.9024   22.1440 H         1 UNK         0.0000 
     38 H38         0.2702   51.0679   21.3194 H         1 UNK         0.0000 
     39 H39         1.2352   49.9572   20.3693 H         1 UNK         0.0000 
     40 H40         1.3774   52.9329   22.6160 H         1 UNK         0.0000 
     41 H41         3.1935   54.5867   22.5815 H         1 UNK         0.0000 
     42 H42         5.4138   52.0717   19.8814 H         1 UNK         0.0000 
     43 H43         3.5807   50.4530   19.8810 H         1 UNK         0.0000 
     44 H44         5.6796   56.1427   24.9188 H         1 UNK         0.0000 
     45 H45         4.3264   55.2967   24.2458 H         1 UNK         0.0000 
     46 H46         6.7616   55.3732   27.0206 H         1 UNK         0.0000 
     47 H47         6.3692   54.4919   29.2724 H         1 UNK         0.0000 
     48 H48         4.3433   53.1558   29.7568 H         1 UNK         0.0000 
     49 H49         2.7027   52.7184   27.9819 H         1 UNK         0.0000 
     50 H50         1.9054   52.9203   25.7962 H         1 UNK         0.0000 
     51 H51         2.3401   54.4187   24.9680 H         1 UNK         0.0000 
     52 H52         3.2135   52.9190   24.6156 H         1 UNK         0.0000 
     53 H53         4.4171   56.9678   18.7083 H         1 UNK         0.0000 
     54 H54         6.0369   56.9350   18.0076 H         1 UNK         0.0000 
     55 H55         4.6658   56.2967   17.1122 H         1 UNK         0.0000 
     56 H56         6.9794   53.7010   18.4813 H         1 UNK         0.0000 
     57 H57         8.5215   52.9440   17.6822 H         1 UNK         0.0000 
     58 H58        10.1700   51.5188   16.5963 H         1 UNK         0.0000 
     59 H59         9.7285   50.5379   14.3891 H         1 UNK         0.0000 
     60 H60         5.8563   52.3937   14.3445 H         1 UNK         0.0000 
@<TRIPOS>BOND
     1    1    2 1    
     2    1   37 1    
     3    1   38 1    
     4    1   39 1    
     5    2    7 ar   
     6    2    3 ar   
     7    3    4 ar   
     8    3   40 1    
     9    4    5 ar   
    10    4   41 1    
    11    5    6 ar   
    12    5    8 1    
    13    6    7 ar   
    14    6   42 1    
    15    7   43 1    
    16    8   12 ar   
    17    8    9 ar   
    18    9   10 ar   
    19    9   22 1    
    20   10   11 ar   
    21   11   12 ar   
    22   12   13 1    
    23   13   14 1    
    24   14   15 1    
    25   14   44 1    
    26   14   45 1    
    27   15   20 ar   
    28   15   16 ar   
    29   16   17 ar   
    30   16   46 1    
    31   17   18 ar   
    32   17   47 1    
    33   18   19 ar   
    34   18   48 1    
    35   19   20 ar   
    36   19   49 1    
    37   20   21 1    
    38   21   50 1    
    39   21   51 1    
    40   21   52 1    
    41   22   23 1    
    42   22   24 1    
    43   22   25 1    
    44   24   53 1    
    45   24   54 1    
    46   24   55 1    
    47   25   26 am   BACKBONE|DICT|INTERRES
    48   25   56 1    
    49   26   27 2    
    50   26   28 1    
    51   28   33 ar   
    52   28   29 ar   
    53   29   30 ar   
    54   29   57 1    
    55   30   31 ar   
    56   30   58 1    
    57   31   32 ar   
    58   31   59 1    
    59   32   33 ar   
    60   32   34 1    
    61   33   60 1    
    62   34   35 2    
    63   34   36 1    
@<TRIPOS>SUBSTRUCTURE
     1 UNK         1 GROUP             0       ****    0 ROOT    
