@<TRIPOS>MOLECULE
ZINC19818669_873
65   68    1
SMALL
USER_CHARGES


@<TRIPOS>ATOM
      1 C1         -3.4072   50.9715   27.3341 C.ar      1 UNK         0.0000 
      2 C2         -4.0970   49.7796   27.1283 C.ar      1 UNK         0.0000 
      3 C3         -3.7368   48.9421   26.0745 C.ar      1 UNK         0.0000 
      4 C4         -2.6805   49.2881   25.2315 C.ar      1 UNK         0.0000 
      5 C5         -1.9674   50.4857   25.4305 C.ar      1 UNK         0.0000 
      6 C6         -2.3576   51.3253   26.4871 C.ar      1 UNK         0.0000 
      7 N7         -0.9271   50.8414   24.5732 N.pl3     1 UNK         0.0000 
      8 C8         -0.6027   52.2570   24.3194 C.3       1 UNK         0.0000 
      9 C9          0.2755   52.4941   23.0763 C.3       1 UNK         0.0000 
     10 N10         1.5648   51.6606   23.2085 N.4       1 UNK         0.0000 
     11 C11         1.1888   50.1704   23.3245 C.3       1 UNK         0.0000 
     12 C12         0.2638   49.9713   24.5441 C.3       1 UNK         0.0000 
     13 C13         2.5458   51.9157   22.0273 C.3       1 UNK         0.0000 
     14 C14         3.4206   53.1635   22.2989 C.2       1 UNK         0.0000 
     15 O15         3.0846   53.9380   23.1981 O.2       1 UNK         0.0000 
     16 N16         4.5568   53.3592   21.5752 N.am      1 UNK         0.0000 
     17 C17         4.9103   52.5497   20.3978 C.3       1 UNK         0.0000 
     18 C18         4.9489   53.5024   19.1850 C.3       1 UNK         0.0000 
     19 N19         5.7964   54.6797   19.4318 N.am      1 UNK         0.0000 
     20 C20         6.0288   55.2464   20.6324 C.2       1 UNK         0.0000 
     21 O21         6.6345   56.3140   20.7080 O.2       1 UNK         0.0000 
     22 C22         5.4631   54.4988   21.8775 C.3       1 UNK         0.0000 
     23 H23         4.8619   55.2965   22.3000 H         1 UNK         0.0000 
     24 C24         6.6198   54.2054   22.8928 C.3       1 UNK         0.0000 
     25 C25         6.3602   54.6557   24.3420 C.2       1 UNK         0.0000 
     26 O26         7.1041   55.4837   24.8671 O.2       1 UNK         0.0000 
     27 N27         5.3086   54.0971   24.9679 N.am      1 UNK         0.0000 
     28 C28         4.9528   54.1958   26.3223 C.ar      1 UNK         0.0000 
     29 C29         5.8785   54.4506   27.3451 C.ar      1 UNK         0.0000 
     30 C30         5.4581   54.4966   28.6696 C.ar      1 UNK         0.0000 
     31 C31         4.1214   54.2749   28.9902 C.ar      1 UNK         0.0000 
     32 C32         3.1869   54.0006   27.9857 C.ar      1 UNK         0.0000 
     33 C33         3.6138   53.9642   26.6517 C.ar      1 UNK         0.0000 
     34 C34         1.7270   53.7410   28.3501 C.3       1 UNK         0.0000 
     35 F35         1.6341   53.0797   29.5055 F         1 UNK         0.0000 
     36 F36         1.1021   53.0276   27.4114 F         1 UNK         0.0000 
     37 F37         1.1039   54.9110   28.4784 F         1 UNK         0.0000 
     38 F38        -2.3736   48.4554   24.2068 F         1 UNK         0.0000 
     39 H39        -3.6770   51.6151   28.1584 H         1 UNK         0.0000 
     40 H40        -4.9025   49.4987   27.7923 H         1 UNK         0.0000 
     41 H41        -4.2698   48.0161   25.9175 H         1 UNK         0.0000 
     42 H42        -1.8333   52.2496   26.6785 H         1 UNK         0.0000 
     43 H43        -0.0359   52.5946   25.1886 H         1 UNK         0.0000 
     44 H44        -1.5132   52.8549   24.2548 H         1 UNK         0.0000 
     45 H45         0.5890   53.5391   23.0449 H         1 UNK         0.0000 
     46 H46        -0.2206   52.2208   22.1429 H         1 UNK         0.0000 
     47 H47         0.7314   49.8548   22.3845 H         1 UNK         0.0000 
     48 H48         2.1263   49.6353   23.4884 H         1 UNK         0.0000 
     49 H49         0.0046   48.9172   24.6539 H         1 UNK         0.0000 
     50 H50         0.8299   50.2536   25.4337 H         1 UNK         0.0000 
     51 H51         1.9467   52.0073   21.1195 H         1 UNK         0.0000 
     52 H52         3.1681   51.0227   21.9605 H         1 UNK         0.0000 
     53 H53         4.2314   51.7239   20.1878 H         1 UNK         0.0000 
     54 H54         5.8957   52.1175   20.5617 H         1 UNK         0.0000 
     55 H55         3.9488   53.8529   18.9225 H         1 UNK         0.0000 
     56 H56         5.3386   52.9678   18.3169 H         1 UNK         0.0000 
     57 H57         6.1711   55.1715   18.6331 H         1 UNK         0.0000 
     58 H58         7.5612   54.6742   22.5938 H         1 UNK         0.0000 
     59 H59         6.8406   53.1384   22.9086 H         1 UNK         0.0000 
     60 H60         4.6342   53.6308   24.3768 H         1 UNK         0.0000 
     61 H61         6.9269   54.6010   27.1375 H         1 UNK         0.0000 
     62 H62         6.1750   54.7034   29.4484 H         1 UNK         0.0000 
     63 H63         3.8170   54.3130   30.0247 H         1 UNK         0.0000 
     64 H64         2.8993   53.7584   25.8679 H         1 UNK         0.0000 
     65 H65         2.0319   51.9323   24.0639 H         1 UNK         0.0000 
@<TRIPOS>BOND
     1    1    6 ar   
     2    1    2 ar   
     3    1   39 1    
     4    2    3 ar   
     5    2   40 1    
     6    3    4 ar   
     7    3   41 1    
     8    4    5 ar   
     9    4   38 1    
    10    5    6 ar   
    11    5    7 1    
    12    6   42 1    
    13    7   12 1    
    14    7    8 1    
    15    8    9 1    
    16    8   43 1    
    17    8   44 1    
    18    9   10 1    
    19    9   45 1    
    20    9   46 1    
    21   10   11 1    
    22   10   13 1    
    23   10   65 1    
    24   11   12 1    
    25   11   47 1    
    26   11   48 1    
    27   12   49 1    
    28   12   50 1    
    29   13   14 1    
    30   13   51 1    
    31   13   52 1    
    32   14   15 2    
    33   14   16 am   BACKBONE|DICT|INTERRES
    34   16   22 1    
    35   16   17 1    
    36   17   18 1    
    37   17   53 1    
    38   17   54 1    
    39   18   19 1    
    40   18   55 1    
    41   18   56 1    
    42   19   20 am   BACKBONE|DICT|INTERRES
    43   19   57 1    
    44   20   21 2    
    45   20   22 1    
    46   22   23 1    
    47   22   24 1    
    48   24   25 1    
    49   24   58 1    
    50   24   59 1    
    51   25   26 2    
    52   25   27 am   BACKBONE|DICT|INTERRES
    53   27   28 1    
    54   27   60 1    
    55   28   33 ar   
    56   28   29 ar   
    57   29   30 ar   
    58   29   61 1    
    59   30   31 ar   
    60   30   62 1    
    61   31   32 ar   
    62   31   63 1    
    63   32   33 ar   
    64   32   34 1    
    65   33   64 1    
    66   34   35 1    
    67   34   36 1    
    68   34   37 1    
@<TRIPOS>SUBSTRUCTURE
     1 UNK         1 GROUP             0       ****    0 ROOT    
