@<TRIPOS>MOLECULE
ZINC20375527_265
58   61    1
SMALL
USER_CHARGES


@<TRIPOS>ATOM
      1 C1          4.9771   53.0019   22.0817 C.ar      1 UNK         0.0000 
      2 C2          5.6933   53.6968   23.0556 C.ar      1 UNK         0.0000 
      3 C3          5.0113   54.4305   24.0214 C.ar      1 UNK         0.0000 
      4 C4          3.6208   54.4964   24.0030 C.ar      1 UNK         0.0000 
      5 C5          2.9052   53.8347   23.0077 C.ar      1 UNK         0.0000 
      6 C6          3.5787   53.0722   22.0469 C.ar      1 UNK         0.0000 
      7 C7          2.7752   52.3081   20.9776 C.3       1 UNK         0.0000 
      8 H8          1.8174   52.8164   20.8453 H         1 UNK         0.0000 
      9 C9          2.5576   50.8048   21.3569 C.3       1 UNK         0.0000 
     10 H10         3.5508   50.3706   21.4680 H         1 UNK         0.0000 
     11 C11         1.8302   50.5876   22.7217 C.3       1 UNK         0.0000 
     12 C12         0.3384   50.9752   22.6724 C.3       1 UNK         0.0000 
     13 C13        -0.3959   50.2246   21.5465 C.3       1 UNK         0.0000 
     14 C14         0.3322   50.3903   20.1962 C.3       1 UNK         0.0000 
     15 C15         1.8379   49.9872   20.2336 C.3       1 UNK         0.0000 
     16 C16         2.5210   50.2049   18.8748 C.3       1 UNK         0.0000 
     17 C17         2.6641   51.6840   18.4772 C.3       1 UNK         0.0000 
     18 N18         3.4618   52.4317   19.5753 N.4       1 UNK         0.0000 
     19 C19         3.6561   53.9234   19.1377 C.3       1 UNK         0.0000 
     20 C20         5.0592   54.2724   18.6073 C.2       1 UNK         0.0000 
     21 O21         5.3689   55.4629   18.6257 O.2       1 UNK         0.0000 
     22 N22         5.8667   53.2967   18.1328 N.am      1 UNK         0.0000 
     23 C23         7.1993   53.4126   17.6825 C.ar      1 UNK         0.0000 
     24 C24         8.0738   54.4354   18.0782 C.ar      1 UNK         0.0000 
     25 C25         9.4079   54.4074   17.6815 C.ar      1 UNK         0.0000 
     26 C26         9.8951   53.3583   16.8882 C.ar      1 UNK         0.0000 
     27 C27         9.0116   52.3502   16.4828 C.ar      1 UNK         0.0000 
     28 C28         7.6779   52.3784   16.8786 C.ar      1 UNK         0.0000 
     29 N29        11.3285   53.3042   16.5111 N.pl3     1 UNK         0.0000 
     30 O30        11.7170   52.3698   15.8168 O.co2     1 UNK         0.0000 
     31 O31        12.0750   54.1942   16.9093 O.co2     1 UNK         0.0000 
     32 O32         1.9043   48.5987   20.5158 O.3       1 UNK         0.0000 
     33 F33         5.7052   55.0886   24.9781 F         1 UNK         0.0000 
     34 H34         5.5058   52.4073   21.3545 H         1 UNK         0.0000 
     35 H35         6.7719   53.6500   23.0800 H         1 UNK         0.0000 
     36 H36         3.1023   55.0720   24.7549 H         1 UNK         0.0000 
     37 H37         1.8279   53.9029   22.9966 H         1 UNK         0.0000 
     38 H38         1.9132   49.5405   23.0222 H         1 UNK         0.0000 
     39 H39         2.3052   51.1513   23.5221 H         1 UNK         0.0000 
     40 H40        -0.1333   50.7548   23.6311 H         1 UNK         0.0000 
     41 H41         0.2356   52.0507   22.5274 H         1 UNK         0.0000 
     42 H42        -0.4640   49.1646   21.7965 H         1 UNK         0.0000 
     43 H43        -1.4232   50.5837   21.4668 H         1 UNK         0.0000 
     44 H44         0.2372   51.4329   19.8966 H         1 UNK         0.0000 
     45 H45        -0.1831   49.8553   19.3968 H         1 UNK         0.0000 
     46 H46         1.9444   49.7247   18.0826 H         1 UNK         0.0000 
     47 H47         3.5044   49.7465   18.8817 H         1 UNK         0.0000 
     48 H48         1.7085   52.1905   18.3339 H         1 UNK         0.0000 
     49 H49         3.2564   51.7509   17.5619 H         1 UNK         0.0000 
     50 H50         3.5074   54.5457   20.0195 H         1 UNK         0.0000 
     51 H51         2.8750   54.2006   18.4286 H         1 UNK         0.0000 
     52 H52         5.5015   52.3520   18.0528 H         1 UNK         0.0000 
     53 H53         7.7551   55.2373   18.7250 H         1 UNK         0.0000 
     54 H54        10.0678   55.1943   18.0225 H         1 UNK         0.0000 
     55 H55         9.3592   51.5256   15.8766 H         1 UNK         0.0000 
     56 H56         7.0264   51.5750   16.5723 H         1 UNK         0.0000 
     57 H57         2.8298   48.3337   20.5240 H         1 UNK         0.0000 
     58 H58         4.3503   51.9519   19.6335 H         1 UNK         0.0000 
@<TRIPOS>BOND
     1    1    6 ar   
     2    1    2 ar   
     3    1   34 1    
     4    2    3 ar   
     5    2   35 1    
     6    3    4 ar   
     7    3   33 1    
     8    4    5 ar   
     9    4   36 1    
    10    5    6 ar   
    11    5   37 1    
    12    6    7 1    
    13    7    8 1    
    14    7   18 1    
    15    7    9 1    
    16    9   10 1    
    17    9   15 1    
    18    9   11 1    
    19   11   12 1    
    20   11   38 1    
    21   11   39 1    
    22   12   13 1    
    23   12   40 1    
    24   12   41 1    
    25   13   14 1    
    26   13   42 1    
    27   13   43 1    
    28   14   15 1    
    29   14   44 1    
    30   14   45 1    
    31   15   16 1    
    32   15   32 1    
    33   16   17 1    
    34   16   46 1    
    35   16   47 1    
    36   17   18 1    
    37   17   48 1    
    38   17   49 1    
    39   18   19 1    
    40   18   58 1    
    41   19   20 1    
    42   19   50 1    
    43   19   51 1    
    44   20   21 2    
    45   20   22 am   BACKBONE|DICT|INTERRES
    46   22   23 1    
    47   22   52 1    
    48   23   28 ar   
    49   23   24 ar   
    50   24   25 ar   
    51   24   53 1    
    52   25   26 ar   
    53   25   54 1    
    54   26   27 ar   
    55   26   29 1    
    56   27   28 ar   
    57   27   55 1    
    58   28   56 1    
    59   29   30 2    
    60   29   31 1    
    61   32   57 1    
@<TRIPOS>SUBSTRUCTURE
     1 UNK         1 GROUP             0       ****    0 ROOT    
