@<TRIPOS>MOLECULE
ZINC22338394_4028
57   59    1
SMALL
USER_CHARGES


@<TRIPOS>ATOM
      1 C1          3.0261   54.6557   28.1640 C.3       1 UNK         0.0000 
      2 C2          3.2859   54.3819   26.6949 C.ar      1 UNK         0.0000 
      3 C3          2.3902   53.6219   25.9431 C.ar      1 UNK         0.0000 
      4 C4          2.6528   53.3498   24.5998 C.ar      1 UNK         0.0000 
      5 C5          3.8056   53.8417   23.9706 C.ar      1 UNK         0.0000 
      6 C6          4.6714   54.6497   24.7334 C.ar      1 UNK         0.0000 
      7 C7          4.4264   54.8963   26.0817 C.ar      1 UNK         0.0000 
      8 O8          5.7777   55.2966   24.1987 O.3       1 UNK         0.0000 
      9 C9          6.3820   54.7015   23.0453 C.3       1 UNK         0.0000 
     10 C10         5.2747   54.3755   22.0047 C.3       1 UNK         0.0000 
     11 C11         4.2178   53.4222   22.5564 C.3       1 UNK         0.0000 
     12 H12         4.7683   52.4968   22.7029 H         1 UNK         0.0000 
     13 N13         3.1215   53.1345   21.6252 N.am      1 UNK         0.0000 
     14 C14         2.8559   51.9308   21.0905 C.2       1 UNK         0.0000 
     15 O15         3.5672   50.9435   21.2816 O.2       1 UNK         0.0000 
     16 C16         1.5930   51.8156   20.2210 C.3       1 UNK         0.0000 
     17 N17         0.7971   50.6830   20.6747 N.pl3     1 UNK         0.0000 
     18 C18         0.8074   49.4432   19.9671 C.ar      1 UNK         0.0000 
     19 C19         1.8720   49.1091   19.1120 C.ar      1 UNK         0.0000 
     20 C20         1.8964   47.9053   18.4135 C.ar      1 UNK         0.0000 
     21 C21         0.8607   46.9872   18.5531 C.ar      1 UNK         0.0000 
     22 C22        -0.2139   47.2708   19.4108 C.ar      1 UNK         0.0000 
     23 C23        -0.2203   48.4924   20.1016 C.ar      1 UNK         0.0000 
     24 C24        -1.3642   46.2740   19.5986 C.3       1 UNK         0.0000 
     25 F25        -2.2788   46.7015   20.4713 F         1 UNK         0.0000 
     26 F26        -0.8950   45.1091   20.0476 F         1 UNK         0.0000 
     27 F27        -1.9778   46.0649   18.4347 F         1 UNK         0.0000 
     28 Cl28        0.9437   45.5176   17.6446 Cl        1 UNK         0.0000 
     29 S29        -0.4006   51.0409   21.9769 S.o2      1 UNK         0.0000 
     30 O30        -0.0710   52.3531   22.5418 O.2       1 UNK         0.0000 
     31 O31        -1.7447   50.8008   21.4396 O.2       1 UNK         0.0000 
     32 C32         0.0035   49.7460   23.2837 C.3       1 UNK         0.0000 
     33 C33         7.1461   53.5070   23.6220 C.3       1 UNK         0.0000 
     34 C34         7.3057   55.7276   22.3974 C.3       1 UNK         0.0000 
     35 H35         2.2547   53.9995   28.5697 H         1 UNK         0.0000 
     36 H36         3.9367   54.4840   28.7428 H         1 UNK         0.0000 
     37 H37         2.7240   55.6945   28.3133 H         1 UNK         0.0000 
     38 H38         1.5006   53.2127   26.4007 H         1 UNK         0.0000 
     39 H39         1.9718   52.7148   24.0560 H         1 UNK         0.0000 
     40 H40         5.1247   55.4945   26.6456 H         1 UNK         0.0000 
     41 H41         5.7087   53.9631   21.0925 H         1 UNK         0.0000 
     42 H42         4.7674   55.2942   21.7081 H         1 UNK         0.0000 
     43 H43         2.4973   53.9029   21.4136 H         1 UNK         0.0000 
     44 H44         1.9706   51.7395   19.2017 H         1 UNK         0.0000 
     45 H45         1.0406   52.7563   20.2550 H         1 UNK         0.0000 
     46 H46         2.7235   49.7612   18.9758 H         1 UNK         0.0000 
     47 H47         2.7292   47.6964   17.7550 H         1 UNK         0.0000 
     48 H48        -1.0590   48.6868   20.7445 H         1 UNK         0.0000 
     49 H49        -0.6227   49.9279   24.1559 H         1 UNK         0.0000 
     50 H50        -0.1871   48.7498   22.8941 H         1 UNK         0.0000 
     51 H51         1.0551   49.8398   23.5541 H         1 UNK         0.0000 
     52 H52         7.6406   52.8967   22.8819 H         1 UNK         0.0000 
     53 H53         7.9043   53.8410   24.3262 H         1 UNK         0.0000 
     54 H54         6.4639   52.8967   24.1895 H         1 UNK         0.0000 
     55 H55         7.9877   55.2628   21.6843 H         1 UNK         0.0000 
     56 H56         6.7513   56.4967   21.8691 H         1 UNK         0.0000 
     57 H57         7.9044   56.2077   23.1617 H         1 UNK         0.0000 
@<TRIPOS>BOND
     1    1    2 1    
     2    1   35 1    
     3    1   36 1    
     4    1   37 1    
     5    2    7 ar   
     6    2    3 ar   
     7    3    4 ar   
     8    3   38 1    
     9    4    5 ar   
    10    4   39 1    
    11    5   11 1    
    12    5    6 ar   
    13    6    7 ar   
    14    6    8 1    
    15    7   40 1    
    16    8    9 1    
    17    9   10 1    
    18    9   33 1    
    19    9   34 1    
    20   10   11 1    
    21   10   41 1    
    22   10   42 1    
    23   11   12 1    
    24   11   13 1    
    25   13   14 am   BACKBONE|DICT|INTERRES
    26   13   43 1    
    27   14   15 2    
    28   14   16 1    
    29   16   17 1    
    30   16   44 1    
    31   16   45 1    
    32   17   18 1    
    33   17   29 1    
    34   18   23 ar   
    35   18   19 ar   
    36   19   20 ar   
    37   19   46 1    
    38   20   21 ar   
    39   20   47 1    
    40   21   22 ar   
    41   21   28 1    
    42   22   23 ar   
    43   22   24 1    
    44   23   48 1    
    45   24   25 1    
    46   24   26 1    
    47   24   27 1    
    48   29   30 2    
    49   29   31 2    
    50   29   32 1    
    51   32   49 1    
    52   32   50 1    
    53   32   51 1    
    54   33   52 1    
    55   33   53 1    
    56   33   54 1    
    57   34   55 1    
    58   34   56 1    
    59   34   57 1    
@<TRIPOS>SUBSTRUCTURE
     1 UNK         1 GROUP             0       ****    0 ROOT    
