@<TRIPOS>MOLECULE
ZINC20877125_615
59   62    1
SMALL
USER_CHARGES


@<TRIPOS>ATOM
      1 C1          7.1801   55.4473   22.2879 C.3       1 UNK         0.0000 
      2 O2          6.4745   54.7601   23.3126 O.3       1 UNK         0.0000 
      3 C3          5.2345   54.2434   23.0079 C.ar      1 UNK         0.0000 
      4 C4          4.8703   53.8562   21.7071 C.ar      1 UNK         0.0000 
      5 C5          3.5701   53.4352   21.4227 C.ar      1 UNK         0.0000 
      6 C6          2.6264   53.4086   22.4521 C.ar      1 UNK         0.0000 
      7 C7          2.9839   53.7465   23.7563 C.ar      1 UNK         0.0000 
      8 C8          4.2901   54.1621   24.0430 C.ar      1 UNK         0.0000 
      9 O9          4.6054   54.5775   25.3208 O.3       1 UNK         0.0000 
     10 C10         5.4514   53.6967   26.0586 C.3       1 UNK         0.0000 
     11 C11         5.6124   54.0638   27.5423 C.3       1 UNK         0.0000 
     12 H12         6.2799   53.3205   27.9842 H         1 UNK         0.0000 
     13 C13         4.2804   54.0294   28.2969 C.ar      1 UNK         0.0000 
     14 C14         3.2323   54.8966   27.9624 C.ar      1 UNK         0.0000 
     15 C15         2.0089   54.8485   28.6277 C.ar      1 UNK         0.0000 
     16 C16         1.8087   53.8940   29.6172 C.ar      1 UNK         0.0000 
     17 C17         2.8385   52.9988   29.9495 C.ar      1 UNK         0.0000 
     18 C18         4.0666   53.0666   29.2916 C.ar      1 UNK         0.0000 
     19 O19         2.6661   51.9885   30.8688 O.3       1 UNK         0.0000 
     20 C20         1.5417   52.1745   31.7339 C.3       1 UNK         0.0000 
     21 C21         0.3029   52.6956   30.9741 C.3       1 UNK         0.0000 
     22 O22         0.6003   53.9105   30.2799 O.3       1 UNK         0.0000 
     23 O23         6.3035   55.2965   27.6275 O.3       1 UNK         0.0000 
     24 Br24        1.6594   53.6693   25.1198 Br        1 UNK         0.0000 
     25 C25         3.1611   53.1373   19.9834 C.3       1 UNK         0.0000 
     26 N26         3.4105   51.6994   19.4933 N.4       1 UNK         0.0000 
     27 C27         2.4568   50.6270   20.0425 C.3       1 UNK         0.0000 
     28 C28         2.4794   49.2773   19.3225 C.3       1 UNK         0.0000 
     29 C29         1.7456   48.3428   20.2831 C.3       1 UNK         0.0000 
     30 C30         2.1988   48.7985   21.6767 C.3       1 UNK         0.0000 
     31 C31         2.5125   50.2927   21.5455 C.3       1 UNK         0.0000 
     32 H32         7.9044   56.0973   22.7658 H         1 UNK         0.0000 
     33 H33         7.7281   54.7708   21.6367 H         1 UNK         0.0000 
     34 H34         6.5330   56.0854   21.6821 H         1 UNK         0.0000 
     35 H35         5.5882   53.9147   20.9026 H         1 UNK         0.0000 
     36 H36         1.6017   53.1384   22.2405 H         1 UNK         0.0000 
     37 H37         6.4294   53.5983   25.5843 H         1 UNK         0.0000 
     38 H38         4.9848   52.7243   26.0818 H         1 UNK         0.0000 
     39 H39         3.3468   55.5979   27.1538 H         1 UNK         0.0000 
     40 H40         1.2154   55.5328   28.3623 H         1 UNK         0.0000 
     41 H41         4.8389   52.3543   29.5459 H         1 UNK         0.0000 
     42 H42         1.3170   51.2732   32.2908 H         1 UNK         0.0000 
     43 H43         1.8137   52.8967   32.4828 H         1 UNK         0.0000 
     44 H44        -0.0446   51.9387   30.2677 H         1 UNK         0.0000 
     45 H45        -0.4961   52.8967   31.6812 H         1 UNK         0.0000 
     46 H46         6.6258   55.4424   28.5288 H         1 UNK         0.0000 
     47 H47         2.0980   53.2966   19.8115 H         1 UNK         0.0000 
     48 H48         3.7180   53.7602   19.2814 H         1 UNK         0.0000 
     49 H49         3.3205   51.6781   18.4847 H         1 UNK         0.0000 
     50 H50         1.4579   51.0348   19.8556 H         1 UNK         0.0000 
     51 H51         2.0180   49.3135   18.3342 H         1 UNK         0.0000 
     52 H52         3.5040   48.9301   19.1872 H         1 UNK         0.0000 
     53 H53         0.6661   48.4658   20.1770 H         1 UNK         0.0000 
     54 H54         1.9767   47.2964   20.0868 H         1 UNK         0.0000 
     55 H55         1.4395   48.6152   22.4397 H         1 UNK         0.0000 
     56 H56         3.0935   48.2553   21.9822 H         1 UNK         0.0000 
     57 H57         3.5041   50.4911   21.9516 H         1 UNK         0.0000 
     58 H58         1.8029   50.8906   22.1172 H         1 UNK         0.0000 
     59 H59         4.3713   51.4196   19.6458 H         1 UNK         0.0000 
@<TRIPOS>BOND
     1    1    2 1    
     2    1   32 1    
     3    1   33 1    
     4    1   34 1    
     5    2    3 1    
     6    3    8 ar   
     7    3    4 ar   
     8    4    5 ar   
     9    4   35 1    
    10    5    6 ar   
    11    5   25 1    
    12    6    7 ar   
    13    6   36 1    
    14    7    8 ar   
    15    7   24 1    
    16    8    9 1    
    17    9   10 1    
    18   10   11 1    
    19   10   37 1    
    20   10   38 1    
    21   11   12 1    
    22   11   13 1    
    23   11   23 1    
    24   13   18 ar   
    25   13   14 ar   
    26   14   15 ar   
    27   14   39 1    
    28   15   16 ar   
    29   15   40 1    
    30   16   22 1    
    31   16   17 ar   
    32   17   18 ar   
    33   17   19 1    
    34   18   41 1    
    35   19   20 1    
    36   20   21 1    
    37   20   42 1    
    38   20   43 1    
    39   21   22 1    
    40   21   44 1    
    41   21   45 1    
    42   23   46 1    
    43   25   26 1    
    44   25   47 1    
    45   25   48 1    
    46   26   27 1    
    47   26   49 1    
    48   26   59 1    
    49   27   31 1    
    50   27   28 1    
    51   27   50 1    
    52   28   29 1    
    53   28   51 1    
    54   28   52 1    
    55   29   30 1    
    56   29   53 1    
    57   29   54 1    
    58   30   31 1    
    59   30   55 1    
    60   30   56 1    
    61   31   57 1    
    62   31   58 1    
@<TRIPOS>SUBSTRUCTURE
     1 UNK         1 GROUP             0       ****    0 ROOT    
