@<TRIPOS>MOLECULE
ZINC02649451_5483
54   57    1
SMALL
USER_CHARGES


@<TRIPOS>ATOM
      1 C1         -2.4809   46.6052   17.3677 C.3       1 UNK         0.0000 
      2 O2         -1.0986   46.9418   17.3503 O.3       1 UNK         0.0000 
      3 C3         -0.1917   46.1068   16.7184 C.ar      1 UNK         0.0000 
      4 C4         -0.5768   44.9579   16.0072 C.ar      1 UNK         0.0000 
      5 C5          0.3708   44.1721   15.3545 C.ar      1 UNK         0.0000 
      6 C6          1.7142   44.5302   15.3878 C.ar      1 UNK         0.0000 
      7 C7          2.1202   45.6693   16.0811 C.ar      1 UNK         0.0000 
      8 C8          1.1786   46.4418   16.7673 C.ar      1 UNK         0.0000 
      9 N9          1.6518   47.5588   17.4734 N.am      1 UNK         0.0000 
     10 C10         1.4205   47.8085   18.7799 C.2       1 UNK         0.0000 
     11 O11         0.8945   46.9994   19.5501 O.2       1 UNK         0.0000 
     12 C12         1.8659   49.1602   19.2789 C.ar      1 UNK         0.0000 
     13 C13         1.8671   50.2747   18.4283 C.ar      1 UNK         0.0000 
     14 C14         2.2973   51.5135   18.8902 C.ar      1 UNK         0.0000 
     15 C15         2.7439   51.6425   20.2011 C.ar      1 UNK         0.0000 
     16 C16         2.7057   50.5487   21.0742 C.ar      1 UNK         0.0000 
     17 C17         2.2628   49.3131   20.6118 C.ar      1 UNK         0.0000 
     18 N18         3.2155   52.8966   20.5978 N.am      1 UNK         0.0000 
     19 C19         4.3491   53.1206   21.2876 C.2       1 UNK         0.0000 
     20 O20         5.1040   52.2276   21.6817 O.2       1 UNK         0.0000 
     21 C21         4.6717   54.5967   21.5424 C.3       1 UNK         0.0000 
     22 S22         6.2298   54.8932   22.4524 S.3       1 UNK         0.0000 
     23 C23         5.7146   54.5755   24.1497 C.2       1 UNK         0.0000 
     24 N24         4.5180   54.3953   24.5312 N.2       1 UNK         0.0000 
     25 N25         4.4619   54.1457   25.8682 N.pl3     1 UNK         0.0000 
     26 C26         5.6703   54.0964   26.5231 C.2       1 UNK         0.0000 
     27 S27         6.0741   53.6977   28.0816 S.2       1 UNK         0.0000 
     28 S28         6.9352   54.5144   25.4086 S.3       1 UNK         0.0000 
     29 C29         3.1950   53.8795   26.4645 C.ar      1 UNK         0.0000 
     30 C30         2.8129   54.4966   27.6677 C.ar      1 UNK         0.0000 
     31 C31         1.6032   54.1687   28.2784 C.ar      1 UNK         0.0000 
     32 C32         0.7650   53.2317   27.6827 C.ar      1 UNK         0.0000 
     33 C33         1.1039   52.6451   26.4660 C.ar      1 UNK         0.0000 
     34 C34         2.3054   52.9829   25.8499 C.ar      1 UNK         0.0000 
     35 H35        -3.0251   47.3516   17.9459 H         1 UNK         0.0000 
     36 H36        -2.9032   46.5940   16.3616 H         1 UNK         0.0000 
     37 H37        -2.6488   45.6362   17.8405 H         1 UNK         0.0000 
     38 H38        -1.6116   44.6587   15.9439 H         1 UNK         0.0000 
     39 H39         0.0595   43.2896   14.8148 H         1 UNK         0.0000 
     40 H40         2.4425   43.9194   14.8787 H         1 UNK         0.0000 
     41 H41         3.1700   45.9334   16.1053 H         1 UNK         0.0000 
     42 H42         2.2871   48.1823   16.9880 H         1 UNK         0.0000 
     43 H43         1.5577   50.1927   17.3968 H         1 UNK         0.0000 
     44 H44         2.3205   52.3524   18.2091 H         1 UNK         0.0000 
     45 H45         3.0343   50.6475   22.0982 H         1 UNK         0.0000 
     46 H46         2.2638   48.4750   21.2933 H         1 UNK         0.0000 
     47 H47         2.7391   53.6954   20.2006 H         1 UNK         0.0000 
     48 H48         3.8324   55.0574   22.0645 H         1 UNK         0.0000 
     49 H49         4.7632   55.0881   20.5748 H         1 UNK         0.0000 
     50 H50         3.4580   55.2194   28.1468 H         1 UNK         0.0000 
     51 H51         1.3197   54.6339   29.2114 H         1 UNK         0.0000 
     52 H52        -0.1657   52.9651   28.1623 H         1 UNK         0.0000 
     53 H53         0.4400   51.9258   26.0082 H         1 UNK         0.0000 
     54 H54         2.5674   52.5026   24.9167 H         1 UNK         0.0000 
@<TRIPOS>BOND
     1    1    2 1    
     2    1   35 1    
     3    1   36 1    
     4    1   37 1    
     5    2    3 1    
     6    3    8 ar   
     7    3    4 ar   
     8    4    5 ar   
     9    4   38 1    
    10    5    6 ar   
    11    5   39 1    
    12    6    7 ar   
    13    6   40 1    
    14    7    8 ar   
    15    7   41 1    
    16    8    9 1    
    17    9   10 am   BACKBONE|DICT|INTERRES
    18    9   42 1    
    19   10   11 2    
    20   10   12 1    
    21   12   17 ar   
    22   12   13 ar   
    23   13   14 ar   
    24   13   43 1    
    25   14   15 ar   
    26   14   44 1    
    27   15   16 ar   
    28   15   18 1    
    29   16   17 ar   
    30   16   45 1    
    31   17   46 1    
    32   18   19 am   BACKBONE|DICT|INTERRES
    33   18   47 1    
    34   19   20 2    
    35   19   21 1    
    36   21   22 1    
    37   21   48 1    
    38   21   49 1    
    39   22   23 1    
    40   23   28 1    
    41   23   24 2    
    42   24   25 1    
    43   25   26 1    
    44   25   29 1    
    45   26   27 2    
    46   26   28 1    
    47   29   34 ar   
    48   29   30 ar   
    49   30   31 ar   
    50   30   50 1    
    51   31   32 ar   
    52   31   51 1    
    53   32   33 ar   
    54   32   52 1    
    55   33   34 ar   
    56   33   53 1    
    57   34   54 1    
@<TRIPOS>SUBSTRUCTURE
     1 UNK         1 GROUP             0       ****    0 ROOT    
