@<TRIPOS>MOLECULE
ZINC33689482_4843
66   69    1
SMALL
USER_CHARGES


@<TRIPOS>ATOM
      1 C1          4.9975   58.2405   16.7392 C.3       1 UNK         0.0000 
      2 O2          5.9992   57.6738   17.5790 O.3       1 UNK         0.0000 
      3 C3          5.7314   56.5233   18.3009 C.ar      1 UNK         0.0000 
      4 C4          4.5392   55.7864   18.1888 C.ar      1 UNK         0.0000 
      5 C5          4.3089   54.6749   19.0003 C.ar      1 UNK         0.0000 
      6 C6          5.2529   54.2882   19.9566 C.ar      1 UNK         0.0000 
      7 C7          6.4683   54.9739   20.0178 C.ar      1 UNK         0.0000 
      8 C8          6.7216   56.0839   19.1944 C.ar      1 UNK         0.0000 
      9 O9          7.9043   56.7996   19.2303 O.3       1 UNK         0.0000 
     10 C10         9.0593   56.2216   19.8332 C.3       1 UNK         0.0000 
     11 C11         4.9501   53.1365   20.9241 C.3       1 UNK         0.0000 
     12 N12         4.4941   53.5733   22.3513 N.4       1 UNK         0.0000 
     13 C13         5.6047   54.3057   23.1530 C.3       1 UNK         0.0000 
     14 C14         5.5104   54.3765   24.6877 C.ar      1 UNK         0.0000 
     15 C15         4.3021   54.3372   25.3983 C.ar      1 UNK         0.0000 
     16 C16         4.2921   54.3834   26.7894 C.ar      1 UNK         0.0000 
     17 C17         5.4934   54.4737   27.4855 C.ar      1 UNK         0.0000 
     18 C18         6.7018   54.5094   26.7990 C.ar      1 UNK         0.0000 
     19 C19         6.7055   54.4693   25.4058 C.ar      1 UNK         0.0000 
     20 C20         3.1396   54.3179   22.2889 C.3       1 UNK         0.0000 
     21 C21         2.0475   53.2970   22.5064 C.2       1 UNK         0.0000 
     22 C22         1.2676   52.4963   21.6872 C.2       1 UNK         0.0000 
     23 C23         0.4155   51.7702   22.5254 C.2       1 UNK         0.0000 
     24 C24         0.7261   52.1415   23.8310 C.2       1 UNK         0.0000 
     25 O25         1.6997   53.0832   23.7990 O.3       1 UNK         0.0000 
     26 C26         0.1521   51.8272   25.1119 C.2       1 UNK         0.0000 
     27 O27         0.4181   52.4935   26.1148 O.2       1 UNK         0.0000 
     28 N28        -0.6879   50.7786   25.1120 N.am      1 UNK         0.0000 
     29 C29        -1.4616   50.3345   26.2754 C.3       1 UNK         0.0000 
     30 C30        -2.8317   50.9917   26.4672 C.ar      1 UNK         0.0000 
     31 C31        -3.6538   50.5042   27.4879 C.ar      1 UNK         0.0000 
     32 C32        -4.9149   51.0557   27.6965 C.ar      1 UNK         0.0000 
     33 C33        -5.3584   52.0947   26.8830 C.ar      1 UNK         0.0000 
     34 C34        -4.5488   52.5908   25.8641 C.ar      1 UNK         0.0000 
     35 C35        -3.2877   52.0401   25.6548 C.ar      1 UNK         0.0000 
     36 F36        -6.5790   52.6375   27.0890 F         1 UNK         0.0000 
     37 H37         5.3660   59.1816   16.3306 H         1 UNK         0.0000 
     38 H38         4.7618   57.5849   15.9001 H         1 UNK         0.0000 
     39 H39         4.0794   58.4641   17.2812 H         1 UNK         0.0000 
     40 H40         3.7712   56.0749   17.4869 H         1 UNK         0.0000 
     41 H41         3.3728   54.1425   18.9077 H         1 UNK         0.0000 
     42 H42         7.2086   54.6636   20.7349 H         1 UNK         0.0000 
     43 H43         9.9044   56.8952   19.6744 H         1 UNK         0.0000 
     44 H44         8.9389   56.0960   20.9094 H         1 UNK         0.0000 
     45 H45         9.3071   55.2577   19.3856 H         1 UNK         0.0000 
     46 H46         5.8101   52.4846   21.0753 H         1 UNK         0.0000 
     47 H47         4.1364   52.5149   20.5438 H         1 UNK         0.0000 
     48 H48         6.5157   53.7669   22.8906 H         1 UNK         0.0000 
     49 H49         5.6877   55.2965   22.7121 H         1 UNK         0.0000 
     50 H50         3.3505   54.2645   24.9150 H         1 UNK         0.0000 
     51 H51         3.3545   54.3466   27.3249 H         1 UNK         0.0000 
     52 H52         5.4895   54.5066   28.5655 H         1 UNK         0.0000 
     53 H53         7.6258   54.5657   27.3563 H         1 UNK         0.0000 
     54 H54         7.6495   54.4972   24.8820 H         1 UNK         0.0000 
     55 H55         3.1044   54.8188   21.3264 H         1 UNK         0.0000 
     56 H56         3.1408   55.1108   23.0326 H         1 UNK         0.0000 
     57 H57         1.3049   52.4563   20.6075 H         1 UNK         0.0000 
     58 H58        -0.3428   51.0637   22.2141 H         1 UNK         0.0000 
     59 H59        -0.8415   50.2753   24.2537 H         1 UNK         0.0000 
     60 H60        -0.8906   50.4907   27.1969 H         1 UNK         0.0000 
     61 H61        -1.6081   49.2577   26.1830 H         1 UNK         0.0000 
     62 H62        -3.3071   49.6973   28.1230 H         1 UNK         0.0000 
     63 H63        -5.5463   50.6780   28.4900 H         1 UNK         0.0000 
     64 H64        -4.8998   53.3992   25.2412 H         1 UNK         0.0000 
     65 H65        -2.6733   52.4400   24.8613 H         1 UNK         0.0000 
     66 H66         4.3110   52.7311   22.8782 H         1 UNK         0.0000 
@<TRIPOS>BOND
     1    1    2 1    
     2    1   37 1    
     3    1   38 1    
     4    1   39 1    
     5    2    3 1    
     6    3    8 ar   
     7    3    4 ar   
     8    4    5 ar   
     9    4   40 1    
    10    5    6 ar   
    11    5   41 1    
    12    6    7 ar   
    13    6   11 1    
    14    7    8 ar   
    15    7   42 1    
    16    8    9 1    
    17    9   10 1    
    18   10   43 1    
    19   10   44 1    
    20   10   45 1    
    21   11   12 1    
    22   11   46 1    
    23   11   47 1    
    24   12   13 1    
    25   12   20 1    
    26   12   66 1    
    27   13   14 1    
    28   13   48 1    
    29   13   49 1    
    30   14   19 ar   
    31   14   15 ar   
    32   15   16 ar   
    33   15   50 1    
    34   16   17 ar   
    35   16   51 1    
    36   17   18 ar   
    37   17   52 1    
    38   18   19 ar   
    39   18   53 1    
    40   19   54 1    
    41   20   21 1    
    42   20   55 1    
    43   20   56 1    
    44   21   25 1    
    45   21   22 2    
    46   22   23 1    
    47   22   57 1    
    48   23   24 2    
    49   23   58 1    
    50   24   25 1    
    51   24   26 1    
    52   26   27 2    
    53   26   28 am   BACKBONE|DICT|INTERRES
    54   28   29 1    
    55   28   59 1    
    56   29   30 1    
    57   29   60 1    
    58   29   61 1    
    59   30   35 ar   
    60   30   31 ar   
    61   31   32 ar   
    62   31   62 1    
    63   32   33 ar   
    64   32   63 1    
    65   33   34 ar   
    66   33   36 1    
    67   34   35 ar   
    68   34   64 1    
    69   35   65 1    
@<TRIPOS>SUBSTRUCTURE
     1 UNK         1 GROUP             0       ****    0 ROOT    
