ZINC01326746_886
                    3D
 Schrodinger Suite 2024-2.
 55 60  0  0  1  0            999 V2000
    1.6974   54.1260   29.8190 C   0  0  0  0  0  0
    3.1085   54.2661   29.6613 O   0  0  0  0  0  0
    3.6510   54.2443   28.3888 C   0  0  0  0  0  0
    5.0386   54.3896   28.3039 C   0  0  0  0  0  0
    5.7140   54.3917   27.0807 C   0  0  0  0  0  0
    4.9650   54.2493   25.9036 C   0  0  0  0  0  0
    3.5551   54.0977   25.9797 C   0  0  0  0  0  0
    2.8920   54.0905   27.2150 C   0  0  0  0  0  0
    2.9061   53.9455   24.3490 S   0  0  0  0  0  0
    4.5376   54.1073   23.7428 C   0  0  0  0  0  0
    5.4789   54.2466   24.6438 N   0  0  0  0  0  0
    4.7038   54.0958   22.3615 N   0  0  0  0  0  0
    5.7219   54.6777   21.6822 C   0  0  0  0  0  0
    6.6455   55.2988   22.2135 O   0  0  0  0  0  0
    5.6900   54.4963   20.2433 C   0  0  0  0  0  0
    5.1594   53.4774   19.5407 C   0  0  0  0  0  0
    5.4335   53.6570   18.2026 C   0  0  0  0  0  0
    5.2972   52.8967   17.1145 N   0  3  0  0  0  0
    5.9793   53.1332   15.8357 C   0  0  1  0  0  0
    5.2840   52.7872   15.0693 H   0  0  0  0  0  0
    6.1984   54.6574   15.6864 C   0  0  0  0  0  0
    6.7718   55.3677   16.9420 C   0  0  2  0  0  0
    7.7983   55.0269   17.0939 H   0  0  0  0  0  0
    6.0024   54.8664   18.0991 N   0  0  0  0  0  0
    6.3151   55.3381   19.3489 N   0  0  0  0  0  0
    6.7789   56.9105   16.7971 C   0  0  0  0  0  0
    5.5413   57.3995   16.7095 F   0  0  0  0  0  0
    7.3703   57.5015   17.8370 F   0  0  0  0  0  0
    7.4393   57.2880   15.7012 F   0  0  0  0  0  0
    7.2589   52.3124   15.6549 C   0  0  0  0  0  0
    8.1417   52.1196   16.7388 C   0  0  0  0  0  0
    9.2815   51.3168   16.6207 C   0  0  0  0  0  0
    9.5325   50.7429   15.3843 C   0  0  0  0  0  0
    8.6968   50.9337   14.3190 C   0  0  0  0  0  0
    7.5420   51.7065   14.4165 C   0  0  0  0  0  0
    9.1577   50.2190   13.2596 O   0  0  0  0  0  0
   10.4478   49.8099   13.6303 C   0  0  0  0  0  0
   10.5428   49.9094   15.0252 O   0  0  0  0  0  0
    1.3417   53.1731   29.4218 H   0  0  0  0  0  0
    1.4444   54.1495   30.8783 H   0  0  0  0  0  0
    1.1556   54.9405   29.3366 H   0  0  0  0  0  0
    5.6074   54.5146   29.2156 H   0  0  0  0  0  0
    6.7856   54.5033   27.0497 H   0  0  0  0  0  0
    1.8192   53.9754   27.2453 H   0  0  0  0  0  0
    3.8941   53.8192   21.8262 H   0  0  0  0  0  0
    4.6710   52.6002   19.9460 H   0  0  0  0  0  0
    6.8332   54.8534   14.8198 H   0  0  0  0  0  0
    5.2341   55.1094   15.4392 H   0  0  0  0  0  0
    6.4462   56.3353   19.4378 H   0  0  0  0  0  0
    7.9290   52.5845   17.6862 H   0  0  0  0  0  0
    9.9293   51.1513   17.4675 H   0  0  0  0  0  0
    6.8784   51.8237   13.5720 H   0  0  0  0  0  0
   10.6572   48.7958   13.2931 H   0  0  0  0  0  0
   11.1824   50.4720   13.1624 H   0  0  0  0  0  0
    5.0216   51.9314   17.2927 H   0  0  0  0  0  0
  1  2  1  0  0  0
  1 39  1  0  0  0
  1 40  1  0  0  0
  1 41  1  0  0  0
  2  3  1  0  0  0
  3  8  2  0  0  0
  3  4  1  0  0  0
  4  5  2  0  0  0
  4 42  1  0  0  0
  5  6  1  0  0  0
  5 43  1  0  0  0
  6 11  1  0  0  0
  6  7  2  0  0  0
  7  8  1  0  0  0
  7  9  1  0  0  0
  8 44  1  0  0  0
  9 10  1  0  0  0
 10 11  2  0  0  0
 10 12  1  0  0  0
 12 13  1  0  0  0
 12 45  1  0  0  0
 13 14  2  0  0  0
 13 15  1  0  0  0
 15 25  1  0  0  0
 15 16  2  0  0  0
 16 17  1  0  0  0
 16 46  1  0  0  0
 17 24  1  0  0  0
 17 18  2  0  0  0
 18 19  1  0  0  0
 18 55  1  0  0  0
 19 20  1  0  0  0
 19 21  1  0  0  0
 19 30  1  0  0  0
 21 22  1  0  0  0
 21 47  1  0  0  0
 21 48  1  0  0  0
 22 23  1  0  0  0
 22 24  1  0  0  0
 22 26  1  0  0  0
 24 25  1  0  0  0
 25 49  1  0  0  0
 26 27  1  0  0  0
 26 28  1  0  0  0
 26 29  1  0  0  0
 30 35  2  0  0  0
 30 31  1  0  0  0
 31 32  2  0  0  0
 31 50  1  0  0  0
 32 33  1  0  0  0
 32 51  1  0  0  0
 33 38  1  0  0  0
 33 34  2  0  0  0
 34 35  1  0  0  0
 34 36  1  0  0  0
 35 52  1  0  0  0
 36 37  1  0  0  0
 37 38  1  0  0  0
 37 53  1  0  0  0
 37 54  1  0  0  0
M  CHG  1  18   1
M  END
> <i_i_glide_confnum>
13

> <i_i_glide_lignum>
887

> <i_i_glide_posenum>
338

> <i_i_glide_rotatable_bonds>
6

> <i_m_Source_File_Index>
5841

> <b_m_subgroup_collapsed>
0

> <r_i_docking_score>
-5.99955

> <r_i_glide_ecoul>
-4.83823

> <r_i_glide_eff_state_penalty>
0

> <r_i_glide_einternal>
4.2532

> <r_i_glide_emodel>
-64.5991

> <r_i_glide_energy>
-47.1413

> <r_i_glide_erotb>
0.305601

> <r_i_glide_esite>
-0.254378

> <r_i_glide_evdw>
-42.303

> <r_i_glide_gscore>
-5.99955

> <r_i_glide_hbond>
-0.41032

> <r_i_glide_ligand_efficiency>
-0.166654

> <r_i_glide_ligand_efficiency_ln>
-1.30894

> <r_i_glide_ligand_efficiency_sa>
-0.55028

> <r_i_glide_lipo>
-2.47012

> <r_i_glide_metal>
0

> <r_i_glide_rewards>
-0.329448

> <s_i_glide_gridfile>
wee1_glide-grid

> <s_m_Source_File>
wee1_decoys_glide_SP.sdf

> <s_m_Source_Path>
/Users/zhangxujun/Desktop

> <s_m_entry_id>
6116

> <s_m_entry_name>
wee1_decoys_glide_SP.5841

> <s_m_subgroup_title>
wee1_decoys_glide_SP

> <s_m_subgroupid>
wee1_decoys_glide_SP


$$$$
