@<TRIPOS>MOLECULE
ZINC38644092_4243
61   65    1
SMALL
USER_CHARGES


@<TRIPOS>ATOM
      1 C1          1.0125   52.7517   27.2428 C.3       1 UNK         0.0000 
      2 C2          2.3795   53.2345   27.7170 C.ar      1 UNK         0.0000 
      3 C3          2.6677   53.1996   29.0818 C.ar      1 UNK         0.0000 
      4 C4          3.9048   53.6362   29.5471 C.ar      1 UNK         0.0000 
      5 C5          4.8698   54.1075   28.6542 C.ar      1 UNK         0.0000 
      6 C6          4.6098   54.1301   27.2784 C.ar      1 UNK         0.0000 
      7 C7          3.3548   53.6960   26.8201 C.ar      1 UNK         0.0000 
      8 O8          3.0389   53.7026   25.4751 O.3       1 UNK         0.0000 
      9 C9          3.9680   54.0968   24.5622 C.2       1 UNK         0.0000 
     10 C10         5.2019   54.5349   24.9231 C.2       1 UNK         0.0000 
     11 C11         5.6383   54.5928   26.3051 C.2       1 UNK         0.0000 
     12 O12         6.7538   54.9840   26.6389 O.2       1 UNK         0.0000 
     13 C13         3.5210   54.0165   23.1804 C.2       1 UNK         0.0000 
     14 O14         2.3349   54.1832   22.8830 O.2       1 UNK         0.0000 
     15 N15         4.4944   53.7075   22.2913 N.am      1 UNK         0.0000 
     16 C16         4.3096   53.5582   20.9272 C.2       1 UNK         0.0000 
     17 C17         3.3928   52.7826   20.1852 C.2       1 UNK         0.0000 
     18 C18         3.5930   52.9652   18.7819 C.2       1 UNK         0.0000 
     19 C19         4.6542   53.8494   18.5101 C.2       1 UNK         0.0000 
     20 S20         5.3806   54.4851   19.9407 S.3       1 UNK         0.0000 
     21 C21         5.1389   54.2430   17.1192 C.3       1 UNK         0.0000 
     22 C22         4.6868   53.1580   16.1162 C.3       1 UNK         0.0000 
     23 H23         5.2355   52.2357   16.3192 H         1 UNK         0.0000 
     24 C24         3.1739   52.9256   16.2778 C.3       1 UNK         0.0000 
     25 C25         2.8237   52.2824   17.6371 C.3       1 UNK         0.0000 
     26 C26         5.0398   53.5742   14.6779 C.3       1 UNK         0.0000 
     27 C27         2.4801   51.8208   20.7825 C.2       1 UNK         0.0000 
     28 O28         2.7818   51.1832   21.7943 O.2       1 UNK         0.0000 
     29 N29         1.2883   51.7071   20.1705 N.am      1 UNK         0.0000 
     30 C30         0.1891   50.8205   20.5467 C.3       1 UNK         0.0000 
     31 H31         0.4399   50.3699   21.5159 H         1 UNK         0.0000 
     32 C32        -1.1404   51.5942   20.6854 C.3       1 UNK         0.0000 
     33 C33        -1.6533   51.9294   19.2728 C.3       1 UNK         0.0000 
     34 S34        -1.1578   50.4557   18.2278 S.o2      1 UNK         0.0000 
     35 O35        -0.3983   50.9340   17.0715 O.2       1 UNK         0.0000 
     36 O36        -2.3086   49.5699   18.0451 O.2       1 UNK         0.0000 
     37 C37        -0.0090   49.7111   19.5069 C.3       1 UNK         0.0000 
     38 H38         0.8644   51.7093   27.5330 H         1 UNK         0.0000 
     39 H39         0.2213   53.3329   27.7189 H         1 UNK         0.0000 
     40 H40         0.8817   52.8223   26.1633 H         1 UNK         0.0000 
     41 H41         1.9298   52.8336   29.7817 H         1 UNK         0.0000 
     42 H42         4.1258   53.5979   30.5999 H         1 UNK         0.0000 
     43 H43         5.8259   54.4482   29.0343 H         1 UNK         0.0000 
     44 H44         5.9090   54.8651   24.1780 H         1 UNK         0.0000 
     45 H45         5.4427   53.7071   22.6272 H         1 UNK         0.0000 
     46 H46         4.7201   55.2143   16.8472 H         1 UNK         0.0000 
     47 H47         6.2259   54.3516   17.1016 H         1 UNK         0.0000 
     48 H48         2.6262   53.8560   16.1115 H         1 UNK         0.0000 
     49 H49         2.8242   52.2605   15.4870 H         1 UNK         0.0000 
     50 H50         3.0747   51.2216   17.6154 H         1 UNK         0.0000 
     51 H51         1.7466   52.3542   17.7618 H         1 UNK         0.0000 
     52 H52         4.5355   54.4968   14.3880 H         1 UNK         0.0000 
     53 H53         6.1120   53.7348   14.5656 H         1 UNK         0.0000 
     54 H54         4.7523   52.8011   13.9639 H         1 UNK         0.0000 
     55 H55         1.1151   52.3365   19.4019 H         1 UNK         0.0000 
     56 H56        -1.0148   52.4852   21.3014 H         1 UNK         0.0000 
     57 H57        -1.8639   50.9674   21.2114 H         1 UNK         0.0000 
     58 H58        -1.0991   52.7868   18.8884 H         1 UNK         0.0000 
     59 H59        -2.7165   52.1265   19.1564 H         1 UNK         0.0000 
     60 H60        -0.5715   48.9040   19.9759 H         1 UNK         0.0000 
     61 H61         0.8781   49.2901   19.0333 H         1 UNK         0.0000 
@<TRIPOS>BOND
     1    1    2 1    
     2    1   38 1    
     3    1   39 1    
     4    1   40 1    
     5    2    7 ar   
     6    2    3 ar   
     7    3    4 ar   
     8    3   41 1    
     9    4    5 ar   
    10    4   42 1    
    11    5    6 ar   
    12    5   43 1    
    13    6   11 1    
    14    6    7 ar   
    15    7    8 1    
    16    8    9 1    
    17    9   10 2    
    18    9   13 1    
    19   10   11 1    
    20   10   44 1    
    21   11   12 2    
    22   13   14 2    
    23   13   15 am   BACKBONE|DICT|INTERRES
    24   15   16 am   BACKBONE|DICT|INTERRES
    25   15   45 1    
    26   16   20 1    
    27   16   17 2    
    28   17   18 1    
    29   17   27 1    
    30   18   25 1    
    31   18   19 2    
    32   19   20 1    
    33   19   21 1    
    34   21   22 1    
    35   21   46 1    
    36   21   47 1    
    37   22   23 1    
    38   22   24 1    
    39   22   26 1    
    40   24   25 1    
    41   24   48 1    
    42   24   49 1    
    43   25   50 1    
    44   25   51 1    
    45   26   52 1    
    46   26   53 1    
    47   26   54 1    
    48   27   28 2    
    49   27   29 am   BACKBONE|DICT|INTERRES
    50   29   30 1    
    51   29   55 1    
    52   30   31 1    
    53   30   37 1    
    54   30   32 1    
    55   32   33 1    
    56   32   56 1    
    57   32   57 1    
    58   33   34 1    
    59   33   58 1    
    60   33   59 1    
    61   34   35 2    
    62   34   36 2    
    63   34   37 1    
    64   37   60 1    
    65   37   61 1    
@<TRIPOS>SUBSTRUCTURE
     1 UNK         1 GROUP             0       ****    0 ROOT    
