ZINC20841848_4574
                    3D
 Schrodinger Suite 2024-2.
 40 41  0  0  1  0            999 V2000
    7.9195   58.0695   18.0924 C   0  0  0  0  0  0
    7.1806   56.7789   17.6491 C   0  0  0  0  0  0
    6.0649   57.1947   16.6629 C   0  0  0  0  0  0
    8.2088   55.8694   16.9383 C   0  0  0  0  0  0
    6.5729   56.0455   18.8626 C   0  0  0  0  0  0
    6.6718   56.4579   20.1065 N   0  0  0  0  0  0
    6.0121   55.5399   20.9100 N   0  0  0  0  0  0
    5.5180   54.6082   20.1305 C   0  0  0  0  0  0
    5.8438   54.8662   18.8188 N   0  0  0  0  0  0
    5.5113   54.0890   17.7233 N   0  0  0  0  0  0
    4.6172   53.1908   20.6846 S   0  0  0  0  0  0
    3.6708   53.9483   22.0505 C   0  0  0  0  0  0
    4.3971   53.9547   23.4032 C   0  0  0  0  0  0
    5.6194   53.8209   23.4487 O   0  0  0  0  0  0
    3.5994   54.1012   24.4855 N   0  0  0  0  0  0
    3.9444   54.1013   25.8543 C   0  0  0  0  0  0
    2.8788   54.0963   26.7639 C   0  0  0  0  0  0
    3.1189   54.0714   28.1387 C   0  0  0  0  0  0
    4.4251   54.0198   28.6179 C   0  0  0  0  0  0
    5.4940   54.0032   27.7227 C   0  0  0  0  0  0
    5.2606   54.0793   26.3512 C   0  0  0  0  0  0
    7.1044   53.8353   28.3070 Cl  0  0  0  0  0  0
    1.7978   54.0881   29.2463 Cl  0  0  0  0  0  0
    8.3541   58.6009   17.2455 H   0  0  0  0  0  0
    8.7283   57.8487   18.7887 H   0  0  0  0  0  0
    7.2454   58.7640   18.5954 H   0  0  0  0  0  0
    5.5443   56.3323   16.2426 H   0  0  0  0  0  0
    5.3115   57.8119   17.1550 H   0  0  0  0  0  0
    6.4614   57.7695   15.8249 H   0  0  0  0  0  0
    7.7472   54.9776   16.5150 H   0  0  0  0  0  0
    8.7112   56.3890   16.1219 H   0  0  0  0  0  0
    8.9793   55.5262   17.6318 H   0  0  0  0  0  0
    5.8569   53.1397   17.8107 H   0  0  0  0  0  0
    4.5194   54.1149   17.5454 H   0  0  0  0  0  0
    3.3749   54.9596   21.7778 H   0  0  0  0  0  0
    2.7513   53.3700   22.1459 H   0  0  0  0  0  0
    2.6162   54.1938   24.2971 H   0  0  0  0  0  0
    1.8576   54.0966   26.4138 H   0  0  0  0  0  0
    4.6106   53.9802   29.6796 H   0  0  0  0  0  0
    6.1191   54.0695   25.7038 H   0  0  0  0  0  0
  1  2  1  0  0  0
  1 24  1  0  0  0
  1 25  1  0  0  0
  1 26  1  0  0  0
  2  3  1  0  0  0
  2  4  1  0  0  0
  2  5  1  0  0  0
  3 27  1  0  0  0
  3 28  1  0  0  0
  3 29  1  0  0  0
  4 30  1  0  0  0
  4 31  1  0  0  0
  4 32  1  0  0  0
  5  9  1  0  0  0
  5  6  2  0  0  0
  6  7  1  0  0  0
  7  8  2  0  0  0
  8  9  1  0  0  0
  8 11  1  0  0  0
  9 10  1  0  0  0
 10 33  1  0  0  0
 10 34  1  0  0  0
 11 12  1  0  0  0
 12 13  1  0  0  0
 12 35  1  0  0  0
 12 36  1  0  0  0
 13 14  2  0  0  0
 13 15  1  0  0  0
 15 16  1  0  0  0
 15 37  1  0  0  0
 16 21  2  0  0  0
 16 17  1  0  0  0
 17 18  2  0  0  0
 17 38  1  0  0  0
 18 19  1  0  0  0
 18 23  1  0  0  0
 19 20  2  0  0  0
 19 39  1  0  0  0
 20 21  1  0  0  0
 20 22  1  0  0  0
 21 40  1  0  0  0
M  END
> <i_i_glide_confnum>
5

> <i_i_glide_lignum>
4575

> <i_i_glide_posenum>
383

> <i_i_glide_rotatable_bonds>
6

> <i_m_Source_File_Index>
1314

> <b_m_subgroup_collapsed>
0

> <r_i_docking_score>
-5.16567

> <r_i_glide_ecoul>
-2.58149

> <r_i_glide_eff_state_penalty>
0

> <r_i_glide_einternal>
0.270662

> <r_i_glide_emodel>
-53.1022

> <r_i_glide_energy>
-38.7795

> <r_i_glide_erotb>
0.552047

> <r_i_glide_esite>
-0.034263

> <r_i_glide_evdw>
-36.198

> <r_i_glide_gscore>
-5.16567

> <r_i_glide_hbond>
0

> <r_i_glide_ligand_efficiency>
-0.224594

> <r_i_glide_ligand_efficiency_ln>
-1.2491

> <r_i_glide_ligand_efficiency_sa>
-0.638716

> <r_i_glide_lipo>
-2.03136

> <r_i_glide_metal>
0

> <r_i_glide_rewards>
-1.45497

> <s_i_glide_gridfile>
wee1_glide-grid

> <s_m_Source_File>
wee1_decoys_glide_SP.sdf

> <s_m_Source_Path>
/Users/zhangxujun/Desktop

> <s_m_entry_id>
1589

> <s_m_entry_name>
wee1_decoys_glide_SP.1314

> <s_m_subgroup_title>
wee1_decoys_glide_SP

> <s_m_subgroupid>
wee1_decoys_glide_SP


$$$$
