@<TRIPOS>MOLECULE
ZINC03341412_2036
48   51    1
SMALL
USER_CHARGES


@<TRIPOS>ATOM
      1 C1          5.1086   54.3616   21.9404 C.ar      1 UNK         0.0000 
      2 C2          6.3458   54.7140   22.4629 C.ar      1 UNK         0.0000 
      3 C3          6.5373   54.7745   23.8365 C.ar      1 UNK         0.0000 
      4 C4          5.4723   54.4977   24.7239 C.ar      1 UNK         0.0000 
      5 C5          4.1746   54.1640   24.2110 C.ar      1 UNK         0.0000 
      6 C6          4.0363   54.0923   22.7873 C.ar      1 UNK         0.0000 
      7 C7          3.1085   53.9133   25.1585 C.ar      1 UNK         0.0000 
      8 C8          3.4369   54.0183   26.5247 C.ar      1 UNK         0.0000 
      9 C9          4.7425   54.3016   26.9106 C.ar      1 UNK         0.0000 
     10 N10         5.7468   54.5583   26.0522 N.ar      1 UNK         0.0000 
     11 C11         4.9085   54.2338   28.4113 C.3       1 UNK         0.0000 
     12 C12         3.4703   54.2980   28.9166 C.3       1 UNK         0.0000 
     13 C13         2.5902   53.7942   27.7674 C.3       1 UNK         0.0000 
     14 C14         1.7326   53.5410   24.6928 C.2       1 UNK         0.0000 
     15 O15         1.1613   54.0557   23.7265 O.2       1 UNK         0.0000 
     16 O16         1.2160   52.5159   25.4240 O.3       1 UNK         0.0000 
     17 C17        -0.0928   51.9818   25.1958 C.3       1 UNK         0.0000 
     18 C18        -0.8643   51.8754   26.5220 C.2       1 UNK         0.0000 
     19 O19        -0.4905   52.4933   27.5235 O.2       1 UNK         0.0000 
     20 N20        -1.9867   51.1287   26.4698 N.am      1 UNK         0.0000 
     21 N21        -2.6882   50.8955   27.6518 N.am      1 UNK         0.0000 
     22 C22        -3.9796   51.2966   27.7123 C.2       1 UNK         0.0000 
     23 O23        -4.5457   51.9186   26.8068 O.2       1 UNK         0.0000 
     24 C24        -4.7343   50.9677   28.9894 C.ar      1 UNK         0.0000 
     25 C25        -6.0963   51.2861   29.0953 C.ar      1 UNK         0.0000 
     26 C26        -6.7959   51.0349   30.2741 C.ar      1 UNK         0.0000 
     27 C27        -6.1402   50.4629   31.3604 C.ar      1 UNK         0.0000 
     28 C28        -4.7929   50.1323   31.2714 C.ar      1 UNK         0.0000 
     29 C29        -4.0962   50.3805   30.0937 C.ar      1 UNK         0.0000 
     30 Br30       -7.0887   50.1402   32.9803 Br        1 UNK         0.0000 
     31 H31         4.9718   54.3058   20.8708 H         1 UNK         0.0000 
     32 H32         7.1686   54.9318   21.7964 H         1 UNK         0.0000 
     33 H33         7.5040   55.0420   24.2382 H         1 UNK         0.0000 
     34 H34         3.0943   53.8250   22.3318 H         1 UNK         0.0000 
     35 H35         5.3848   53.2958   28.6993 H         1 UNK         0.0000 
     36 H36         5.5109   55.0458   28.8195 H         1 UNK         0.0000 
     37 H37         3.3258   53.7292   29.8343 H         1 UNK         0.0000 
     38 H38         3.2172   55.3353   29.1386 H         1 UNK         0.0000 
     39 H39         1.6392   54.3273   27.7402 H         1 UNK         0.0000 
     40 H40         2.3734   52.7329   27.9002 H         1 UNK         0.0000 
     41 H41         0.0288   50.9846   24.7735 H         1 UNK         0.0000 
     42 H42        -0.6918   52.5529   24.4848 H         1 UNK         0.0000 
     43 H43        -2.1547   50.4255   25.7649 H         1 UNK         0.0000 
     44 H44        -2.3823   50.0318   28.0959 H         1 UNK         0.0000 
     45 H45        -6.6262   51.7358   28.2679 H         1 UNK         0.0000 
     46 H46        -7.8432   51.2829   30.3478 H         1 UNK         0.0000 
     47 H47        -4.2797   49.7008   32.1197 H         1 UNK         0.0000 
     48 H48        -3.0490   50.1152   30.0697 H         1 UNK         0.0000 
@<TRIPOS>BOND
     1    1    6 ar   
     2    1    2 ar   
     3    1   31 1    
     4    2    3 ar   
     5    2   32 1    
     6    3    4 ar   
     7    3   33 1    
     8    4   10 ar   
     9    4    5 ar   
    10    5    6 ar   
    11    5    7 ar   
    12    6   34 1    
    13    7    8 ar   
    14    7   14 1    
    15    8   13 1    
    16    8    9 ar   
    17    9   10 ar   
    18    9   11 1    
    19   11   12 1    
    20   11   35 1    
    21   11   36 1    
    22   12   13 1    
    23   12   37 1    
    24   12   38 1    
    25   13   39 1    
    26   13   40 1    
    27   14   15 2    
    28   14   16 1    
    29   16   17 1    
    30   17   18 1    
    31   17   41 1    
    32   17   42 1    
    33   18   19 2    
    34   18   20 am   BACKBONE|DICT|INTERRES
    35   20   21 1    
    36   20   43 1    
    37   21   22 am   BACKBONE|DICT|INTERRES
    38   21   44 1    
    39   22   23 2    
    40   22   24 1    
    41   24   29 ar   
    42   24   25 ar   
    43   25   26 ar   
    44   25   45 1    
    45   26   27 ar   
    46   26   46 1    
    47   27   28 ar   
    48   27   30 1    
    49   28   29 ar   
    50   28   47 1    
    51   29   48 1    
@<TRIPOS>SUBSTRUCTURE
     1 UNK         1 GROUP             0       ****    0 ROOT    
