ZINC08397370_1305
                    3D
 Schrodinger Suite 2024-2.
 45 47  0  0  1  0            999 V2000
    1.8889   50.8044   22.5066 C   0  0  0  0  0  0
    2.3747   50.5508   21.0696 C   0  0  0  0  0  0
    3.2845   51.2369   20.4819 N   0  0  0  0  0  0
    3.7615   52.3635   21.0915 N   0  0  0  0  0  0
    4.6657   53.1523   20.4951 C   0  0  0  0  0  0
    5.2410   52.8966   19.3166 N   0  3  0  0  0  0
    5.1086   54.6350   21.2933 S   0  0  0  0  0  0
    5.4916   54.0967   22.9952 C   0  0  1  0  0  0
    5.8348   53.0660   22.8809 H   0  0  0  0  0  0
    6.5397   54.8917   23.6948 C   0  0  0  0  0  0
    6.0657   54.9228   25.1334 C   0  0  0  0  0  0
    6.7496   55.3756   26.0501 O   0  0  0  0  0  0
    4.8133   54.3755   25.2106 N   0  0  0  0  0  0
    4.3228   54.0946   23.9633 C   0  0  0  0  0  0
    3.1783   53.7754   23.6393 O   0  0  0  0  0  0
    4.1388   54.0819   26.4455 C   0  0  0  0  0  0
    4.8737   53.6911   27.5835 C   0  0  0  0  0  0
    4.2333   53.3319   28.7648 C   0  0  0  0  0  0
    2.8463   53.3548   28.8350 C   0  0  0  0  0  0
    2.0945   53.7412   27.7309 C   0  0  0  0  0  0
    2.7357   54.0962   26.5466 C   0  0  0  0  0  0
    1.9770   52.8323   30.4460 Br  0  0  0  0  0  0
    1.6801   49.4596   20.3307 C   0  0  0  0  0  0
    2.1953   48.9830   19.1122 C   0  0  0  0  0  0
    1.5587   47.9743   18.3976 C   0  0  0  0  0  0
    0.3769   47.4276   18.8848 C   0  0  0  0  0  0
   -0.1697   47.8899   20.0774 C   0  0  0  0  0  0
    0.4764   48.8965   20.7922 C   0  0  0  0  0  0
    1.7288   49.8700   23.0468 H   0  0  0  0  0  0
    2.5946   51.3746   23.1030 H   0  0  0  0  0  0
    0.9554   51.3668   22.5046 H   0  0  0  0  0  0
    3.3278   52.6598   21.9567 H   0  0  0  0  0  0
    5.8497   53.5712   18.8789 H   0  0  0  0  0  0
    7.5044   54.3936   23.6492 H   0  0  0  0  0  0
    6.6503   55.9103   23.3198 H   0  0  0  0  0  0
    5.9509   53.6176   27.5635 H   0  0  0  0  0  0
    4.8118   53.0143   29.6183 H   0  0  0  0  0  0
    1.0159   53.7529   27.7874 H   0  0  0  0  0  0
    2.1164   54.3812   25.7117 H   0  0  0  0  0  0
    3.1053   49.3924   18.6966 H   0  0  0  0  0  0
    1.9862   47.6329   17.4656 H   0  0  0  0  0  0
   -0.1240   46.6495   18.3282 H   0  0  0  0  0  0
   -1.0943   47.4711   20.4468 H   0  0  0  0  0  0
    0.0086   49.2306   21.7062 H   0  0  0  0  0  0
    5.1056   51.9787   18.8754 H   0  0  0  0  0  0
  1  2  1  0  0  0
  1 29  1  0  0  0
  1 30  1  0  0  0
  1 31  1  0  0  0
  2  3  2  0  0  0
  2 23  1  0  0  0
  3  4  1  0  0  0
  4  5  1  0  0  0
  4 32  1  0  0  0
  5  6  2  0  0  0
  5  7  1  0  0  0
  6 33  1  0  0  0
  6 45  1  0  0  0
  7  8  1  0  0  0
  8  9  1  0  0  0
  8 14  1  0  0  0
  8 10  1  0  0  0
 10 11  1  0  0  0
 10 34  1  0  0  0
 10 35  1  0  0  0
 11 12  2  0  0  0
 11 13  1  0  0  0
 13 14  1  0  0  0
 13 16  1  0  0  0
 14 15  2  0  0  0
 16 21  2  0  0  0
 16 17  1  0  0  0
 17 18  2  0  0  0
 17 36  1  0  0  0
 18 19  1  0  0  0
 18 37  1  0  0  0
 19 20  2  0  0  0
 19 22  1  0  0  0
 20 21  1  0  0  0
 20 38  1  0  0  0
 21 39  1  0  0  0
 23 28  2  0  0  0
 23 24  1  0  0  0
 24 25  2  0  0  0
 24 40  1  0  0  0
 25 26  1  0  0  0
 25 41  1  0  0  0
 26 27  2  0  0  0
 26 42  1  0  0  0
 27 28  1  0  0  0
 27 43  1  0  0  0
 28 44  1  0  0  0
M  CHG  1   6   1
M  END
> <i_i_glide_confnum>
80

> <i_i_glide_lignum>
1306

> <i_i_glide_posenum>
27

> <i_i_glide_rotatable_bonds>
6

> <i_m_Source_File_Index>
2343

> <b_m_subgroup_collapsed>
0

> <r_i_docking_score>
-7.27283

> <r_i_glide_ecoul>
-5.6397

> <r_i_glide_eff_state_penalty>
0

> <r_i_glide_einternal>
8.91001

> <r_i_glide_emodel>
-60.6069

> <r_i_glide_energy>
-46.547

> <r_i_glide_erotb>
0.502347

> <r_i_glide_esite>
-0.0921226

> <r_i_glide_evdw>
-40.9073

> <r_i_glide_gscore>
-7.27283

> <r_i_glide_hbond>
-0.52

> <r_i_glide_ligand_efficiency>
-0.269364

> <r_i_glide_ligand_efficiency_ln>
-1.69299

> <r_i_glide_ligand_efficiency_sa>
-0.808092

> <r_i_glide_lipo>
-2.12793

> <r_i_glide_metal>
0

> <r_i_glide_rewards>
-2.14381

> <s_i_glide_gridfile>
wee1_glide-grid

> <s_m_Source_File>
wee1_decoys_glide_SP.sdf

> <s_m_Source_Path>
/Users/zhangxujun/Desktop

> <s_m_entry_id>
2618

> <s_m_entry_name>
wee1_decoys_glide_SP.2343

> <s_m_subgroup_title>
wee1_decoys_glide_SP

> <s_m_subgroupid>
wee1_decoys_glide_SP


$$$$
