ZINC15902305_2454
                    3D
 Schrodinger Suite 2024-2.
 68 72  0  0  1  0            999 V2000
    5.8314   53.9512   27.9912 C   0  0  0  0  0  0
    4.4777   54.2431   27.3078 C   0  0  2  0  0  0
    4.2226   55.2881   27.4997 H   0  0  0  0  0  0
    3.3567   53.3685   27.9113 C   0  0  0  0  0  0
    1.9974   53.6875   27.2588 C   0  0  0  0  0  0
    2.0880   53.6591   25.7189 C   0  0  0  0  0  0
    3.2711   54.4969   25.1936 C   0  0  0  0  0  0
    4.5418   54.0477   25.8106 N   0  0  0  0  0  0
    6.0092   54.6564   24.9988 S   0  0  0  0  0  0
    7.1013   53.7626   25.3708 O   0  0  0  0  0  0
    6.1203   56.0945   25.2816 O   0  0  0  0  0  0
    5.8739   54.4977   23.2133 C   0  0  0  0  0  0
    6.7053   55.3145   22.4524 C   0  0  0  0  0  0
    6.6301   55.2991   21.0666 C   0  0  0  0  0  0
    5.7204   54.4542   20.4119 C   0  0  0  0  0  0
    4.9067   53.6137   21.1859 C   0  0  0  0  0  0
    5.0000   53.6187   22.5755 C   0  0  0  0  0  0
    5.7093   54.3195   18.9036 C   0  0  0  0  0  0
    4.9398   53.5303   18.3488 O   0  0  0  0  0  0
    6.6160   55.0669   18.2377 N   0  0  0  0  0  0
    6.9469   54.7069   16.9403 N   0  0  0  0  0  0
    8.1767   54.1883   16.7349 C   0  0  0  0  0  0
    9.0309   54.0841   17.6203 O   0  0  0  0  0  0
    8.4752   53.7015   15.3072 C   0  0  0  0  0  0
    9.4517   52.4883   15.1404 C   0  0  0  0  0  0
    9.3432   51.9658   13.6755 C   0  0  0  0  0  0
   10.3049   50.7768   13.4323 C   0  0  2  0  0  0
    9.9340   49.6143   14.3864 C   0  0  0  0  0  0
   10.0635   50.0905   15.8554 C   0  0  2  0  0  0
    9.1048   51.2882   16.0928 C   0  0  0  0  0  0
   11.5223   50.5404   16.1289 C   0  0  0  0  0  0
   11.8977   51.7027   15.1728 C   0  0  1  0  0  0
   11.7634   51.2277   13.7034 C   0  0  0  0  0  0
   10.9368   52.8978   15.4148 C   0  0  0  0  0  0
    5.7342   53.9998   29.0745 H   0  0  0  0  0  0
    6.2088   52.9590   27.7421 H   0  0  0  0  0  0
    6.5917   54.6873   27.7277 H   0  0  0  0  0  0
    3.2817   53.5193   28.9902 H   0  0  0  0  0  0
    3.5713   52.3144   27.7344 H   0  0  0  0  0  0
    1.6686   54.6740   27.5840 H   0  0  0  0  0  0
    1.2352   52.9892   27.6081 H   0  0  0  0  0  0
    1.1571   54.0196   25.2799 H   0  0  0  0  0  0
    2.1966   52.6277   25.3784 H   0  0  0  0  0  0
    3.1143   55.5220   25.5068 H   0  0  0  0  0  0
    3.2844   54.4359   24.1137 H   0  0  0  0  0  0
    7.4161   55.9693   22.9386 H   0  0  0  0  0  0
    7.3103   55.9344   20.5206 H   0  0  0  0  0  0
    4.2231   52.9222   20.7118 H   0  0  0  0  0  0
    4.3850   52.9374   23.1413 H   0  0  0  0  0  0
    6.9165   55.9932   18.4989 H   0  0  0  0  0  0
    6.2815   54.9875   16.2338 H   0  0  0  0  0  0
    8.8593   54.5546   14.7479 H   0  0  0  0  0  0
    7.5227   53.4505   14.8340 H   0  0  0  0  0  0
    9.5729   52.7682   12.9700 H   0  0  0  0  0  0
    8.3196   51.6564   13.4537 H   0  0  0  0  0  0
   10.2190   50.4428   12.3983 H   0  0  0  0  0  0
   10.5821   48.7530   14.2038 H   0  0  0  0  0  0
    8.9154   49.2727   14.1892 H   0  0  0  0  0  0
    9.8011   49.2742   16.5292 H   0  0  0  0  0  0
    8.0747   50.9640   15.9417 H   0  0  0  0  0  0
    9.1722   51.5806   17.1397 H   0  0  0  0  0  0
   12.2058   49.7006   15.9909 H   0  0  0  0  0  0
   11.6319   50.8551   17.1691 H   0  0  0  0  0  0
   12.9252   52.0167   15.3656 H   0  0  0  0  0  0
   12.0402   52.0304   13.0189 H   0  0  0  0  0  0
   12.4553   50.4068   13.5015 H   0  0  0  0  0  0
   11.0671   53.2540   16.4363 H   0  0  0  0  0  0
   11.2226   53.7314   14.7720 H   0  0  0  0  0  0
  1  2  1  0  0  0
  1 35  1  0  0  0
  1 36  1  0  0  0
  1 37  1  0  0  0
  2  3  1  0  0  0
  2  8  1  0  0  0
  2  4  1  0  0  0
  4  5  1  0  0  0
  4 38  1  0  0  0
  4 39  1  0  0  0
  5  6  1  0  0  0
  5 40  1  0  0  0
  5 41  1  0  0  0
  6  7  1  0  0  0
  6 42  1  0  0  0
  6 43  1  0  0  0
  7  8  1  0  0  0
  7 44  1  0  0  0
  7 45  1  0  0  0
  8  9  1  0  0  0
  9 10  2  0  0  0
  9 11  2  0  0  0
  9 12  1  0  0  0
 12 17  2  0  0  0
 12 13  1  0  0  0
 13 14  2  0  0  0
 13 46  1  0  0  0
 14 15  1  0  0  0
 14 47  1  0  0  0
 15 16  2  0  0  0
 15 18  1  0  0  0
 16 17  1  0  0  0
 16 48  1  0  0  0
 17 49  1  0  0  0
 18 19  2  0  0  0
 18 20  1  0  0  0
 20 21  1  0  0  0
 20 50  1  0  0  0
 21 22  1  0  0  0
 21 51  1  0  0  0
 22 23  2  0  0  0
 22 24  1  0  0  0
 24 25  1  0  0  0
 24 52  1  0  0  0
 24 53  1  0  0  0
 25 30  1  0  0  0
 25 34  1  0  0  0
 25 26  1  0  0  0
 26 27  1  0  0  0
 26 54  1  0  0  0
 26 55  1  0  0  0
 27 33  1  0  0  0
 27 28  1  0  0  0
 27 56  1  0  0  0
 28 29  1  0  0  0
 28 57  1  0  0  0
 28 58  1  0  0  0
 29 30  1  0  0  0
 29 31  1  0  0  0
 29 59  1  0  0  0
 30 60  1  0  0  0
 30 61  1  0  0  0
 31 32  1  0  0  0
 31 62  1  0  0  0
 31 63  1  0  0  0
 32 33  1  0  0  0
 32 34  1  0  0  0
 32 64  1  0  0  0
 33 65  1  0  0  0
 33 66  1  0  0  0
 34 67  1  0  0  0
 34 68  1  0  0  0
M  END
> <i_i_glide_confnum>
80

> <i_i_glide_lignum>
2455

> <i_i_glide_posenum>
325

> <i_i_glide_rotatable_bonds>
8

> <i_m_Source_File_Index>
4899

> <b_m_subgroup_collapsed>
0

> <r_i_docking_score>
-2.75162

> <r_i_glide_ecoul>
-0.531641

> <r_i_glide_eff_state_penalty>
0

> <r_i_glide_einternal>
12.7049

> <r_i_glide_emodel>
-36.5155

> <r_i_glide_energy>
-43.5499

> <r_i_glide_erotb>
0.63124

> <r_i_glide_esite>
-0.0101296

> <r_i_glide_evdw>
-43.0182

> <r_i_glide_gscore>
-2.75162

> <r_i_glide_hbond>
0

> <r_i_glide_ligand_efficiency>
-0.0833825

> <r_i_glide_ligand_efficiency_ln>
-0.611947

> <r_i_glide_ligand_efficiency_sa>
-0.267452

> <r_i_glide_lipo>
-2.79034

> <r_i_glide_metal>
0

> <r_i_glide_rewards>
1.64826

> <s_i_glide_gridfile>
wee1_glide-grid

> <s_m_Source_File>
wee1_decoys_glide_SP.sdf

> <s_m_Source_Path>
/Users/zhangxujun/Desktop

> <s_m_entry_id>
5174

> <s_m_entry_name>
wee1_decoys_glide_SP.4899

> <s_m_subgroup_title>
wee1_decoys_glide_SP

> <s_m_subgroupid>
wee1_decoys_glide_SP


$$$$
