@<TRIPOS>MOLECULE
ZINC39684530_1325
62   64    1
SMALL
USER_CHARGES


@<TRIPOS>ATOM
      1 C1         -2.5715   50.4678   23.0960 C.3       1 UNK         0.0000 
      2 C2         -1.1213   49.9527   23.2731 C.3       1 UNK         0.0000 
      3 H3         -1.0151   49.0861   22.6148 H         1 UNK         0.0000 
      4 C4         -0.7789   49.4549   24.7244 C.3       1 UNK         0.0000 
      5 C5          0.6477   48.8577   24.7443 C.3       1 UNK         0.0000 
      6 C6         -1.7501   48.3342   25.1726 C.3       1 UNK         0.0000 
      7 C7         -0.8314   50.6097   25.7571 C.3       1 UNK         0.0000 
      8 N8         -0.1678   50.9609   22.8037 N.am      1 UNK         0.0000 
      9 C9          0.0741   51.3123   21.5272 C.2       1 UNK         0.0000 
     10 O10        -0.4613   50.7527   20.5745 O.2       1 UNK         0.0000 
     11 C11         1.0490   52.4931   21.2748 C.3       1 UNK         0.0000 
     12 H12         0.6376   53.0149   20.4108 H         1 UNK         0.0000 
     13 C13         1.1050   53.4778   22.4697 C.3       1 UNK         0.0000 
     14 N14         2.3496   53.1606   23.1536 N.am      1 UNK         0.0000 
     15 C15         3.1261   52.1531   22.4258 C.3       1 UNK         0.0000 
     16 C16         2.5303   52.0703   21.0142 C.3       1 UNK         0.0000 
     17 C17         3.3396   53.0964   20.1635 C.3       1 UNK         0.0000 
     18 C18         2.9187   53.1179   18.6816 C.3       1 UNK         0.0000 
     19 N19         3.1018   51.6967   18.1037 N.4       1 UNK         0.0000 
     20 C20         2.3652   50.6071   18.9109 C.3       1 UNK         0.0000 
     21 C21         2.8455   50.6896   20.3704 C.3       1 UNK         0.0000 
     22 C22         2.5614   53.5566   24.4303 C.2       1 UNK         0.0000 
     23 O23         1.6295   53.6966   25.2232 O.2       1 UNK         0.0000 
     24 C24         3.9289   53.8794   24.8187 C.ar      1 UNK         0.0000 
     25 C25         5.0223   54.1758   23.9916 C.ar      1 UNK         0.0000 
     26 C26         6.1202   54.5100   24.7793 C.ar      1 UNK         0.0000 
     27 C27         5.6957   54.4475   26.0908 C.ar      1 UNK         0.0000 
     28 N28         4.3696   54.0865   26.1256 N.pl3     1 UNK         0.0000 
     29 C29         3.6102   53.9158   27.3590 C.3       1 UNK         0.0000 
     30 H30        -3.3033   49.7399   23.4428 H         1 UNK         0.0000 
     31 H31        -2.7480   51.3841   23.6585 H         1 UNK         0.0000 
     32 H32        -2.8041   50.6560   22.0472 H         1 UNK         0.0000 
     33 H33         1.4094   49.5756   24.4410 H         1 UNK         0.0000 
     34 H34         0.9239   48.4983   25.7372 H         1 UNK         0.0000 
     35 H35         0.7041   48.0050   24.0687 H         1 UNK         0.0000 
     36 H36        -2.7488   48.7161   25.3923 H         1 UNK         0.0000 
     37 H37        -1.8498   47.5603   24.4091 H         1 UNK         0.0000 
     38 H38        -1.4013   47.8428   26.0818 H         1 UNK         0.0000 
     39 H39        -1.8245   51.0553   25.8183 H         1 UNK         0.0000 
     40 H40        -0.5843   50.2534   26.7596 H         1 UNK         0.0000 
     41 H41        -0.1278   51.4068   25.5171 H         1 UNK         0.0000 
     42 H42         0.3587   51.4329   23.5244 H         1 UNK         0.0000 
     43 H43         1.1848   54.4910   22.0820 H         1 UNK         0.0000 
     44 H44         0.2077   53.4070   23.0877 H         1 UNK         0.0000 
     45 H45         2.9097   51.1881   22.8819 H         1 UNK         0.0000 
     46 H46         4.2106   52.2421   22.4515 H         1 UNK         0.0000 
     47 H47         4.4095   52.8908   20.2221 H         1 UNK         0.0000 
     48 H48         3.2346   54.0964   20.5848 H         1 UNK         0.0000 
     49 H49         3.5460   53.7776   18.0782 H         1 UNK         0.0000 
     50 H50         1.8737   53.3840   18.5266 H         1 UNK         0.0000 
     51 H51         4.0888   51.4187   18.0827 H         1 UNK         0.0000 
     52 H52         2.6357   49.6573   18.4434 H         1 UNK         0.0000 
     53 H53         1.2984   50.7885   18.7778 H         1 UNK         0.0000 
     54 H54         2.3931   49.8827   20.9476 H         1 UNK         0.0000 
     55 H55         3.9166   50.4965   20.4069 H         1 UNK         0.0000 
     56 H56         5.0228   54.1735   22.9112 H         1 UNK         0.0000 
     57 H57         7.1043   54.7831   24.4249 H         1 UNK         0.0000 
     58 H58         6.2302   54.6362   27.0104 H         1 UNK         0.0000 
     59 H59         4.2738   53.9726   28.2235 H         1 UNK         0.0000 
     60 H60         2.8683   54.7119   27.4361 H         1 UNK         0.0000 
     61 H61         3.1183   52.9414   27.3545 H         1 UNK         0.0000 
     62 H62         2.8023   51.6556   17.1403 H         1 UNK         0.0000 
@<TRIPOS>BOND
     1    1    2 1    
     2    1   30 1    
     3    1   31 1    
     4    1   32 1    
     5    2    3 1    
     6    2    4 1    
     7    2    8 1    
     8    4    5 1    
     9    4    6 1    
    10    4    7 1    
    11    5   33 1    
    12    5   34 1    
    13    5   35 1    
    14    6   36 1    
    15    6   37 1    
    16    6   38 1    
    17    7   39 1    
    18    7   40 1    
    19    7   41 1    
    20    8    9 am   BACKBONE|DICT|INTERRES
    21    8   42 1    
    22    9   10 2    
    23    9   11 1    
    24   11   12 1    
    25   11   16 1    
    26   11   13 1    
    27   13   14 1    
    28   13   43 1    
    29   13   44 1    
    30   14   15 1    
    31   14   22 am   BACKBONE|DICT|INTERRES
    32   15   16 1    
    33   15   45 1    
    34   15   46 1    
    35   16   21 1    
    36   16   17 1    
    37   17   18 1    
    38   17   47 1    
    39   17   48 1    
    40   18   19 1    
    41   18   49 1    
    42   18   50 1    
    43   19   20 1    
    44   19   51 1    
    45   19   62 1    
    46   20   21 1    
    47   20   52 1    
    48   20   53 1    
    49   21   54 1    
    50   21   55 1    
    51   22   23 2    
    52   22   24 1    
    53   24   28 ar   
    54   24   25 ar   
    55   25   26 ar   
    56   25   56 1    
    57   26   27 ar   
    58   26   57 1    
    59   27   28 ar   
    60   27   58 1    
    61   28   29 1    
    62   29   59 1    
    63   29   60 1    
    64   29   61 1    
@<TRIPOS>SUBSTRUCTURE
     1 UNK         1 GROUP             0       ****    0 ROOT    
