ZINC03770997_5424
                    3D
 Schrodinger Suite 2024-2.
 47 49  0  0  1  0            999 V2000
   -4.8858   47.2733   29.5947 C   0  0  0  0  0  0
   -3.9262   46.4959   28.9560 C   0  0  0  0  0  0
   -3.7362   46.5885   27.5791 C   0  0  0  0  0  0
   -4.5471   47.4529   26.8257 C   0  0  0  0  0  0
   -5.5324   48.2101   27.4715 C   0  0  0  0  0  0
   -5.6953   48.1419   28.8601 C   0  0  0  0  0  0
   -6.7107   49.0393   29.5699 C   0  0  0  0  0  0
   -7.1348   48.4917   30.7116 F   0  0  0  0  0  0
   -6.1294   50.2056   29.8540 F   0  0  0  0  0  0
   -7.7724   49.2708   28.7963 F   0  0  0  0  0  0
   -4.2865   47.6950   25.0678 S   0  0  0  0  0  0
   -5.3994   48.5122   24.5659 O   0  0  0  0  0  0
   -4.0085   46.3816   24.4705 O   0  0  0  0  0  0
   -2.8040   48.6477   25.0000 N   0  0  0  0  0  0
   -2.5521   49.7298   24.1231 C   0  0  0  0  0  0
   -3.3860   50.0507   23.2734 O   0  0  0  0  0  0
   -1.3722   50.3967   24.2753 N   0  0  0  0  0  0
   -1.0759   51.5561   23.4021 C   0  0  0  0  0  0
   -0.6267   52.7387   24.2867 C   0  0  0  0  0  0
    0.5384   52.3452   25.0957 N   0  0  0  0  0  0
    0.2019   51.2172   25.9956 C   0  0  0  0  0  0
   -0.2819   49.9816   25.1918 C   0  0  0  0  0  0
    1.7603   53.0941   25.1612 C   0  0  0  0  0  0
    2.5020   53.4705   24.0226 C   0  0  0  0  0  0
    3.7603   54.0838   24.1869 C   0  0  0  0  0  0
    4.2600   54.3062   25.4870 C   0  0  0  0  0  0
    3.4745   53.9388   26.5963 C   0  0  0  0  0  0
    3.9717   54.1916   28.2387 Cl  0  0  0  0  0  0
    5.6000   54.8616   25.6887 C   0  0  0  0  0  0
    6.6620   55.2964   25.8484 N   0  0  0  0  0  0
    4.6970   54.4943   22.7790 Cl  0  0  0  0  0  0
    1.9185   53.1326   22.4225 Cl  0  0  0  0  0  0
   -2.4300   45.6965   26.8812 Cl  0  0  0  0  0  0
   -4.9697   47.2250   30.6722 H   0  0  0  0  0  0
   -3.2709   45.8685   29.5391 H   0  0  0  0  0  0
   -6.1477   48.8959   26.9017 H   0  0  0  0  0  0
   -2.0949   48.3667   25.6805 H   0  0  0  0  0  0
   -1.8963   51.8511   22.7451 H   0  0  0  0  0  0
   -0.2411   51.2532   22.7675 H   0  0  0  0  0  0
   -1.4227   53.0432   24.9686 H   0  0  0  0  0  0
   -0.4007   53.6223   23.6898 H   0  0  0  0  0  0
    1.0736   50.9565   26.5934 H   0  0  0  0  0  0
   -0.5690   51.5472   26.6935 H   0  0  0  0  0  0
    0.5354   49.6151   24.5679 H   0  0  0  0  0  0
   -0.5680   49.1891   25.8846 H   0  0  0  0  0  0
    2.2851   53.3453   26.3774 N   0  3  0  0  0  0
    1.7536   53.0564   27.1854 H   0  0  0  0  0  0
  1  6  2  0  0  0
  1  2  1  0  0  0
  1 34  1  0  0  0
  2  3  2  0  0  0
  2 35  1  0  0  0
  3  4  1  0  0  0
  3 33  1  0  0  0
  4  5  2  0  0  0
  4 11  1  0  0  0
  5  6  1  0  0  0
  5 36  1  0  0  0
  6  7  1  0  0  0
  7  8  1  0  0  0
  7  9  1  0  0  0
  7 10  1  0  0  0
 11 12  2  0  0  0
 11 13  2  0  0  0
 11 14  1  0  0  0
 14 15  1  0  0  0
 14 37  1  0  0  0
 15 16  2  0  0  0
 15 17  1  0  0  0
 17 22  1  0  0  0
 17 18  1  0  0  0
 18 19  1  0  0  0
 18 38  1  0  0  0
 18 39  1  0  0  0
 19 20  1  0  0  0
 19 40  1  0  0  0
 19 41  1  0  0  0
 20 21  1  0  0  0
 20 23  1  0  0  0
 21 22  1  0  0  0
 21 42  1  0  0  0
 21 43  1  0  0  0
 22 44  1  0  0  0
 22 45  1  0  0  0
 23 24  2  0  0  0
 23 46  1  0  0  0
 24 25  1  0  0  0
 24 32  1  0  0  0
 25 26  2  0  0  0
 25 31  1  0  0  0
 26 27  1  0  0  0
 26 29  1  0  0  0
 27 28  1  0  0  0
 27 46  2  0  0  0
 29 30  3  0  0  0
 46 47  1  0  0  0
M  CHG  1  46   1
M  END
> <i_i_glide_confnum>
25

> <i_i_glide_lignum>
5425

> <i_i_glide_posenum>
375

> <i_i_glide_rotatable_bonds>
7

> <i_m_Source_File_Index>
2519

> <b_m_subgroup_collapsed>
0

> <r_i_docking_score>
-4.13866

> <r_i_glide_ecoul>
-4.88256

> <r_i_glide_eff_state_penalty>
0

> <r_i_glide_einternal>
5.36223

> <r_i_glide_emodel>
-48.9911

> <r_i_glide_energy>
-42.4606

> <r_i_glide_erotb>
0.214677

> <r_i_glide_esite>
-0.124894

> <r_i_glide_evdw>
-37.5781

> <r_i_glide_gscore>
-4.13866

> <r_i_glide_hbond>
-0.307554

> <r_i_glide_ligand_efficiency>
-0.121725

> <r_i_glide_ligand_efficiency_ln>
-0.914346

> <r_i_glide_ligand_efficiency_sa>
-0.394343

> <r_i_glide_lipo>
-1.67516

> <r_i_glide_metal>
0

> <r_i_glide_rewards>
0.365556

> <s_i_glide_gridfile>
wee1_glide-grid

> <s_m_Source_File>
wee1_decoys_glide_SP.sdf

> <s_m_Source_Path>
/Users/zhangxujun/Desktop

> <s_m_entry_id>
2794

> <s_m_entry_name>
wee1_decoys_glide_SP.2519

> <s_m_subgroup_title>
wee1_decoys_glide_SP

> <s_m_subgroupid>
wee1_decoys_glide_SP


$$$$
