ZINC60044323_2940
                    3D
 Schrodinger Suite 2024-2.
 69 72  0  0  1  0            999 V2000
    6.7043   55.0217   25.7631 C   0  0  0  0  0  0
    6.7946   54.9001   27.1490 C   0  0  0  0  0  0
    5.7937   54.2693   27.8712 C   0  0  0  0  0  0
    4.7158   53.7135   27.1905 C   0  0  0  0  0  0
    4.6512   53.7959   25.7947 C   0  0  0  0  0  0
    5.6305   54.4700   25.0803 C   0  0  0  0  0  0
    3.7187   52.8602   27.9498 C   0  0  0  0  0  0
    2.3369   53.4281   28.3353 N   0  3  1  0  0  0
    2.3898   54.3746   29.5601 C   0  0  0  0  0  0
    1.2179   54.0588   30.5120 C   0  0  0  0  0  0
   -0.1700   53.6905   29.9650 C   0  0  0  0  0  0
   -0.2933   52.7838   31.1869 C   0  0  0  0  0  0
    1.2354   52.6993   31.2281 C   0  0  0  0  0  0
    1.6085   54.0995   27.2039 C   0  0  0  0  0  0
    1.3038   53.2005   25.9847 C   0  0  0  0  0  0
    1.5038   53.6968   24.8777 O   0  0  0  0  0  0
    0.7787   51.9673   26.1657 N   0  0  0  0  0  0
    0.5175   51.0012   25.1652 C   0  0  0  0  0  0
   -0.3490   49.9527   25.4837 C   0  0  0  0  0  0
   -0.6245   48.9514   24.5483 C   0  0  0  0  0  0
   -0.0203   48.9751   23.2890 C   0  0  0  0  0  0
    0.8800   49.9936   22.9667 C   0  0  0  0  0  0
    1.1333   51.0024   23.8988 C   0  0  0  0  0  0
    1.7698   50.0210   21.3980 S   0  0  0  0  0  0
    3.0984   50.4966   21.7972 O   0  0  0  0  0  0
    1.6975   48.6419   20.9014 O   0  0  0  0  0  0
    0.7365   51.2078   20.6116 N   0  0  0  0  0  0
    0.7111   51.2348   19.3388 C   0  0  0  0  0  0
   -0.1157   52.2536   18.5608 C   0  0  0  0  0  0
    0.6656   53.1731   17.5930 C   0  0  0  0  0  0
    0.9906   52.5535   16.2225 C   0  0  0  0  0  0
    1.8934   51.3078   16.2441 C   0  0  0  0  0  0
    1.3783   50.1319   17.0906 C   0  0  0  0  0  0
    1.4361   50.3694   18.5273 N   0  0  0  0  0  0
    7.4797   55.5167   25.1943 H   0  0  0  0  0  0
    7.6430   55.2966   27.6817 H   0  0  0  0  0  0
    5.8865   54.1836   28.9435 H   0  0  0  0  0  0
    3.8780   53.2983   25.2346 H   0  0  0  0  0  0
    5.5776   54.5252   24.0025 H   0  0  0  0  0  0
    3.3934   52.0963   27.2812 H   0  0  0  0  0  0
    4.1369   52.3855   28.8408 H   0  0  0  0  0  0
    3.3443   54.2124   30.0653 H   0  0  0  0  0  0
    2.3926   55.4016   29.1911 H   0  0  0  0  0  0
    1.1303   54.8926   31.2189 H   0  0  0  0  0  0
   -0.8957   54.4967   29.9160 H   0  0  0  0  0  0
   -0.2002   53.0970   29.0518 H   0  0  0  0  0  0
   -0.7127   53.2969   32.0578 H   0  0  0  0  0  0
   -0.8201   51.8411   31.0195 H   0  0  0  0  0  0
    1.6095   51.8672   30.6292 H   0  0  0  0  0  0
    1.6761   52.6633   32.2259 H   0  0  0  0  0  0
    0.7071   54.5517   27.6247 H   0  0  0  0  0  0
    2.2877   54.8966   26.9073 H   0  0  0  0  0  0
    0.5150   51.6915   27.0995 H   0  0  0  0  0  0
   -0.8222   49.8955   26.4571 H   0  0  0  0  0  0
   -1.2993   48.1490   24.8104 H   0  0  0  0  0  0
   -0.2312   48.1876   22.5804 H   0  0  0  0  0  0
    1.8577   51.7523   23.6252 H   0  0  0  0  0  0
   -0.9353   51.7513   18.0468 H   0  0  0  0  0  0
   -0.6146   52.8961   19.2819 H   0  0  0  0  0  0
    0.0852   54.0834   17.4310 H   0  0  0  0  0  0
    1.5869   53.5153   18.0699 H   0  0  0  0  0  0
    1.4659   53.3135   15.6007 H   0  0  0  0  0  0
    0.0563   52.3081   15.7156 H   0  0  0  0  0  0
    2.8959   51.5750   16.5844 H   0  0  0  0  0  0
    2.0285   50.9573   15.2208 H   0  0  0  0  0  0
    1.9043   49.2122   16.8310 H   0  0  0  0  0  0
    0.3313   49.9478   16.8447 H   0  0  0  0  0  0
    2.0059   49.6874   19.0100 H   0  0  0  0  0  0
    1.8034   52.6296   28.6502 H   0  0  0  0  0  0
  1  6  2  0  0  0
  1  2  1  0  0  0
  1 35  1  0  0  0
  2  3  2  0  0  0
  2 36  1  0  0  0
  3  4  1  0  0  0
  3 37  1  0  0  0
  4  5  2  0  0  0
  4  7  1  0  0  0
  5  6  1  0  0  0
  5 38  1  0  0  0
  6 39  1  0  0  0
  7  8  1  0  0  0
  7 40  1  0  0  0
  7 41  1  0  0  0
  8  9  1  0  0  0
  8 14  1  0  0  0
  8 69  1  0  0  0
  9 10  1  0  0  0
  9 42  1  0  0  0
  9 43  1  0  0  0
 10 13  1  0  0  0
 10 11  1  0  0  0
 10 44  1  0  0  0
 11 12  1  0  0  0
 11 45  1  0  0  0
 11 46  1  0  0  0
 12 13  1  0  0  0
 12 47  1  0  0  0
 12 48  1  0  0  0
 13 49  1  0  0  0
 13 50  1  0  0  0
 14 15  1  0  0  0
 14 51  1  0  0  0
 14 52  1  0  0  0
 15 16  2  0  0  0
 15 17  1  0  0  0
 17 18  1  0  0  0
 17 53  1  0  0  0
 18 23  2  0  0  0
 18 19  1  0  0  0
 19 20  2  0  0  0
 19 54  1  0  0  0
 20 21  1  0  0  0
 20 55  1  0  0  0
 21 22  2  0  0  0
 21 56  1  0  0  0
 22 23  1  0  0  0
 22 24  1  0  0  0
 23 57  1  0  0  0
 24 25  2  0  0  0
 24 26  2  0  0  0
 24 27  1  0  0  0
 27 28  2  0  0  0
 28 34  1  0  0  0
 28 29  1  0  0  0
 29 30  1  0  0  0
 29 58  1  0  0  0
 29 59  1  0  0  0
 30 31  1  0  0  0
 30 60  1  0  0  0
 30 61  1  0  0  0
 31 32  1  0  0  0
 31 62  1  0  0  0
 31 63  1  0  0  0
 32 33  1  0  0  0
 32 64  1  0  0  0
 32 65  1  0  0  0
 33 34  1  0  0  0
 33 66  1  0  0  0
 33 67  1  0  0  0
 34 68  1  0  0  0
M  CHG  1   8   1
M  END
> <i_i_glide_confnum>
263

> <i_i_glide_lignum>
2941

> <i_i_glide_posenum>
395

> <i_i_glide_rotatable_bonds>
10

> <i_m_Source_File_Index>
123

> <b_m_subgroup_collapsed>
0

> <r_i_docking_score>
-3.69666

> <r_i_glide_ecoul>
-0.347888

> <r_i_glide_eff_state_penalty>
0

> <r_i_glide_einternal>
16.8423

> <r_i_glide_emodel>
-35.9431

> <r_i_glide_energy>
-34.6022

> <r_i_glide_erotb>
0.694348

> <r_i_glide_esite>
-0.061246

> <r_i_glide_evdw>
-34.2543

> <r_i_glide_gscore>
-3.69666

> <r_i_glide_hbond>
0

> <r_i_glide_ligand_efficiency>
-0.108725

> <r_i_glide_ligand_efficiency_ln>
-0.816695

> <r_i_glide_ligand_efficiency_sa>
-0.352227

> <r_i_glide_lipo>
-2.09045

> <r_i_glide_metal>
0

> <r_i_glide_rewards>
-0.474408

> <s_i_glide_gridfile>
wee1_glide-grid

> <s_m_Source_File>
wee1_decoys_glide_SP.sdf

> <s_m_Source_Path>
/Users/zhangxujun/Desktop

> <s_m_entry_id>
398

> <s_m_entry_name>
wee1_decoys_glide_SP.123

> <s_m_subgroup_title>
wee1_decoys_glide_SP

> <s_m_subgroupid>
wee1_decoys_glide_SP


$$$$
