@<TRIPOS>MOLECULE
ZINC02418952_3959
57   61    1
SMALL
USER_CHARGES


@<TRIPOS>ATOM
      1 C1         -4.5717   50.1205   20.0985 C.3       1 UNK         0.0000 
      2 C2         -3.0687   49.9342   20.0031 C.ar      1 UNK         0.0000 
      3 C3         -2.4381   48.9828   20.8092 C.ar      1 UNK         0.0000 
      4 C4         -1.0567   48.8190   20.7411 C.ar      1 UNK         0.0000 
      5 C5         -0.3090   49.6139   19.8699 C.ar      1 UNK         0.0000 
      6 C6         -0.9380   50.5585   19.0565 C.ar      1 UNK         0.0000 
      7 C7         -2.3191   50.7193   19.1239 C.ar      1 UNK         0.0000 
      8 S8          1.4755   49.4781   19.8267 S.o2      1 UNK         0.0000 
      9 O9          1.9037   49.8005   18.4638 O.2       1 UNK         0.0000 
     10 O10         1.8642   48.2248   20.4819 O.2       1 UNK         0.0000 
     11 C11         1.9919   50.8364   20.8972 C.ar      1 UNK         0.0000 
     12 C12         1.5602   51.0486   22.2382 C.ar      1 UNK         0.0000 
     13 C13         2.0517   52.3086   22.6490 C.ar      1 UNK         0.0000 
     14 N14         1.7650   52.8400   23.8360 N.ar      1 UNK         0.0000 
     15 C15         0.9989   52.1088   24.6906 C.ar      1 UNK         0.0000 
     16 C16         0.7023   52.6065   25.9765 C.ar      1 UNK         0.0000 
     17 C17        -0.0965   51.8708   26.8452 C.ar      1 UNK         0.0000 
     18 C18        -0.6019   50.6351   26.4591 C.ar      1 UNK         0.0000 
     19 C19        -0.3075   50.0972   25.2064 C.ar      1 UNK         0.0000 
     20 C20         0.4975   50.8304   24.3012 C.ar      1 UNK         0.0000 
     21 N21         0.7932   50.3325   23.0670 N.ar      1 UNK         0.0000 
     22 N22         2.8234   52.8286   21.6232 N.pl3     1 UNK         0.0000 
     23 C23         2.8066   51.9127   20.5724 C.ar      1 UNK         0.0000 
     24 N24         3.5045   52.1363   19.4212 N.pl3     1 UNK         0.0000 
     25 C25         3.5069   54.1313   21.6472 C.3       1 UNK         0.0000 
     26 C26         4.8555   54.0978   22.3961 C.3       1 UNK         0.0000 
     27 O27         4.6508   54.0664   23.8058 O.3       1 UNK         0.0000 
     28 C28         5.6169   54.4480   24.6899 C.2       1 UNK         0.0000 
     29 O29         6.7035   54.9214   24.3527 O.2       1 UNK         0.0000 
     30 C30         5.2286   54.2175   26.1226 C.ar      1 UNK         0.0000 
     31 C31         3.9594   53.7304   26.4616 C.ar      1 UNK         0.0000 
     32 C32         3.5923   53.5420   27.7880 C.ar      1 UNK         0.0000 
     33 C33         4.5007   53.8261   28.7950 C.ar      1 UNK         0.0000 
     34 C34         5.7791   54.2766   28.4814 C.ar      1 UNK         0.0000 
     35 C35         6.1425   54.4801   27.1523 C.ar      1 UNK         0.0000 
     36 F36         4.1273   53.6647   30.0830 F         1 UNK         0.0000 
     37 H37        -5.0875   49.2471   19.6992 H         1 UNK         0.0000 
     38 H38        -4.8701   50.2329   21.1412 H         1 UNK         0.0000 
     39 H39        -4.9108   51.0085   19.5649 H         1 UNK         0.0000 
     40 H40        -3.0155   48.3777   21.4936 H         1 UNK         0.0000 
     41 H41        -0.5677   48.0948   21.3769 H         1 UNK         0.0000 
     42 H42        -0.3555   51.1738   18.3847 H         1 UNK         0.0000 
     43 H43        -2.7998   51.4542   18.4943 H         1 UNK         0.0000 
     44 H44         1.0848   53.5715   26.2739 H         1 UNK         0.0000 
     45 H45        -0.3335   52.2607   27.8245 H         1 UNK         0.0000 
     46 H46        -1.2308   50.0965   27.1504 H         1 UNK         0.0000 
     47 H47        -0.6935   49.1278   24.9255 H         1 UNK         0.0000 
     48 H48         3.6916   51.3693   18.7743 H         1 UNK         0.0000 
     49 H49         4.0206   52.9827   19.2443 H         1 UNK         0.0000 
     50 H50         2.8348   54.8602   22.1022 H         1 UNK         0.0000 
     51 H51         3.6541   54.4774   20.6247 H         1 UNK         0.0000 
     52 H52         5.4001   55.0098   22.1451 H         1 UNK         0.0000 
     53 H53         5.4737   53.2609   22.0672 H         1 UNK         0.0000 
     54 H54         3.2441   53.4980   25.6972 H         1 UNK         0.0000 
     55 H55         2.6102   53.1731   28.0418 H         1 UNK         0.0000 
     56 H56         6.4828   54.4824   29.2729 H         1 UNK         0.0000 
     57 H57         7.1359   54.8450   26.9391 H         1 UNK         0.0000 
@<TRIPOS>BOND
     1    1    2 1    
     2    1   37 1    
     3    1   38 1    
     4    1   39 1    
     5    2    7 ar   
     6    2    3 ar   
     7    3    4 ar   
     8    3   40 1    
     9    4    5 ar   
    10    4   41 1    
    11    5    6 ar   
    12    5    8 1    
    13    6    7 ar   
    14    6   42 1    
    15    7   43 1    
    16    8    9 2    
    17    8   10 2    
    18    8   11 1    
    19   11   23 ar   
    20   11   12 ar   
    21   12   21 ar   
    22   12   13 ar   
    23   13   14 ar   
    24   13   22 ar   
    25   14   15 ar   
    26   15   20 ar   
    27   15   16 ar   
    28   16   17 ar   
    29   16   44 1    
    30   17   18 ar   
    31   17   45 1    
    32   18   19 ar   
    33   18   46 1    
    34   19   20 ar   
    35   19   47 1    
    36   20   21 ar   
    37   22   23 ar   
    38   22   25 1    
    39   23   24 1    
    40   24   48 1    
    41   24   49 1    
    42   25   26 1    
    43   25   50 1    
    44   25   51 1    
    45   26   27 1    
    46   26   52 1    
    47   26   53 1    
    48   27   28 1    
    49   28   29 2    
    50   28   30 1    
    51   30   35 ar   
    52   30   31 ar   
    53   31   32 ar   
    54   31   54 1    
    55   32   33 ar   
    56   32   55 1    
    57   33   34 ar   
    58   33   36 1    
    59   34   35 ar   
    60   34   56 1    
    61   35   57 1    
@<TRIPOS>SUBSTRUCTURE
     1 UNK         1 GROUP             0       ****    0 ROOT    
