@<TRIPOS>MOLECULE
ZINC18196881_4200
55   60    1
SMALL
USER_CHARGES


@<TRIPOS>ATOM
      1 C1          8.8222   57.4817   17.8176 C.ar      1 UNK         0.0000 
      2 C2          9.2992   56.2860   18.3520 C.ar      1 UNK         0.0000 
      3 C3          8.5378   55.5906   19.2875 C.ar      1 UNK         0.0000 
      4 C4          7.3010   56.1033   19.6907 C.ar      1 UNK         0.0000 
      5 C5          6.8231   57.3011   19.1441 C.ar      1 UNK         0.0000 
      6 C6          7.5850   57.9911   18.2057 C.ar      1 UNK         0.0000 
      7 N7          6.5243   55.4204   20.6364 N.pl3     1 UNK         0.0000 
      8 C8          5.2992   54.8870   20.4263 C.ar      1 UNK         0.0000 
      9 O9          4.6750   54.8369   19.3678 O.2       1 UNK         0.0000 
     10 C10         4.9005   54.3896   21.7243 C.ar      1 UNK         0.0000 
     11 C11         5.9245   54.5875   22.5580 C.ar      1 UNK         0.0000 
     12 N12         6.9830   55.1844   21.9250 N.pl3     1 UNK         0.0000 
     13 H13         7.4060   56.0511   22.2233 H         1 UNK         0.0000 
     14 N14         5.8495   54.4213   23.9130 N.pl3     1 UNK         0.0000 
     15 C15         4.6622   54.0919   24.5412 C.2       1 UNK         0.0000 
     16 C16         3.5127   53.9231   23.8100 C.2       1 UNK         0.0000 
     17 C17         3.5041   53.9710   22.2389 C.3       1 UNK         0.0000 
     18 H18         2.7972   54.7450   21.9349 H         1 UNK         0.0000 
     19 C19         2.9225   52.7157   21.5305 C.ar      1 UNK         0.0000 
     20 C20         3.7583   51.7895   20.8937 C.ar      1 UNK         0.0000 
     21 C21         3.2227   50.7051   20.2034 C.ar      1 UNK         0.0000 
     22 C22         1.8492   50.5039   20.1498 C.ar      1 UNK         0.0000 
     23 C23         0.9792   51.4048   20.7727 C.ar      1 UNK         0.0000 
     24 C24         1.5352   52.5040   21.4443 C.ar      1 UNK         0.0000 
     25 N25        -0.4908   51.2160   20.6976 N.pl3     1 UNK         0.0000 
     26 O26        -0.9268   50.2514   20.0763 O.co2     1 UNK         0.0000 
     27 O27        -1.2222   52.0283   21.2582 O.co2     1 UNK         0.0000 
     28 C28         2.2230   53.7587   24.5000 C.2       1 UNK         0.0000 
     29 O29         1.1548   54.0971   23.9975 O.2       1 UNK         0.0000 
     30 C30         2.2720   53.3619   25.9713 C.3       1 UNK         0.0000 
     31 C31         3.3656   54.0972   26.7712 C.3       1 UNK         0.0000 
     32 H32         3.1059   55.1570   26.7725 H         1 UNK         0.0000 
     33 C33         4.7482   53.9894   26.0727 C.3       1 UNK         0.0000 
     34 C34         3.3461   53.6029   28.2135 C.2       1 UNK         0.0000 
     35 C35         4.3230   52.9339   28.9575 C.2       1 UNK         0.0000 
     36 C36         3.9020   52.4984   30.2173 C.2       1 UNK         0.0000 
     37 C37         2.5889   52.8354   30.4815 C.2       1 UNK         0.0000 
     38 S38         1.8987   53.7500   29.1864 S.3       1 UNK         0.0000 
     39 H39         9.4150   58.0164   17.0902 H         1 UNK         0.0000 
     40 H40        10.2593   55.8982   18.0447 H         1 UNK         0.0000 
     41 H41         8.9096   54.6569   19.6849 H         1 UNK         0.0000 
     42 H42         5.8599   57.6960   19.4330 H         1 UNK         0.0000 
     43 H43         7.2153   58.9144   17.7807 H         1 UNK         0.0000 
     44 H44         6.6754   54.5682   24.4729 H         1 UNK         0.0000 
     45 H45         4.8309   51.9130   20.9036 H         1 UNK         0.0000 
     46 H46         3.8808   50.0278   19.6821 H         1 UNK         0.0000 
     47 H47         1.4690   49.6566   19.5969 H         1 UNK         0.0000 
     48 H48         0.8644   53.2392   21.8543 H         1 UNK         0.0000 
     49 H49         1.2813   53.5039   26.4026 H         1 UNK         0.0000 
     50 H50         2.4502   52.2899   25.9995 H         1 UNK         0.0000 
     51 H51         5.2827   53.0706   26.3154 H         1 UNK         0.0000 
     52 H52         5.3434   54.8225   26.4499 H         1 UNK         0.0000 
     53 H53         5.3133   52.7266   28.5808 H         1 UNK         0.0000 
     54 H54         4.5312   51.9470   30.9013 H         1 UNK         0.0000 
     55 H55         2.0049   52.6105   31.3641 H         1 UNK         0.0000 
@<TRIPOS>BOND
     1    1    6 ar   
     2    1    2 ar   
     3    1   39 1    
     4    2    3 ar   
     5    2   40 1    
     6    3    4 ar   
     7    3   41 1    
     8    4    5 ar   
     9    4    7 1    
    10    5    6 ar   
    11    5   42 1    
    12    6   43 1    
    13    7   12 1    
    14    7    8 ar   
    15    8    9 2    
    16    8   10 ar   
    17   10   17 1    
    18   10   11 ar   
    19   11   12 ar   
    20   11   14 1    
    21   12   13 1    
    22   14   15 1    
    23   14   44 1    
    24   15   33 1    
    25   15   16 2    
    26   16   17 1    
    27   16   28 1    
    28   17   18 1    
    29   17   19 1    
    30   19   24 ar   
    31   19   20 ar   
    32   20   21 ar   
    33   20   45 1    
    34   21   22 ar   
    35   21   46 1    
    36   22   23 ar   
    37   22   47 1    
    38   23   24 ar   
    39   23   25 1    
    40   24   48 1    
    41   25   26 2    
    42   25   27 1    
    43   28   29 2    
    44   28   30 1    
    45   30   31 1    
    46   30   49 1    
    47   30   50 1    
    48   31   32 1    
    49   31   33 1    
    50   31   34 1    
    51   33   51 1    
    52   33   52 1    
    53   34   38 1    
    54   34   35 2    
    55   35   36 1    
    56   35   53 1    
    57   36   37 2    
    58   36   54 1    
    59   37   38 1    
    60   37   55 1    
@<TRIPOS>SUBSTRUCTURE
     1 UNK         1 GROUP             0       ****    0 ROOT    
