@<TRIPOS>MOLECULE
ZINC35646798_5688
80   82    1
SMALL
USER_CHARGES


@<TRIPOS>ATOM
      1 C1          0.8972   48.8542   25.5519 C.3       1 UNK         0.0000 
      2 C2          0.3062   48.5348   24.1840 C.3       1 UNK         0.0000 
      3 O3         -0.8576   49.3470   24.0736 O.3       1 UNK         0.0000 
      4 C4         -2.0928   48.8557   24.2389 C.2       1 UNK         0.0000 
      5 O5         -2.3123   47.6419   24.1831 O.2       1 UNK         0.0000 
      6 C6         -3.1772   49.8771   24.4258 C.2       1 UNK         0.0000 
      7 C7         -3.0082   51.2280   24.6206 C.2       1 UNK         0.0000 
      8 N8         -4.1072   52.0787   24.7625 N.am      1 UNK         0.0000 
      9 C9         -5.3972   51.6258   24.8942 C.2       1 UNK         0.0000 
     10 O10        -6.3391   52.2365   25.3994 O.2       1 UNK         0.0000 
     11 N11        -5.6098   50.3440   24.5279 N.am      1 UNK         0.0000 
     12 C12        -4.6071   49.2705   24.4288 C.3       1 UNK         0.0000 
     13 H13        -4.7815   48.8592   23.4309 H         1 UNK         0.0000 
     14 C14        -4.8699   48.1163   25.4196 C.ar      1 UNK         0.0000 
     15 C15        -5.1748   46.8424   24.9192 C.ar      1 UNK         0.0000 
     16 C16        -5.3296   45.7553   25.7751 C.ar      1 UNK         0.0000 
     17 C17        -5.1840   45.9167   27.1584 C.ar      1 UNK         0.0000 
     18 C18        -4.9108   47.1879   27.6567 C.ar      1 UNK         0.0000 
     19 C19        -4.7570   48.2998   26.8110 C.ar      1 UNK         0.0000 
     20 O20        -4.5020   49.5766   27.2804 O.3       1 UNK         0.0000 
     21 C21        -4.5196   49.8129   28.6851 C.3       1 UNK         0.0000 
     22 O22        -5.2969   44.8962   28.0816 O.3       1 UNK         0.0000 
     23 C23        -5.3437   43.5480   27.6214 C.3       1 UNK         0.0000 
     24 C24        -4.0190   53.5547   24.8568 C.3       1 UNK         0.0000 
     25 C25        -1.6355   51.9447   24.8153 C.3       1 UNK         0.0000 
     26 N26        -0.9686   51.6377   26.1881 N.4       1 UNK         0.0000 
     27 C27        -1.8629   52.0640   27.3685 C.3       1 UNK         0.0000 
     28 C28        -1.3862   51.5571   28.7421 C.3       1 UNK         0.0000 
     29 C29        -0.2567   52.3615   29.4279 C.3       1 UNK         0.0000 
     30 N30         1.0660   52.3430   28.7784 N.am      1 UNK         0.0000 
     31 C31         1.2018   51.5773   27.5283 C.3       1 UNK         0.0000 
     32 C32         0.4607   52.2137   26.3284 C.3       1 UNK         0.0000 
     33 C33         2.0217   53.2220   29.1935 C.2       1 UNK         0.0000 
     34 O34         1.8207   54.0755   30.0598 O.2       1 UNK         0.0000 
     35 N35         3.2648   52.9690   28.7261 N.am      1 UNK         0.0000 
     36 C36         4.3166   53.9258   28.3742 C.3       1 UNK         0.0000 
     37 C37         5.6006   53.1396   28.0543 C.3       1 UNK         0.0000 
     38 C38         4.6074   54.9154   29.5192 C.3       1 UNK         0.0000 
     39 C39         3.8985   54.6885   27.0997 C.3       1 UNK         0.0000 
     40 H40         1.9036   48.4967   25.6881 H         1 UNK         0.0000 
     41 H41         1.0138   49.9129   25.6191 H         1 UNK         0.0000 
     42 H42         0.2719   48.4987   26.3731 H         1 UNK         0.0000 
     43 H43         0.1098   47.4654   24.0807 H         1 UNK         0.0000 
     44 H44         1.0097   48.8174   23.4003 H         1 UNK         0.0000 
     45 H45        -6.5761   50.0554   24.5650 H         1 UNK         0.0000 
     46 H46        -5.2694   46.6814   23.8546 H         1 UNK         0.0000 
     47 H47        -5.5640   44.7933   25.3496 H         1 UNK         0.0000 
     48 H48        -4.7943   47.2893   28.7239 H         1 UNK         0.0000 
     49 H49        -4.4187   50.8807   28.8746 H         1 UNK         0.0000 
     50 H50        -5.4621   49.4986   29.1382 H         1 UNK         0.0000 
     51 H51        -3.6949   49.3043   29.1864 H         1 UNK         0.0000 
     52 H52        -5.2879   42.8697   28.4712 H         1 UNK         0.0000 
     53 H53        -6.2729   43.3368   27.0923 H         1 UNK         0.0000 
     54 H54        -4.4981   43.3195   26.9730 H         1 UNK         0.0000 
     55 H55        -4.9776   54.0760   24.8083 H         1 UNK         0.0000 
     56 H56        -3.5463   53.8495   25.7935 H         1 UNK         0.0000 
     57 H57        -3.4333   53.9504   24.0260 H         1 UNK         0.0000 
     58 H58        -1.6400   53.0314   24.7580 H         1 UNK         0.0000 
     59 H59        -0.9324   51.6382   24.0431 H         1 UNK         0.0000 
     60 H60        -2.8450   51.6439   27.1622 H         1 UNK         0.0000 
     61 H61        -1.8931   53.1433   27.2807 H         1 UNK         0.0000 
     62 H62        -1.1195   50.5029   28.6721 H         1 UNK         0.0000 
     63 H63        -2.2437   51.5592   29.4087 H         1 UNK         0.0000 
     64 H64        -0.1520   52.0346   30.4643 H         1 UNK         0.0000 
     65 H65        -0.5871   53.4008   29.4664 H         1 UNK         0.0000 
     66 H66         2.2462   51.4157   27.2818 H         1 UNK         0.0000 
     67 H67         0.8387   50.5654   27.7108 H         1 UNK         0.0000 
     68 H68         0.3791   53.2959   26.4044 H         1 UNK         0.0000 
     69 H69         0.9742   52.0067   25.3867 H         1 UNK         0.0000 
     70 H70         3.4094   52.0539   28.3316 H         1 UNK         0.0000 
     71 H71         6.4398   53.8032   27.8430 H         1 UNK         0.0000 
     72 H72         5.4725   52.4986   27.1813 H         1 UNK         0.0000 
     73 H73         5.8930   52.4982   28.8801 H         1 UNK         0.0000 
     74 H74         3.8160   55.6629   29.6173 H         1 UNK         0.0000 
     75 H75         4.7022   54.4136   30.4808 H         1 UNK         0.0000 
     76 H76         5.5304   55.4650   29.3500 H         1 UNK         0.0000 
     77 H77         3.0119   55.2966   27.2758 H         1 UNK         0.0000 
     78 H78         4.6963   55.3422   26.7472 H         1 UNK         0.0000 
     79 H79         3.6662   54.0070   26.2798 H         1 UNK         0.0000 
     80 H80        -0.9030   50.6263   26.2417 H         1 UNK         0.0000 
@<TRIPOS>BOND
     1    1    2 1    
     2    1   40 1    
     3    1   41 1    
     4    1   42 1    
     5    2    3 1    
     6    2   43 1    
     7    2   44 1    
     8    3    4 1    
     9    4    5 2    
    10    4    6 1    
    11    6   12 1    
    12    6    7 2    
    13    7    8 1    
    14    7   25 1    
    15    8    9 am   BACKBONE|DICT|INTERRES
    16    8   24 1    
    17    9   10 2    
    18    9   11 am   BACKBONE|DICT|INTERRES
    19   11   12 1    
    20   11   45 1    
    21   12   13 1    
    22   12   14 1    
    23   14   19 ar   
    24   14   15 ar   
    25   15   16 ar   
    26   15   46 1    
    27   16   17 ar   
    28   16   47 1    
    29   17   18 ar   
    30   17   22 1    
    31   18   19 ar   
    32   18   48 1    
    33   19   20 1    
    34   20   21 1    
    35   21   49 1    
    36   21   50 1    
    37   21   51 1    
    38   22   23 1    
    39   23   52 1    
    40   23   53 1    
    41   23   54 1    
    42   24   55 1    
    43   24   56 1    
    44   24   57 1    
    45   25   26 1    
    46   25   58 1    
    47   25   59 1    
    48   26   32 1    
    49   26   27 1    
    50   26   80 1    
    51   27   28 1    
    52   27   60 1    
    53   27   61 1    
    54   28   29 1    
    55   28   62 1    
    56   28   63 1    
    57   29   30 1    
    58   29   64 1    
    59   29   65 1    
    60   30   31 1    
    61   30   33 am   BACKBONE|DICT|INTERRES
    62   31   32 1    
    63   31   66 1    
    64   31   67 1    
    65   32   68 1    
    66   32   69 1    
    67   33   34 2    
    68   33   35 am   BACKBONE|DICT|INTERRES
    69   35   36 1    
    70   35   70 1    
    71   36   37 1    
    72   36   38 1    
    73   36   39 1    
    74   37   71 1    
    75   37   72 1    
    76   37   73 1    
    77   38   74 1    
    78   38   75 1    
    79   38   76 1    
    80   39   77 1    
    81   39   78 1    
    82   39   79 1    
@<TRIPOS>SUBSTRUCTURE
     1 UNK         1 GROUP             0       ****    0 ROOT    
