@<TRIPOS>MOLECULE
ZINC51097582_1353
58   60    1
SMALL
USER_CHARGES


@<TRIPOS>ATOM
      1 C1         -3.9025   46.8349   20.5149 C.3       1 UNK         0.0000 
      2 C2         -2.6404   47.1606   19.7577 C.2       1 UNK         0.0000 
      3 C3         -1.9566   46.5618   18.7090 C.2       1 UNK         0.0000 
      4 C4         -0.8424   47.3617   18.4409 C.2       1 UNK         0.0000 
      5 C5         -0.8674   48.4032   19.3667 C.2       1 UNK         0.0000 
      6 O6         -1.9843   48.2888   20.1370 O.3       1 UNK         0.0000 
      7 C7         -0.0271   49.5554   19.5567 C.2       1 UNK         0.0000 
      8 O8         -0.4013   50.5268   20.2158 O.2       1 UNK         0.0000 
      9 N9          1.1883   49.4503   18.9882 N.am      1 UNK         0.0000 
     10 C10         2.2769   50.4226   19.0905 C.3       1 UNK         0.0000 
     11 C11         2.8027   50.6262   20.5279 C.3       1 UNK         0.0000 
     12 C12         3.9735   51.6087   20.6150 C.3       1 UNK         0.0000 
     13 N13         3.5177   52.9673   20.0209 N.4       1 UNK         0.0000 
     14 C14         3.1672   52.7741   18.5248 C.3       1 UNK         0.0000 
     15 C15         2.0012   51.7792   18.3998 C.3       1 UNK         0.0000 
     16 C16         4.6488   54.0342   20.1072 C.3       1 UNK         0.0000 
     17 C17         5.0188   54.4862   21.5329 C.2       1 UNK         0.0000 
     18 O18         5.9314   55.2970   21.6371 O.2       1 UNK         0.0000 
     19 N19         4.3373   53.9722   22.5801 N.am      1 UNK         0.0000 
     20 C20         4.5402   54.1377   23.9673 C.ar      1 UNK         0.0000 
     21 C21         3.3848   54.2467   24.7670 C.ar      1 UNK         0.0000 
     22 C22         3.5077   54.3829   26.1535 C.ar      1 UNK         0.0000 
     23 C23         4.7603   54.3777   26.7636 C.ar      1 UNK         0.0000 
     24 C24         5.9032   54.2383   25.9801 C.ar      1 UNK         0.0000 
     25 C25         5.8106   54.0966   24.5923 C.ar      1 UNK         0.0000 
     26 C26         7.1008   53.8054   23.8434 C.3       1 UNK         0.0000 
     27 C27         4.8796   54.5049   28.2722 C.3       1 UNK         0.0000 
     28 C28         1.9807   54.2078   24.1635 C.3       1 UNK         0.0000 
     29 H29        -4.3558   45.9028   20.1715 H         1 UNK         0.0000 
     30 H30        -3.7070   46.7285   21.5838 H         1 UNK         0.0000 
     31 H31        -4.6481   47.6227   20.3970 H         1 UNK         0.0000 
     32 H32        -2.2422   45.6580   18.1892 H         1 UNK         0.0000 
     33 H33        -0.1090   47.1982   17.6621 H         1 UNK         0.0000 
     34 H34         1.3928   48.6202   18.4512 H         1 UNK         0.0000 
     35 H35         3.1023   49.9638   18.5410 H         1 UNK         0.0000 
     36 H36         3.1037   49.6778   20.9613 H         1 UNK         0.0000 
     37 H37         1.9998   51.0010   21.1645 H         1 UNK         0.0000 
     38 H38         4.8679   51.2950   20.0817 H         1 UNK         0.0000 
     39 H39         4.2381   51.7185   21.6621 H         1 UNK         0.0000 
     40 H40         2.8670   53.7469   18.1322 H         1 UNK         0.0000 
     41 H41         4.0646   52.4274   18.0057 H         1 UNK         0.0000 
     42 H42         1.1118   52.2404   18.8314 H         1 UNK         0.0000 
     43 H43         1.7898   51.6115   17.3426 H         1 UNK         0.0000 
     44 H44         4.3103   54.8968   19.5306 H         1 UNK         0.0000 
     45 H45         5.5200   53.6084   19.6058 H         1 UNK         0.0000 
     46 H46         3.4901   53.4750   22.3580 H         1 UNK         0.0000 
     47 H47         2.6233   54.4738   26.7683 H         1 UNK         0.0000 
     48 H48         6.8691   54.1986   26.4609 H         1 UNK         0.0000 
     49 H49         6.9344   53.1051   23.0268 H         1 UNK         0.0000 
     50 H50         7.5045   54.7339   23.4480 H         1 UNK         0.0000 
     51 H51         7.8469   53.3339   24.4805 H         1 UNK         0.0000 
     52 H52         4.8262   53.5234   28.7418 H         1 UNK         0.0000 
     53 H53         4.0825   55.1309   28.6747 H         1 UNK         0.0000 
     54 H54         5.8203   54.9766   28.5574 H         1 UNK         0.0000 
     55 H55         1.7555   53.2071   23.7936 H         1 UNK         0.0000 
     56 H56         1.2108   54.4911   24.8800 H         1 UNK         0.0000 
     57 H57         1.9009   54.8962   23.3227 H         1 UNK         0.0000 
     58 H58         2.6914   53.3166   20.4933 H         1 UNK         0.0000 
@<TRIPOS>BOND
     1    1    2 1    
     2    1   29 1    
     3    1   30 1    
     4    1   31 1    
     5    2    6 1    
     6    2    3 2    
     7    3    4 1    
     8    3   32 1    
     9    4    5 2    
    10    4   33 1    
    11    5    6 1    
    12    5    7 1    
    13    7    8 2    
    14    7    9 am   BACKBONE|DICT|INTERRES
    15    9   10 1    
    16    9   34 1    
    17   10   15 1    
    18   10   11 1    
    19   10   35 1    
    20   11   12 1    
    21   11   36 1    
    22   11   37 1    
    23   12   13 1    
    24   12   38 1    
    25   12   39 1    
    26   13   14 1    
    27   13   16 1    
    28   13   58 1    
    29   14   15 1    
    30   14   40 1    
    31   14   41 1    
    32   15   42 1    
    33   15   43 1    
    34   16   17 1    
    35   16   44 1    
    36   16   45 1    
    37   17   18 2    
    38   17   19 am   BACKBONE|DICT|INTERRES
    39   19   20 1    
    40   19   46 1    
    41   20   25 ar   
    42   20   21 ar   
    43   21   22 ar   
    44   21   28 1    
    45   22   23 ar   
    46   22   47 1    
    47   23   24 ar   
    48   23   27 1    
    49   24   25 ar   
    50   24   48 1    
    51   25   26 1    
    52   26   49 1    
    53   26   50 1    
    54   26   51 1    
    55   27   52 1    
    56   27   53 1    
    57   27   54 1    
    58   28   55 1    
    59   28   56 1    
    60   28   57 1    
@<TRIPOS>SUBSTRUCTURE
     1 UNK         1 GROUP             0       ****    0 ROOT    
