ZINC64794457_860
                    3D
 Schrodinger Suite 2024-2.
 50 54  0  0  1  0            999 V2000
    6.3884   54.4492   27.4778 C   0  0  0  0  0  0
    6.7255   54.6469   26.1079 O   0  0  0  0  0  0
    5.7499   54.4670   25.1451 C   0  0  0  0  0  0
    6.1756   54.4821   23.8152 C   0  0  0  0  0  0
    5.2686   54.2846   22.7735 C   0  0  0  0  0  0
    3.9166   54.0906   23.0541 C   0  0  0  0  0  0
    3.4676   54.0646   24.3778 C   0  0  0  0  0  0
    4.3856   54.2589   25.4183 C   0  0  0  0  0  0
    1.9911   53.8349   24.6753 C   0  0  0  0  0  0
    1.5045   52.0985   24.4253 S   0  0  0  0  0  0
   -0.2356   52.2998   24.5758 C   0  0  0  0  0  0
   -0.9534   52.8958   23.6651 N   0  0  0  0  0  0
   -2.2712   52.8692   24.0819 N   0  0  0  0  0  0
   -2.3095   52.2499   25.2372 C   0  0  0  0  0  0
   -1.0287   51.8789   25.6294 N   0  0  0  0  0  0
   -0.5784   51.1833   26.8425 C   0  0  0  0  0  0
   -0.1957   52.0951   27.9887 C   0  0  0  0  0  0
   -0.4956   52.0958   29.3441 C   0  0  0  0  0  0
    0.1840   53.1698   29.9175 C   0  0  0  0  0  0
    0.8746   53.7834   28.8859 C   0  0  0  0  0  0
    0.6552   53.1216   27.7200 O   0  0  0  0  0  0
   -3.5754   52.0642   25.9498 C   0  0  0  0  0  0
   -4.1598   50.9232   26.4929 C   0  0  0  0  0  0
   -5.4197   51.1726   27.1206 C   0  0  0  0  0  0
   -6.3063   50.3261   27.8202 C   0  0  0  0  0  0
   -7.4863   50.8675   28.3318 C   0  0  0  0  0  0
   -7.7547   52.2201   28.1305 C   0  0  0  0  0  0
   -6.9375   53.0691   27.4564 N   0  0  0  0  0  0
   -5.8120   52.5339   26.9763 C   0  0  0  0  0  0
   -4.6297   53.4638   26.0817 S   0  0  0  0  0  0
   -3.6024   49.6754   26.4253 N   0  0  0  0  0  0
    7.2961   54.4966   28.0796 H   0  0  0  0  0  0
    5.7064   55.2215   27.8364 H   0  0  0  0  0  0
    5.9424   53.4671   27.6460 H   0  0  0  0  0  0
    7.2212   54.6392   23.5909 H   0  0  0  0  0  0
    5.6114   54.2905   21.7495 H   0  0  0  0  0  0
    3.2194   53.9462   22.2403 H   0  0  0  0  0  0
    4.0275   54.2383   26.4363 H   0  0  0  0  0  0
    1.3916   54.4859   24.0379 H   0  0  0  0  0  0
    1.7659   54.1060   25.7043 H   0  0  0  0  0  0
   -1.3516   50.4969   27.1708 H   0  0  0  0  0  0
    0.2651   50.5484   26.5678 H   0  0  0  0  0  0
   -1.1278   51.3843   29.8579 H   0  0  0  0  0  0
    0.1690   53.4564   30.9598 H   0  0  0  0  0  0
    1.5304   54.6398   28.8325 H   0  0  0  0  0  0
   -6.0737   49.2813   27.9622 H   0  0  0  0  0  0
   -8.1837   50.2453   28.8755 H   0  0  0  0  0  0
   -8.6649   52.6527   28.5181 H   0  0  0  0  0  0
   -2.6962   49.5250   25.9989 H   0  0  0  0  0  0
   -3.9617   48.8934   26.9557 H   0  0  0  0  0  0
  1  2  1  0  0  0
  1 32  1  0  0  0
  1 33  1  0  0  0
  1 34  1  0  0  0
  2  3  1  0  0  0
  3  8  2  0  0  0
  3  4  1  0  0  0
  4  5  2  0  0  0
  4 35  1  0  0  0
  5  6  1  0  0  0
  5 36  1  0  0  0
  6  7  2  0  0  0
  6 37  1  0  0  0
  7  8  1  0  0  0
  7  9  1  0  0  0
  8 38  1  0  0  0
  9 10  1  0  0  0
  9 39  1  0  0  0
  9 40  1  0  0  0
 10 11  1  0  0  0
 11 15  1  0  0  0
 11 12  2  0  0  0
 12 13  1  0  0  0
 13 14  2  0  0  0
 14 15  1  0  0  0
 14 22  1  0  0  0
 15 16  1  0  0  0
 16 17  1  0  0  0
 16 41  1  0  0  0
 16 42  1  0  0  0
 17 21  1  0  0  0
 17 18  2  0  0  0
 18 19  1  0  0  0
 18 43  1  0  0  0
 19 20  2  0  0  0
 19 44  1  0  0  0
 20 21  1  0  0  0
 20 45  1  0  0  0
 22 30  1  0  0  0
 22 23  2  0  0  0
 23 24  1  0  0  0
 23 31  1  0  0  0
 24 29  2  0  0  0
 24 25  1  0  0  0
 25 26  2  0  0  0
 25 46  1  0  0  0
 26 27  1  0  0  0
 26 47  1  0  0  0
 27 28  2  0  0  0
 27 48  1  0  0  0
 28 29  1  0  0  0
 29 30  1  0  0  0
 31 49  1  0  0  0
 31 50  1  0  0  0
M  END
> <i_i_glide_confnum>
12

> <i_i_glide_lignum>
861

> <i_i_glide_posenum>
9

> <i_i_glide_rotatable_bonds>
7

> <i_m_Source_File_Index>
2385

> <b_m_subgroup_collapsed>
0

> <r_i_docking_score>
-5.5644

> <r_i_glide_ecoul>
-4.6871

> <r_i_glide_eff_state_penalty>
0

> <r_i_glide_einternal>
2.50068

> <r_i_glide_emodel>
-63.4726

> <r_i_glide_energy>
-47.2845

> <r_i_glide_erotb>
0.595019

> <r_i_glide_esite>
-0.0793284

> <r_i_glide_evdw>
-42.5974

> <r_i_glide_gscore>
-5.5644

> <r_i_glide_hbond>
-0.177844

> <r_i_glide_ligand_efficiency>
-0.179497

> <r_i_glide_ligand_efficiency_ln>
-1.25494

> <r_i_glide_ligand_efficiency_sa>
-0.563868

> <r_i_glide_lipo>
-2.63567

> <r_i_glide_metal>
0

> <r_i_glide_rewards>
-0.433645

> <s_i_glide_gridfile>
wee1_glide-grid

> <s_m_Source_File>
wee1_decoys_glide_SP.sdf

> <s_m_Source_Path>
/Users/zhangxujun/Desktop

> <s_m_entry_id>
2660

> <s_m_entry_name>
wee1_decoys_glide_SP.2385

> <s_m_subgroup_title>
wee1_decoys_glide_SP

> <s_m_subgroupid>
wee1_decoys_glide_SP


$$$$
