@<TRIPOS>MOLECULE
ZINC32117804_3572
39   41    1
SMALL
USER_CHARGES


@<TRIPOS>ATOM
      1 C1          1.2740   52.1283   31.9096 C.3       1 UNK         0.0000 
      2 C2          1.9509   52.6310   30.6470 C.ar      1 UNK         0.0000 
      3 C3          3.3312   52.4963   30.4885 C.ar      1 UNK         0.0000 
      4 C4          3.9475   52.9592   29.3296 C.ar      1 UNK         0.0000 
      5 C5          3.1823   53.5645   28.3228 C.ar      1 UNK         0.0000 
      6 C6          1.8007   53.6913   28.4847 C.ar      1 UNK         0.0000 
      7 C7          1.1857   53.2262   29.6441 C.ar      1 UNK         0.0000 
      8 N8          3.7105   54.0043   27.0979 N.am      1 UNK         0.0000 
      9 C9          4.9936   54.1974   26.7324 C.2       1 UNK         0.0000 
     10 O10         5.9421   54.2653   27.5159 O.2       1 UNK         0.0000 
     11 C11         5.1841   54.3473   25.2986 C.2       1 UNK         0.0000 
     12 C12         4.3409   54.0303   24.2200 C.2       1 UNK         0.0000 
     13 C13         4.9410   54.2777   22.9372 C.ar      1 UNK         0.0000 
     14 C14         4.4903   54.0384   21.6121 C.ar      1 UNK         0.0000 
     15 C15         5.2789   54.5150   20.5608 C.ar      1 UNK         0.0000 
     16 C16         6.4719   55.1905   20.8284 C.ar      1 UNK         0.0000 
     17 N17         6.9704   55.3541   22.0819 N.ar      1 UNK         0.0000 
     18 C18         6.2184   54.8962   23.0833 C.ar      1 UNK         0.0000 
     19 S19         6.7043   55.0391   24.7581 S.3       1 UNK         0.0000 
     20 C20         7.3115   55.7905   19.7024 C.3       1 UNK         0.0000 
     21 F21         6.9762   55.2941   18.5103 F         1 UNK         0.0000 
     22 F22         7.1047   57.1078   19.6808 F         1 UNK         0.0000 
     23 F23         8.6116   55.5620   19.8946 F         1 UNK         0.0000 
     24 C24         3.2063   53.2983   21.2629 C.3       1 UNK         0.0000 
     25 N25         3.0834   53.4836   24.3436 N.pl3     1 UNK         0.0000 
     26 H26         0.3021   51.6968   31.6756 H         1 UNK         0.0000 
     27 H27         1.1027   52.9463   32.6084 H         1 UNK         0.0000 
     28 H28         1.8571   51.3518   32.4067 H         1 UNK         0.0000 
     29 H29         3.9313   52.0372   31.2611 H         1 UNK         0.0000 
     30 H30         5.0125   52.8212   29.2244 H         1 UNK         0.0000 
     31 H31         1.1933   54.1442   27.7140 H         1 UNK         0.0000 
     32 H32         0.1161   53.3268   29.7605 H         1 UNK         0.0000 
     33 H33         3.0396   54.1373   26.3565 H         1 UNK         0.0000 
     34 H34         4.9503   54.3795   19.5391 H         1 UNK         0.0000 
     35 H35         3.0483   53.2214   20.1861 H         1 UNK         0.0000 
     36 H36         3.2361   52.2863   21.6676 H         1 UNK         0.0000 
     37 H37         2.3382   53.8006   21.6875 H         1 UNK         0.0000 
     38 H38         2.5005   53.3458   23.5289 H         1 UNK         0.0000 
     39 H39         2.8146   52.9507   25.1588 H         1 UNK         0.0000 
@<TRIPOS>BOND
     1    1    2 1    
     2    1   26 1    
     3    1   27 1    
     4    1   28 1    
     5    2    7 ar   
     6    2    3 ar   
     7    3    4 ar   
     8    3   29 1    
     9    4    5 ar   
    10    4   30 1    
    11    5    6 ar   
    12    5    8 1    
    13    6    7 ar   
    14    6   31 1    
    15    7   32 1    
    16    8    9 am   BACKBONE|DICT|INTERRES
    17    8   33 1    
    18    9   10 2    
    19    9   11 1    
    20   11   19 1    
    21   11   12 2    
    22   12   13 1    
    23   12   25 1    
    24   13   18 ar   
    25   13   14 ar   
    26   14   15 ar   
    27   14   24 1    
    28   15   16 ar   
    29   15   34 1    
    30   16   17 ar   
    31   16   20 1    
    32   17   18 ar   
    33   18   19 1    
    34   20   21 1    
    35   20   22 1    
    36   20   23 1    
    37   24   35 1    
    38   24   36 1    
    39   24   37 1    
    40   25   38 1    
    41   25   39 1    
@<TRIPOS>SUBSTRUCTURE
     1 UNK         1 GROUP             0       ****    0 ROOT    
