ZINC20022039_3566
                    3D
 Schrodinger Suite 2024-2.
 32 33  0  0  1  0            999 V2000
    0.2135   50.0629   23.2329 C   0  0  0  0  0  0
    0.2516   50.7840   24.5745 C   0  0  0  0  0  0
    0.8833   52.0272   24.6612 C   0  0  0  0  0  0
    0.9538   52.7026   25.8780 C   0  0  0  0  0  0
    0.4010   52.1488   27.0376 C   0  0  0  0  0  0
   -0.2579   50.9184   26.9428 C   0  0  0  0  0  0
   -0.3394   50.2349   25.7238 C   0  0  0  0  0  0
   -1.0093   49.0096   25.6818 N   0  0  0  0  0  0
    0.5442   52.9794   28.6409 S   0  0  0  0  0  0
    0.3046   54.4145   28.4814 O   0  0  0  0  0  0
   -0.2278   52.2042   29.6164 O   0  0  0  0  0  0
    2.2318   52.8163   29.1356 N   0  0  0  0  0  0
    3.3306   53.4092   28.4898 C   0  0  0  0  0  0
    3.2288   54.4487   27.5569 C   0  0  0  0  0  0
    4.3468   54.8693   26.8382 C   0  0  0  0  0  0
    5.5933   54.3119   27.1011 C   0  0  0  0  0  0
    5.7227   53.3306   28.0817 C   0  0  0  0  0  0
    4.5923   52.8825   28.7681 C   0  0  0  0  0  0
    4.7044   51.8945   29.6846 F   0  0  0  0  0  0
    7.1044   54.8962   26.1099 Br  0  0  0  0  0  0
    0.6267   50.6674   22.4235 H   0  0  0  0  0  0
   -0.8154   49.8119   22.9693 H   0  0  0  0  0  0
    0.7764   49.1296   23.2930 H   0  0  0  0  0  0
    1.3290   52.4744   23.7843 H   0  0  0  0  0  0
    1.4336   53.6644   25.8913 H   0  0  0  0  0  0
   -0.7146   50.4964   27.8258 H   0  0  0  0  0  0
   -1.2948   48.6561   26.6027 H   0  0  0  0  0  0
   -0.6887   48.3369   25.0045 H   0  0  0  0  0  0
    2.4284   52.0232   29.7243 H   0  0  0  0  0  0
    2.2889   54.9265   27.3477 H   0  0  0  0  0  0
    4.2490   55.6351   26.0825 H   0  0  0  0  0  0
    6.6901   52.8977   28.2876 H   0  0  0  0  0  0
  1  2  1  0  0  0
  1 21  1  0  0  0
  1 22  1  0  0  0
  1 23  1  0  0  0
  2  7  2  0  0  0
  2  3  1  0  0  0
  3  4  2  0  0  0
  3 24  1  0  0  0
  4  5  1  0  0  0
  4 25  1  0  0  0
  5  6  2  0  0  0
  5  9  1  0  0  0
  6  7  1  0  0  0
  6 26  1  0  0  0
  7  8  1  0  0  0
  8 27  1  0  0  0
  8 28  1  0  0  0
  9 10  2  0  0  0
  9 11  2  0  0  0
  9 12  1  0  0  0
 12 13  1  0  0  0
 12 29  1  0  0  0
 13 18  2  0  0  0
 13 14  1  0  0  0
 14 15  2  0  0  0
 14 30  1  0  0  0
 15 16  1  0  0  0
 15 31  1  0  0  0
 16 17  2  0  0  0
 16 20  1  0  0  0
 17 18  1  0  0  0
 17 32  1  0  0  0
 18 19  1  0  0  0
M  END
> <i_i_glide_confnum>
2

> <i_i_glide_lignum>
3567

> <i_i_glide_posenum>
123

> <i_i_glide_rotatable_bonds>
3

> <i_m_Source_File_Index>
4093

> <b_m_subgroup_collapsed>
0

> <r_i_docking_score>
-4.9931

> <r_i_glide_ecoul>
-4.99482

> <r_i_glide_eff_state_penalty>
0

> <r_i_glide_einternal>
1.3973

> <r_i_glide_emodel>
-43.5541

> <r_i_glide_energy>
-33.6637

> <r_i_glide_erotb>
0.445571

> <r_i_glide_esite>
-0.128817

> <r_i_glide_evdw>
-28.6689

> <r_i_glide_gscore>
-4.9931

> <r_i_glide_hbond>
-0.16

> <r_i_glide_ligand_efficiency>
-0.249655

> <r_i_glide_ligand_efficiency_ln>
-1.24961

> <r_i_glide_ligand_efficiency_sa>
-0.677669

> <r_i_glide_lipo>
-1.85673

> <r_i_glide_metal>
0

> <r_i_glide_rewards>
-1.11046

> <s_i_glide_gridfile>
wee1_glide-grid

> <s_m_Source_File>
wee1_decoys_glide_SP.sdf

> <s_m_Source_Path>
/Users/zhangxujun/Desktop

> <s_m_entry_id>
4368

> <s_m_entry_name>
wee1_decoys_glide_SP.4093

> <s_m_subgroup_title>
wee1_decoys_glide_SP

> <s_m_subgroupid>
wee1_decoys_glide_SP


$$$$
