@<TRIPOS>MOLECULE
ZINC65371131_3803
41   45    1
SMALL
USER_CHARGES


@<TRIPOS>ATOM
      1 C1          2.6645   51.8248   31.6820 C.ar      1 UNK         0.0000 
      2 C2          3.8352   51.9686   30.9514 C.ar      1 UNK         0.0000 
      3 C3          3.8622   52.7620   29.8104 C.ar      1 UNK         0.0000 
      4 C4          2.7188   53.4716   29.4462 C.ar      1 UNK         0.0000 
      5 C5          1.5485   53.3390   30.2102 C.ar      1 UNK         0.0000 
      6 C6          1.5106   52.4973   31.3132 C.ar      1 UNK         0.0000 
      7 C7          0.4962   54.2991   29.7471 C.3       1 UNK         0.0000 
      8 C8          1.0025   54.6949   28.3729 C.3       1 UNK         0.0000 
      9 C9          2.5152   54.4990   28.3514 C.3       1 UNK         0.0000 
     10 H10         2.9881   55.4352   28.6536 H         1 UNK         0.0000 
     11 N11         2.9681   54.1002   27.0174 N.pl3     1 UNK         0.0000 
     12 C12         4.2813   54.2775   26.5532 C.ar      1 UNK         0.0000 
     13 C13         4.5611   54.1903   25.1667 C.ar      1 UNK         0.0000 
     14 C14         3.7600   53.8749   24.0221 C.2       1 UNK         0.0000 
     15 C15         4.5080   53.8993   22.8499 C.2       1 UNK         0.0000 
     16 S16         6.1799   54.3582   23.0755 S.3       1 UNK         0.0000 
     17 C17         5.9156   54.4610   24.8009 C.ar      1 UNK         0.0000 
     18 N18         6.8950   54.7456   25.6589 N.ar      1 UNK         0.0000 
     19 C19         6.5120   54.7503   26.9557 C.ar      1 UNK         0.0000 
     20 N20         5.2677   54.5592   27.4465 N.ar      1 UNK         0.0000 
     21 C21         3.9066   53.5762   21.4911 C.3       1 UNK         0.0000 
     22 N22         2.7713   52.6665   21.6712 N.3       1 UNK         0.0000 
     23 C23         1.7800   53.2936   22.5461 C.3       1 UNK         0.0000 
     24 C24         2.2907   53.4458   24.0029 C.3       1 UNK         0.0000 
     25 H25         2.6484   51.1752   32.5385 H         1 UNK         0.0000 
     26 H26         4.7047   51.4362   31.2816 H         1 UNK         0.0000 
     27 H27         4.7787   52.8433   29.2489 H         1 UNK         0.0000 
     28 H28         0.6171   52.3993   31.9137 H         1 UNK         0.0000 
     29 H29         0.4415   55.1655   30.4081 H         1 UNK         0.0000 
     30 H30        -0.4977   53.8534   29.6998 H         1 UNK         0.0000 
     31 H31         0.7052   55.7020   28.0822 H         1 UNK         0.0000 
     32 H32         0.5259   54.0058   27.6795 H         1 UNK         0.0000 
     33 H33         2.2605   53.8368   26.3461 H         1 UNK         0.0000 
     34 H34         7.2935   54.8968   27.6817 H         1 UNK         0.0000 
     35 H35         4.6331   53.0751   20.8493 H         1 UNK         0.0000 
     36 H36         3.5994   54.4843   20.9673 H         1 UNK         0.0000 
     37 H37         2.3595   52.5165   20.7588 H         1 UNK         0.0000 
     38 H38         0.8393   52.7418   22.5114 H         1 UNK         0.0000 
     39 H39         1.5234   54.2760   22.1468 H         1 UNK         0.0000 
     40 H40         1.6308   54.1246   24.5444 H         1 UNK         0.0000 
     41 H41         2.1718   52.4889   24.5149 H         1 UNK         0.0000 
@<TRIPOS>BOND
     1    1    6 ar   
     2    1    2 ar   
     3    1   25 1    
     4    2    3 ar   
     5    2   26 1    
     6    3    4 ar   
     7    3   27 1    
     8    4    9 1    
     9    4    5 ar   
    10    5    6 ar   
    11    5    7 1    
    12    6   28 1    
    13    7    8 1    
    14    7   29 1    
    15    7   30 1    
    16    8    9 1    
    17    8   31 1    
    18    8   32 1    
    19    9   10 1    
    20    9   11 1    
    21   11   12 1    
    22   11   33 1    
    23   12   20 ar   
    24   12   13 ar   
    25   13   17 ar   
    26   13   14 1    
    27   14   24 1    
    28   14   15 2    
    29   15   16 1    
    30   15   21 1    
    31   16   17 1    
    32   17   18 ar   
    33   18   19 ar   
    34   19   20 ar   
    35   19   34 1    
    36   21   22 1    
    37   21   35 1    
    38   21   36 1    
    39   22   23 1    
    40   22   37 1    
    41   23   24 1    
    42   23   38 1    
    43   23   39 1    
    44   24   40 1    
    45   24   41 1    
@<TRIPOS>SUBSTRUCTURE
     1 UNK         1 GROUP             0       ****    0 ROOT    
