ZINC65074726_304
                    3D
 Schrodinger Suite 2024-2.
 67 70  0  0  1  0            999 V2000
   -5.2348   45.1954   23.4656 C   0  0  0  0  0  0
   -5.1877   46.0332   24.7634 C   0  0  0  0  0  0
   -6.5291   46.8010   24.9113 C   0  0  0  0  0  0
   -5.1062   45.0675   25.9776 C   0  0  0  0  0  0
   -3.9953   47.0231   24.6973 C   0  0  0  0  0  0
   -2.8448   46.8580   25.4841 C   0  0  0  0  0  0
   -1.8101   47.7861   25.4333 C   0  0  0  0  0  0
   -1.9173   48.9080   24.6187 C   0  0  0  0  0  0
   -3.0393   49.0782   23.8076 C   0  0  0  0  0  0
   -4.0595   48.1326   23.8386 C   0  0  0  0  0  0
   -0.6549   50.1803   24.6724 S   0  0  0  0  0  0
   -1.3516   51.4268   25.0123 O   0  0  0  0  0  0
    0.4457   49.6694   25.5002 O   0  0  0  0  0  0
   -0.0648   50.3187   23.0123 N   0  0  0  0  0  0
   -0.7627   51.1547   22.0261 C   0  0  0  0  0  0
    0.2925   52.0373   21.3422 C   0  0  0  0  0  0
    1.4991   51.2411   20.7401 C   0  0  0  0  0  0
    2.0032   50.1208   21.7226 C   0  0  0  0  0  0
    0.8802   49.3427   22.4427 C   0  0  0  0  0  0
    2.6338   52.2347   20.4158 C   0  0  0  0  0  0
    3.1240   52.4451   19.1844 N   0  3  0  0  0  0
    2.6778   51.7073   18.0091 C   0  0  0  0  0  0
    2.1080   50.3843   18.5069 C   0  0  0  0  0  0
    1.0459   50.6636   19.4625 N   0  0  0  0  0  0
    3.1258   52.8894   21.4748 N   0  0  0  0  0  0
    4.1775   53.9029   21.5543 C   0  0  0  0  0  0
    4.6597   54.1050   22.9898 C   0  0  0  0  0  0
    6.0326   54.1934   23.2552 C   0  0  0  0  0  0
    6.4869   54.4266   24.5531 C   0  0  0  0  0  0
    5.5792   54.5672   25.6012 C   0  0  0  0  0  0
    4.2109   54.4861   25.3471 C   0  0  0  0  0  0
    3.7512   54.2566   24.0496 C   0  0  0  0  0  0
    2.4159   54.1923   23.8287 F   0  0  0  0  0  0
   -6.0551   44.4775   23.4818 H   0  0  0  0  0  0
   -4.3139   44.6352   23.3103 H   0  0  0  0  0  0
   -5.3786   45.8245   22.5864 H   0  0  0  0  0  0
   -6.5132   47.4683   25.7748 H   0  0  0  0  0  0
   -6.7652   47.4067   24.0366 H   0  0  0  0  0  0
   -7.3718   46.1207   25.0466 H   0  0  0  0  0  0
   -5.0660   45.6156   26.9214 H   0  0  0  0  0  0
   -5.9768   44.4122   26.0302 H   0  0  0  0  0  0
   -4.2341   44.4175   25.9443 H   0  0  0  0  0  0
   -2.7351   46.0382   26.1778 H   0  0  0  0  0  0
   -0.9518   47.6623   26.0814 H   0  0  0  0  0  0
   -3.1317   49.9481   23.1743 H   0  0  0  0  0  0
   -4.9203   48.2907   23.2050 H   0  0  0  0  0  0
   -1.2738   50.5106   21.3072 H   0  0  0  0  0  0
   -1.5228   51.7587   22.5240 H   0  0  0  0  0  0
   -0.1707   52.6439   20.5654 H   0  0  0  0  0  0
    0.6457   52.7568   22.0822 H   0  0  0  0  0  0
    2.6227   50.5643   22.5012 H   0  0  0  0  0  0
    2.6695   49.4251   21.2133 H   0  0  0  0  0  0
    1.2723   48.7089   23.2400 H   0  0  0  0  0  0
    0.3377   48.6994   21.7471 H   0  0  0  0  0  0
    1.9264   52.3062   17.4944 H   0  0  0  0  0  0
    3.5131   51.5422   17.3333 H   0  0  0  0  0  0
    1.7099   49.8071   17.6699 H   0  0  0  0  0  0
    2.8862   49.7544   18.9420 H   0  0  0  0  0  0
    0.5015   49.8351   19.6518 H   0  0  0  0  0  0
    2.6821   52.6711   22.3559 H   0  0  0  0  0  0
    4.9958   53.5622   20.9186 H   0  0  0  0  0  0
    3.7881   54.8408   21.1456 H   0  0  0  0  0  0
    6.7536   54.0969   22.4588 H   0  0  0  0  0  0
    7.5479   54.4953   24.7389 H   0  0  0  0  0  0
    5.9347   54.7346   26.6078 H   0  0  0  0  0  0
    3.5034   54.5947   26.1545 H   0  0  0  0  0  0
    3.8439   53.1433   19.0836 H   0  0  0  0  0  0
  1  2  1  0  0  0
  1 34  1  0  0  0
  1 35  1  0  0  0
  1 36  1  0  0  0
  2  3  1  0  0  0
  2  4  1  0  0  0
  2  5  1  0  0  0
  3 37  1  0  0  0
  3 38  1  0  0  0
  3 39  1  0  0  0
  4 40  1  0  0  0
  4 41  1  0  0  0
  4 42  1  0  0  0
  5 10  2  0  0  0
  5  6  1  0  0  0
  6  7  2  0  0  0
  6 43  1  0  0  0
  7  8  1  0  0  0
  7 44  1  0  0  0
  8  9  2  0  0  0
  8 11  1  0  0  0
  9 10  1  0  0  0
  9 45  1  0  0  0
 10 46  1  0  0  0
 11 12  2  0  0  0
 11 13  2  0  0  0
 11 14  1  0  0  0
 14 19  1  0  0  0
 14 15  1  0  0  0
 15 16  1  0  0  0
 15 47  1  0  0  0
 15 48  1  0  0  0
 16 17  1  0  0  0
 16 49  1  0  0  0
 16 50  1  0  0  0
 17 24  1  0  0  0
 17 18  1  0  0  0
 17 20  1  0  0  0
 18 19  1  0  0  0
 18 51  1  0  0  0
 18 52  1  0  0  0
 19 53  1  0  0  0
 19 54  1  0  0  0
 20 21  2  0  0  0
 20 25  1  0  0  0
 21 22  1  0  0  0
 21 67  1  0  0  0
 22 23  1  0  0  0
 22 55  1  0  0  0
 22 56  1  0  0  0
 23 24  1  0  0  0
 23 57  1  0  0  0
 23 58  1  0  0  0
 24 59  1  0  0  0
 25 26  1  0  0  0
 25 60  1  0  0  0
 26 27  1  0  0  0
 26 61  1  0  0  0
 26 62  1  0  0  0
 27 32  2  0  0  0
 27 28  1  0  0  0
 28 29  2  0  0  0
 28 63  1  0  0  0
 29 30  1  0  0  0
 29 64  1  0  0  0
 30 31  2  0  0  0
 30 65  1  0  0  0
 31 32  1  0  0  0
 31 66  1  0  0  0
 32 33  1  0  0  0
M  CHG  1  21   1
M  END
> <i_i_glide_confnum>
25

> <i_i_glide_lignum>
305

> <i_i_glide_posenum>
196

> <i_i_glide_rotatable_bonds>
6

> <i_m_Source_File_Index>
4149

> <b_m_subgroup_collapsed>
0

> <r_i_docking_score>
-3.00655

> <r_i_glide_ecoul>
-0.131362

> <r_i_glide_eff_state_penalty>
0

> <r_i_glide_einternal>
4.20896

> <r_i_glide_emodel>
-35.1111

> <r_i_glide_energy>
-31.6081

> <r_i_glide_erotb>
0.450889

> <r_i_glide_esite>
-0.134783

> <r_i_glide_evdw>
-31.4768

> <r_i_glide_gscore>
-3.00655

> <r_i_glide_hbond>
0

> <r_i_glide_ligand_efficiency>
-0.0911075

> <r_i_glide_ligand_efficiency_ln>
-0.668641

> <r_i_glide_ligand_efficiency_sa>
-0.29223

> <r_i_glide_lipo>
-1.90618

> <r_i_glide_metal>
0

> <r_i_glide_rewards>
0.177065

> <s_i_glide_gridfile>
wee1_glide-grid

> <s_m_Source_File>
wee1_decoys_glide_SP.sdf

> <s_m_Source_Path>
/Users/zhangxujun/Desktop

> <s_m_entry_id>
4424

> <s_m_entry_name>
wee1_decoys_glide_SP.4149

> <s_m_subgroup_title>
wee1_decoys_glide_SP

> <s_m_subgroupid>
wee1_decoys_glide_SP


$$$$
