@<TRIPOS>MOLECULE
ZINC13023264_1927
45   47    1
SMALL
USER_CHARGES


@<TRIPOS>ATOM
      1 C1          5.4159   54.6091   28.2081 C.3       1 UNK         0.0000 
      2 C2          4.1497   54.0669   27.5422 C.ar      1 UNK         0.0000 
      3 C3          3.9416   54.3697   26.1918 C.ar      1 UNK         0.0000 
      4 C4          2.8240   53.8475   25.5454 C.ar      1 UNK         0.0000 
      5 N5          1.9208   53.0563   26.1697 N.ar      1 UNK         0.0000 
      6 C6          2.1076   52.7641   27.4839 C.ar      1 UNK         0.0000 
      7 C7          3.2128   53.2517   28.2250 C.ar      1 UNK         0.0000 
      8 C8          3.4128   52.9027   29.6689 C.2       1 UNK         0.0000 
      9 O9          3.5045   53.8473   30.4808 O.co2     1 UNK         0.0000 
     10 S10         0.8698   51.7019   28.2005 S.3       1 UNK         0.0000 
     11 C11         0.1098   50.6968   26.8729 C.3       1 UNK         0.0000 
     12 C12        -1.3121   51.0846   26.4254 C.2       1 UNK         0.0000 
     13 O13        -1.8131   52.0983   26.9187 O.2       1 UNK         0.0000 
     14 N14        -1.9679   50.3068   25.5019 N.am      1 UNK         0.0000 
     15 C15        -1.4056   48.9865   25.0687 C.3       1 UNK         0.0000 
     16 C16        -2.3899   47.7829   25.1754 C.2       1 UNK         0.0000 
     17 O17        -2.0591   46.6072   25.0273 O.2       1 UNK         0.0000 
     18 N18        -3.6796   48.1601   25.2819 N.am      1 UNK         0.0000 
     19 C19        -4.1851   49.4439   25.0696 C.ar      1 UNK         0.0000 
     20 C20        -3.3348   50.5542   25.1980 C.ar      1 UNK         0.0000 
     21 C21        -3.8266   51.8201   24.8407 C.ar      1 UNK         0.0000 
     22 C22        -5.1645   51.9848   24.4825 C.ar      1 UNK         0.0000 
     23 C23        -6.0286   50.8835   24.4276 C.ar      1 UNK         0.0000 
     24 C24        -5.5254   49.6096   24.7149 C.ar      1 UNK         0.0000 
     25 C25        -7.5039   51.0689   24.0678 C.3       1 UNK         0.0000 
     26 F26        -8.2666   50.1808   24.7062 F         1 UNK         0.0000 
     27 F27        -7.9379   52.2909   24.3905 F         1 UNK         0.0000 
     28 F28        -7.6577   50.8955   22.7550 F         1 UNK         0.0000 
     29 C29         2.5415   54.1426   24.0849 C.3       1 UNK         0.0000 
     30 H30         5.9960   53.7920   28.6387 H         1 UNK         0.0000 
     31 H31         6.0638   55.1409   27.5103 H         1 UNK         0.0000 
     32 H32         5.1626   55.2871   29.0240 H         1 UNK         0.0000 
     33 H33         4.6432   54.9882   25.6505 H         1 UNK         0.0000 
     34 H34         0.0531   49.6951   27.2819 H         1 UNK         0.0000 
     35 H35         0.7668   50.6661   26.0059 H         1 UNK         0.0000 
     36 H36        -0.4956   48.6868   25.5833 H         1 UNK         0.0000 
     37 H37        -1.1247   49.0659   24.0192 H         1 UNK         0.0000 
     38 H38        -4.3206   47.3814   25.2885 H         1 UNK         0.0000 
     39 H39        -3.1796   52.6860   24.8573 H         1 UNK         0.0000 
     40 H40        -5.5283   52.9735   24.2399 H         1 UNK         0.0000 
     41 H41        -6.1744   48.7462   24.6467 H         1 UNK         0.0000 
     42 H42         3.2216   54.8977   23.6870 H         1 UNK         0.0000 
     43 H43         2.6555   53.2339   23.4917 H         1 UNK         0.0000 
     44 H44         1.5214   54.5110   23.9580 H         1 UNK         0.0000 
     45 O45         3.5041   51.6967   29.9819 O.co2     1 UNK         0.0000 
@<TRIPOS>BOND
     1    1    2 1    
     2    1   30 1    
     3    1   31 1    
     4    1   32 1    
     5    2    7 ar   
     6    2    3 ar   
     7    3    4 ar   
     8    3   33 1    
     9    4    5 ar   
    10    4   29 1    
    11    5    6 ar   
    12    6    7 ar   
    13    6   10 1    
    14    7    8 1    
    15    8    9 2    
    16    8   45 1    
    17   10   11 1    
    18   11   12 1    
    19   11   34 1    
    20   11   35 1    
    21   12   13 2    
    22   12   14 am   BACKBONE|DICT|INTERRES
    23   14   20 1    
    24   14   15 1    
    25   15   16 1    
    26   15   36 1    
    27   15   37 1    
    28   16   17 2    
    29   16   18 am   BACKBONE|DICT|INTERRES
    30   18   19 1    
    31   18   38 1    
    32   19   24 ar   
    33   19   20 ar   
    34   20   21 ar   
    35   21   22 ar   
    36   21   39 1    
    37   22   23 ar   
    38   22   40 1    
    39   23   24 ar   
    40   23   25 1    
    41   24   41 1    
    42   25   26 1    
    43   25   27 1    
    44   25   28 1    
    45   29   42 1    
    46   29   43 1    
    47   29   44 1    
@<TRIPOS>SUBSTRUCTURE
     1 UNK         1 GROUP             0       ****    0 ROOT    
