@<TRIPOS>MOLECULE
ZINC04560781_1539
51   54    1
SMALL
USER_CHARGES


@<TRIPOS>ATOM
      1 C1          1.4861   53.7843   23.9186 C.3       1 UNK         0.0000 
      2 C2          1.1030   52.3189   24.0628 C.ar      1 UNK         0.0000 
      3 C3          0.3562   51.9083   25.1704 C.ar      1 UNK         0.0000 
      4 C4          0.0093   50.5699   25.3294 C.ar      1 UNK         0.0000 
      5 C5          0.3925   49.6357   24.3727 C.ar      1 UNK         0.0000 
      6 C6          1.1311   50.0359   23.2590 C.ar      1 UNK         0.0000 
      7 C7          1.5074   51.3821   23.0990 C.ar      1 UNK         0.0000 
      8 O8          2.2609   51.8547   22.0371 O.3       1 UNK         0.0000 
      9 C9          2.8631   50.9821   21.1186 C.3       1 UNK         0.0000 
     10 H10         3.2022   50.0714   21.6155 H         1 UNK         0.0000 
     11 C11         1.9004   50.7242   19.9322 C.3       1 UNK         0.0000 
     12 H12         0.9272   50.4844   20.3724 H         1 UNK         0.0000 
     13 C13         1.7014   52.0348   19.1200 C.3       1 UNK         0.0000 
     14 H14         1.2124   52.7870   19.7440 H         1 UNK         0.0000 
     15 C15         3.0792   52.5586   18.6853 C.3       1 UNK         0.0000 
     16 H16         3.5067   51.8311   17.9918 H         1 UNK         0.0000 
     17 C17         3.9566   52.7224   19.9313 C.3       1 UNK         0.0000 
     18 H18         3.4964   53.4983   20.5496 H         1 UNK         0.0000 
     19 O19         4.0963   51.5039   20.6740 O.3       1 UNK         0.0000 
     20 C20         5.3201   53.2555   19.4870 C.3       1 UNK         0.0000 
     21 O21         5.1500   54.4571   18.7286 O.3       1 UNK         0.0000 
     22 C22         4.2857   54.2666   17.6308 C.3       1 UNK         0.0000 
     23 H23         4.7147   53.4850   16.9914 H         1 UNK         0.0000 
     24 O24         3.0109   53.8479   18.0652 O.3       1 UNK         0.0000 
     25 C25         4.1403   55.5661   16.9291 C.2       1 UNK         0.0000 
     26 C26         4.2046   55.9161   15.5882 C.2       1 UNK         0.0000 
     27 C27         3.9997   57.2953   15.5256 C.2       1 UNK         0.0000 
     28 C28         3.8205   57.7248   16.8302 C.2       1 UNK         0.0000 
     29 O29         3.9033   56.6716   17.6852 O.3       1 UNK         0.0000 
     30 O30         0.8442   51.8265   18.0086 O.3       1 UNK         0.0000 
     31 N31         2.3035   49.5765   19.1008 N.am      1 UNK         0.0000 
     32 C32         1.7742   48.3454   19.1317 C.2       1 UNK         0.0000 
     33 O33         0.9143   47.9902   19.9364 O.2       1 UNK         0.0000 
     34 C34         2.2887   47.3706   18.0800 C.3       1 UNK         0.0000 
     35 H35         1.1106   54.1846   22.9762 H         1 UNK         0.0000 
     36 H36         1.1054   54.3973   24.7337 H         1 UNK         0.0000 
     37 H37         2.5725   53.8845   23.8958 H         1 UNK         0.0000 
     38 H38         0.0486   52.6217   25.9196 H         1 UNK         0.0000 
     39 H39        -0.5545   50.2495   26.1954 H         1 UNK         0.0000 
     40 H40         0.1247   48.5963   24.4975 H         1 UNK         0.0000 
     41 H41         1.4005   49.2834   22.5370 H         1 UNK         0.0000 
     42 H42         5.9043   53.5052   20.3693 H         1 UNK         0.0000 
     43 H43         5.8979   52.5219   18.9189 H         1 UNK         0.0000 
     44 H44         4.3766   55.2435   14.7605 H         1 UNK         0.0000 
     45 H45         3.9854   57.9121   14.6388 H         1 UNK         0.0000 
     46 H46         3.6368   58.6936   17.2730 H         1 UNK         0.0000 
     47 H47         1.2880   51.2240   17.4037 H         1 UNK         0.0000 
     48 H48         3.0757   49.7291   18.4562 H         1 UNK         0.0000 
     49 H49         3.3760   47.2974   18.1049 H         1 UNK         0.0000 
     50 H50         1.8635   46.3787   18.2379 H         1 UNK         0.0000 
     51 H51         1.9989   47.7083   17.0853 H         1 UNK         0.0000 
@<TRIPOS>BOND
     1    1    2 1    
     2    1   35 1    
     3    1   36 1    
     4    1   37 1    
     5    2    7 ar   
     6    2    3 ar   
     7    3    4 ar   
     8    3   38 1    
     9    4    5 ar   
    10    4   39 1    
    11    5    6 ar   
    12    5   40 1    
    13    6    7 ar   
    14    6   41 1    
    15    7    8 1    
    16    8    9 1    
    17    9   10 1    
    18    9   19 1    
    19    9   11 1    
    20   11   12 1    
    21   11   13 1    
    22   11   31 1    
    23   13   14 1    
    24   13   15 1    
    25   13   30 1    
    26   15   16 1    
    27   15   24 1    
    28   15   17 1    
    29   17   18 1    
    30   17   19 1    
    31   17   20 1    
    32   20   21 1    
    33   20   42 1    
    34   20   43 1    
    35   21   22 1    
    36   22   23 1    
    37   22   24 1    
    38   22   25 1    
    39   25   29 1    
    40   25   26 2    
    41   26   27 1    
    42   26   44 1    
    43   27   28 2    
    44   27   45 1    
    45   28   29 1    
    46   28   46 1    
    47   30   47 1    
    48   31   32 am   BACKBONE|DICT|INTERRES
    49   31   48 1    
    50   32   33 2    
    51   32   34 1    
    52   34   49 1    
    53   34   50 1    
    54   34   51 1    
@<TRIPOS>SUBSTRUCTURE
     1 UNK         1 GROUP             0       ****    0 ROOT    
