@<TRIPOS>MOLECULE
ZINC49490837_3397
67   71    1
SMALL
USER_CHARGES


@<TRIPOS>ATOM
      1 C1          2.6286   58.7276   15.7450 C.3       1 UNK         0.0000 
      2 S2          3.6570   58.1335   14.2820 S.o2      1 UNK         0.0000 
      3 O3          5.0761   58.1195   14.6497 O.2       1 UNK         0.0000 
      4 O4          3.2189   58.8687   13.0906 O.2       1 UNK         0.0000 
      5 N5          3.1304   56.4268   14.0800 N.pl3     1 UNK         0.0000 
      6 C6          2.4544   56.0954   12.8114 C.3       1 UNK         0.0000 
      7 C7          1.7398   54.7379   12.8512 C.3       1 UNK         0.0000 
      8 C8          2.7406   53.6472   13.2242 C.3       1 UNK         0.0000 
      9 C9          3.4089   54.0085   14.5407 C.ar      1 UNK         0.0000 
     10 C10         3.6004   55.3642   14.9092 C.ar      1 UNK         0.0000 
     11 C11         4.2220   55.6399   16.1398 C.ar      1 UNK         0.0000 
     12 C12         4.6428   54.6176   16.9957 C.ar      1 UNK         0.0000 
     13 C13         4.4234   53.2930   16.6312 C.ar      1 UNK         0.0000 
     14 C14         3.8196   52.9957   15.4134 C.ar      1 UNK         0.0000 
     15 N15         5.2163   54.8435   18.2586 N.am      1 UNK         0.0000 
     16 C16         5.8864   55.9416   18.6927 C.2       1 UNK         0.0000 
     17 O17         6.2120   56.8801   17.9596 O.2       1 UNK         0.0000 
     18 C18         6.2127   55.9886   20.1589 C.2       1 UNK         0.0000 
     19 O19         6.7044   57.0010   20.6651 O.2       1 UNK         0.0000 
     20 N20         5.9066   54.8971   20.8946 N.am      1 UNK         0.0000 
     21 C21         6.0223   54.7867   22.3521 C.3       1 UNK         0.0000 
     22 C22         4.6755   54.4095   23.0460 C.3       1 UNK         0.0000 
     23 H23         4.0257   55.2866   22.9682 H         1 UNK         0.0000 
     24 C24         3.9418   53.2996   22.2901 C.2       1 UNK         0.0000 
     25 C25         2.6009   53.0261   22.0541 C.2       1 UNK         0.0000 
     26 C26         2.5461   51.8969   21.2363 C.2       1 UNK         0.0000 
     27 C27         3.8563   51.5196   21.0118 C.2       1 UNK         0.0000 
     28 O28         4.7010   52.3463   21.6812 O.3       1 UNK         0.0000 
     29 N29         4.7959   54.0967   24.4894 N.3       1 UNK         0.0000 
     30 C30         5.7979   54.8630   25.2487 C.3       1 UNK         0.0000 
     31 C31         6.0255   54.2315   26.6405 C.3       1 UNK         0.0000 
     32 C32         4.7250   53.9007   27.3651 C.ar      1 UNK         0.0000 
     33 C33         4.7191   53.6112   28.7330 C.ar      1 UNK         0.0000 
     34 C34         3.5451   53.2415   29.3869 C.ar      1 UNK         0.0000 
     35 C35         2.3520   53.1725   28.6732 C.ar      1 UNK         0.0000 
     36 C36         2.3407   53.4777   27.3122 C.ar      1 UNK         0.0000 
     37 C37         3.5166   53.8436   26.6466 C.ar      1 UNK         0.0000 
     38 C38         3.4954   54.2204   25.1690 C.3       1 UNK         0.0000 
     39 H39         3.0138   59.6969   16.0622 H         1 UNK         0.0000 
     40 H40         1.5910   58.8267   15.4292 H         1 UNK         0.0000 
     41 H41         2.6967   58.0264   16.5729 H         1 UNK         0.0000 
     42 H42         3.2683   56.0323   12.0901 H         1 UNK         0.0000 
     43 H43         1.7991   56.8975   12.4734 H         1 UNK         0.0000 
     44 H44         1.2815   54.5251   11.8846 H         1 UNK         0.0000 
     45 H45         0.9208   54.7678   13.5729 H         1 UNK         0.0000 
     46 H46         2.2441   52.6767   13.2876 H         1 UNK         0.0000 
     47 H47         3.5039   53.5606   12.4489 H         1 UNK         0.0000 
     48 H48         4.3627   56.6579   16.4568 H         1 UNK         0.0000 
     49 H49         4.7188   52.4808   17.2818 H         1 UNK         0.0000 
     50 H50         3.6681   51.9558   15.1516 H         1 UNK         0.0000 
     51 H51         5.0692   54.0879   18.9032 H         1 UNK         0.0000 
     52 H52         5.5241   54.0806   20.4465 H         1 UNK         0.0000 
     53 H53         6.7710   54.0222   22.5635 H         1 UNK         0.0000 
     54 H54         6.4183   55.7078   22.7813 H         1 UNK         0.0000 
     55 H55         1.7582   53.5999   22.4093 H         1 UNK         0.0000 
     56 H56         1.6613   51.4210   20.8375 H         1 UNK         0.0000 
     57 H57         4.3084   50.7325   20.4269 H         1 UNK         0.0000 
     58 H58         6.7654   54.8097   24.7498 H         1 UNK         0.0000 
     59 H59         5.5525   55.9262   25.2940 H         1 UNK         0.0000 
     60 H60         6.5823   53.3019   26.5168 H         1 UNK         0.0000 
     61 H61         6.6516   54.8816   27.2517 H         1 UNK         0.0000 
     62 H62         5.6496   53.6526   29.2808 H         1 UNK         0.0000 
     63 H63         3.5661   52.9993   30.4403 H         1 UNK         0.0000 
     64 H64         1.4379   52.8815   29.1708 H         1 UNK         0.0000 
     65 H65         1.4062   53.4284   26.7701 H         1 UNK         0.0000 
     66 H66         3.1049   55.2323   25.0618 H         1 UNK         0.0000 
     67 H67         2.7895   53.5517   24.6767 H         1 UNK         0.0000 
@<TRIPOS>BOND
     1    1    2 1    
     2    1   39 1    
     3    1   40 1    
     4    1   41 1    
     5    2    3 2    
     6    2    4 2    
     7    2    5 1    
     8    5   10 1    
     9    5    6 1    
    10    6    7 1    
    11    6   42 1    
    12    6   43 1    
    13    7    8 1    
    14    7   44 1    
    15    7   45 1    
    16    8    9 1    
    17    8   46 1    
    18    8   47 1    
    19    9   14 ar   
    20    9   10 ar   
    21   10   11 ar   
    22   11   12 ar   
    23   11   48 1    
    24   12   13 ar   
    25   12   15 1    
    26   13   14 ar   
    27   13   49 1    
    28   14   50 1    
    29   15   16 am   BACKBONE|DICT|INTERRES
    30   15   51 1    
    31   16   17 2    
    32   16   18 1    
    33   18   19 2    
    34   18   20 am   BACKBONE|DICT|INTERRES
    35   20   21 1    
    36   20   52 1    
    37   21   22 1    
    38   21   53 1    
    39   21   54 1    
    40   22   23 1    
    41   22   24 1    
    42   22   29 1    
    43   24   28 1    
    44   24   25 2    
    45   25   26 1    
    46   25   55 1    
    47   26   27 2    
    48   26   56 1    
    49   27   28 1    
    50   27   57 1    
    51   29   38 1    
    52   29   30 1    
    53   30   31 1    
    54   30   58 1    
    55   30   59 1    
    56   31   32 1    
    57   31   60 1    
    58   31   61 1    
    59   32   37 ar   
    60   32   33 ar   
    61   33   34 ar   
    62   33   62 1    
    63   34   35 ar   
    64   34   63 1    
    65   35   36 ar   
    66   35   64 1    
    67   36   37 ar   
    68   36   65 1    
    69   37   38 1    
    70   38   66 1    
    71   38   67 1    
@<TRIPOS>SUBSTRUCTURE
     1 UNK         1 GROUP             0       ****    0 ROOT    
