@<TRIPOS>MOLECULE
ZINC16949341_3539
60   64    1
SMALL
USER_CHARGES


@<TRIPOS>ATOM
      1 C1         -4.3500   46.8622   22.5767 C.3       1 UNK         0.0000 
      2 C2         -3.4089   47.8315   23.2680 C.ar      1 UNK         0.0000 
      3 C3         -2.5292   48.6048   22.5109 C.ar      1 UNK         0.0000 
      4 C4         -1.6621   49.4943   23.1421 C.ar      1 UNK         0.0000 
      5 C5         -1.6631   49.6216   24.5417 C.ar      1 UNK         0.0000 
      6 C6         -2.5441   48.8257   25.2873 C.ar      1 UNK         0.0000 
      7 C7         -3.4121   47.9376   24.6584 C.ar      1 UNK         0.0000 
      8 C8         -0.7056   50.5813   25.2954 C.3       1 UNK         0.0000 
      9 C9          0.3557   49.7760   26.0369 C.3       1 UNK         0.0000 
     10 S10         1.0020   50.8969   27.2821 S.3       1 UNK         0.0000 
     11 C11        -0.5695   51.7593   27.4401 C.2       1 UNK         0.0000 
     12 N12        -0.8920   52.4935   28.4342 N.2       1 UNK         0.0000 
     13 C13        -0.0280   52.6587   29.4768 C.ar      1 UNK         0.0000 
     14 C14         1.2479   53.2327   29.6477 C.ar      1 UNK         0.0000 
     15 N15         1.6926   53.0349   30.8812 N.2       1 UNK         0.0000 
     16 C16         0.7046   52.4922   31.5359 C.ar      1 UNK         0.0000 
     17 N17        -0.3601   52.2169   30.7267 N.pl3     1 UNK         0.0000 
     18 H18        -1.2200   51.7670   31.0174 H         1 UNK         0.0000 
     19 C19         1.9803   53.9623   28.6620 C.2       1 UNK         0.0000 
     20 O20         1.4627   54.9126   28.0811 O.2       1 UNK         0.0000 
     21 N21         3.2328   53.5008   28.4600 N.am      1 UNK         0.0000 
     22 C22         4.1068   53.8667   27.4263 C.ar      1 UNK         0.0000 
     23 C23         5.4768   53.8393   27.6939 C.ar      1 UNK         0.0000 
     24 C24         6.3863   54.1588   26.6890 C.ar      1 UNK         0.0000 
     25 C25         5.9264   54.4915   25.4126 C.ar      1 UNK         0.0000 
     26 C26         4.5588   54.4970   25.1376 C.ar      1 UNK         0.0000 
     27 C27         3.6485   54.1852   26.1410 C.ar      1 UNK         0.0000 
     28 C28         6.9182   54.8155   24.3137 C.3       1 UNK         0.0000 
     29 N29        -1.3328   51.4531   26.3015 N.pl3     1 UNK         0.0000 
     30 C30        -2.5713   52.0675   26.0078 C.ar      1 UNK         0.0000 
     31 C31        -2.7106   52.8964   24.8876 C.ar      1 UNK         0.0000 
     32 C32        -3.9474   53.4471   24.5656 C.ar      1 UNK         0.0000 
     33 C33        -5.0531   53.1681   25.3648 C.ar      1 UNK         0.0000 
     34 C34        -4.9290   52.3449   26.4826 C.ar      1 UNK         0.0000 
     35 C35        -3.6892   51.7962   26.8048 C.ar      1 UNK         0.0000 
     36 O36         0.0195   51.3746   24.3559 O.3       1 UNK         0.0000 
     37 H37        -3.8666   46.4085   21.7097 H         1 UNK         0.0000 
     38 H38        -4.6407   46.0455   23.2383 H         1 UNK         0.0000 
     39 H39        -5.2475   47.3790   22.2366 H         1 UNK         0.0000 
     40 H40        -2.5176   48.5225   21.4333 H         1 UNK         0.0000 
     41 H41        -0.9975   50.0825   22.5267 H         1 UNK         0.0000 
     42 H42        -2.5512   48.8943   26.3667 H         1 UNK         0.0000 
     43 H43        -4.0838   47.3391   25.2581 H         1 UNK         0.0000 
     44 H44         1.1436   49.3842   25.3934 H         1 UNK         0.0000 
     45 H45        -0.0703   48.9233   26.5705 H         1 UNK         0.0000 
     46 H46         0.6749   52.2201   32.5833 H         1 UNK         0.0000 
     47 H47         3.5646   52.7820   29.0842 H         1 UNK         0.0000 
     48 H48         5.8441   53.5774   28.6760 H         1 UNK         0.0000 
     49 H49         7.4444   54.1310   26.9033 H         1 UNK         0.0000 
     50 H50         4.1955   54.7373   24.1486 H         1 UNK         0.0000 
     51 H51         2.5935   54.1677   25.9072 H         1 UNK         0.0000 
     52 H52         6.4328   55.0000   23.3541 H         1 UNK         0.0000 
     53 H53         7.6074   53.9808   24.1811 H         1 UNK         0.0000 
     54 H54         7.5014   55.6975   24.5741 H         1 UNK         0.0000 
     55 H55        -1.8570   53.1147   24.2641 H         1 UNK         0.0000 
     56 H56        -4.0445   54.0831   23.6973 H         1 UNK         0.0000 
     57 H57        -6.0162   53.5878   25.1123 H         1 UNK         0.0000 
     58 H58        -5.7907   52.1272   27.0972 H         1 UNK         0.0000 
     59 H59        -3.5926   51.1472   27.6634 H         1 UNK         0.0000 
     60 H60         0.6859   50.8206   23.9449 H         1 UNK         0.0000 
@<TRIPOS>BOND
     1    1    2 1    
     2    1   37 1    
     3    1   38 1    
     4    1   39 1    
     5    2    7 ar   
     6    2    3 ar   
     7    3    4 ar   
     8    3   40 1    
     9    4    5 ar   
    10    4   41 1    
    11    5    6 ar   
    12    5    8 1    
    13    6    7 ar   
    14    6   42 1    
    15    7   43 1    
    16    8   29 1    
    17    8    9 1    
    18    8   36 1    
    19    9   10 1    
    20    9   44 1    
    21    9   45 1    
    22   10   11 1    
    23   11   12 2    
    24   11   29 1    
    25   12   13 1    
    26   13   17 ar   
    27   13   14 ar   
    28   14   15 ar   
    29   14   19 1    
    30   15   16 ar   
    31   16   17 ar   
    32   16   46 1    
    33   17   18 1    
    34   19   20 2    
    35   19   21 am   BACKBONE|DICT|INTERRES
    36   21   22 1    
    37   21   47 1    
    38   22   27 ar   
    39   22   23 ar   
    40   23   24 ar   
    41   23   48 1    
    42   24   25 ar   
    43   24   49 1    
    44   25   26 ar   
    45   25   28 1    
    46   26   27 ar   
    47   26   50 1    
    48   27   51 1    
    49   28   52 1    
    50   28   53 1    
    51   28   54 1    
    52   29   30 1    
    53   30   35 ar   
    54   30   31 ar   
    55   31   32 ar   
    56   31   55 1    
    57   32   33 ar   
    58   32   56 1    
    59   33   34 ar   
    60   33   57 1    
    61   34   35 ar   
    62   34   58 1    
    63   35   59 1    
    64   36   60 1    
@<TRIPOS>SUBSTRUCTURE
     1 UNK         1 GROUP             0       ****    0 ROOT    
