@<TRIPOS>MOLECULE
ZINC21045928_3900
29   31    1
SMALL
USER_CHARGES


@<TRIPOS>ATOM
      1 C1          2.2929   53.7169   22.9190 C.ar      1 UNK         0.0000 
      2 C2          3.6339   54.0967   23.0026 C.ar      1 UNK         0.0000 
      3 C3          4.2499   54.1305   24.2532 C.ar      1 UNK         0.0000 
      4 C4          3.5644   53.7717   25.4037 C.ar      1 UNK         0.0000 
      5 C5          2.2196   53.3946   25.3206 C.ar      1 UNK         0.0000 
      6 C6          1.5843   53.3799   24.0758 C.ar      1 UNK         0.0000 
      7 Br7        -0.2523   52.8954   23.9555 Br        1 UNK         0.0000 
      8 C8          4.5360   53.8117   26.5393 C.3       1 UNK         0.0000 
      9 H9          4.9581   52.8478   26.8250 H         1 UNK         0.0000 
     10 C10         5.7307   54.5430   25.9016 C.2       1 UNK         0.0000 
     11 O11         6.7044   55.0032   26.4971 O.2       1 UNK         0.0000 
     12 N12         5.5271   54.5528   24.5769 N.am      1 UNK         0.0000 
     13 N13         4.1005   54.4960   27.7420 N.pl3     1 UNK         0.0000 
     14 C14         3.0058   54.1434   28.5502 C.ar      1 UNK         0.0000 
     15 C15         2.5892   52.8078   28.6311 C.ar      1 UNK         0.0000 
     16 C16         1.4880   52.4526   29.4067 C.ar      1 UNK         0.0000 
     17 C17         0.8015   53.4276   30.1246 C.ar      1 UNK         0.0000 
     18 C18         1.2139   54.7591   30.0678 C.ar      1 UNK         0.0000 
     19 C19         2.3124   55.1196   29.2827 C.ar      1 UNK         0.0000 
     20 F20         2.7042   56.4158   29.2562 F         1 UNK         0.0000 
     21 F21         0.5568   55.6998   30.7844 F         1 UNK         0.0000 
     22 F22        -0.2583   53.0743   30.8807 F         1 UNK         0.0000 
     23 H23         1.8000   53.6978   21.9575 H         1 UNK         0.0000 
     24 H24         4.1633   54.3807   22.1047 H         1 UNK         0.0000 
     25 H25         1.6559   53.1061   26.1930 H         1 UNK         0.0000 
     26 H26         6.1808   54.9603   23.9263 H         1 UNK         0.0000 
     27 H27         4.8624   54.9176   28.2582 H         1 UNK         0.0000 
     28 H28         3.1093   52.0374   28.0812 H         1 UNK         0.0000 
     29 H29         1.1612   51.4231   29.4505 H         1 UNK         0.0000 
@<TRIPOS>BOND
     1    1    6 ar   
     2    1    2 ar   
     3    1   23 1    
     4    2    3 ar   
     5    2   24 1    
     6    3   12 1    
     7    3    4 ar   
     8    4    5 ar   
     9    4    8 1    
    10    5    6 ar   
    11    5   25 1    
    12    6    7 1    
    13    8    9 1    
    14    8   10 1    
    15    8   13 1    
    16   10   11 2    
    17   10   12 am   BACKBONE|DICT|INTERRES
    18   12   26 1    
    19   13   14 1    
    20   13   27 1    
    21   14   19 ar   
    22   14   15 ar   
    23   15   16 ar   
    24   15   28 1    
    25   16   17 ar   
    26   16   29 1    
    27   17   18 ar   
    28   17   22 1    
    29   18   19 ar   
    30   18   21 1    
    31   19   20 1    
@<TRIPOS>SUBSTRUCTURE
     1 UNK         1 GROUP             0       ****    0 ROOT    
