@<TRIPOS>MOLECULE
ZINC64169865_3092
63   66    1
SMALL
USER_CHARGES


@<TRIPOS>ATOM
      1 C1         -6.3446   53.0681   24.6055 C.3       1 UNK         0.0000 
      2 O2         -5.7038   52.3950   25.6813 O.3       1 UNK         0.0000 
      3 C3         -4.3554   52.1160   25.5896 C.ar      1 UNK         0.0000 
      4 C4         -3.8427   51.2468   26.5473 C.ar      1 UNK         0.0000 
      5 C5         -2.4982   50.8970   26.5333 C.ar      1 UNK         0.0000 
      6 C6         -1.6303   51.4225   25.5690 C.ar      1 UNK         0.0000 
      7 C7         -2.1461   52.3009   24.6084 C.ar      1 UNK         0.0000 
      8 C8         -3.4964   52.6434   24.6142 C.ar      1 UNK         0.0000 
      9 C9         -0.1234   51.0770   25.5454 C.3       1 UNK         0.0000 
     10 H10         0.1864   51.2941   24.5215 H         1 UNK         0.0000 
     11 C11         0.2974   49.5801   25.7441 C.3       1 UNK         0.0000 
     12 N12        -0.7707   48.5876   25.6817 N.am      1 UNK         0.0000 
     13 C13        -1.3712   48.0965   24.5861 C.2       1 UNK         0.0000 
     14 O14        -0.9341   48.2758   23.4491 O.2       1 UNK         0.0000 
     15 C15        -2.6629   47.3418   24.8262 C.ar      1 UNK         0.0000 
     16 C16        -3.2681   46.6220   23.7853 C.ar      1 UNK         0.0000 
     17 C17        -4.4972   45.9870   23.9816 C.ar      1 UNK         0.0000 
     18 C18        -5.1401   46.0620   25.2183 C.ar      1 UNK         0.0000 
     19 C19        -4.5515   46.7685   26.2662 C.ar      1 UNK         0.0000 
     20 C20        -3.3203   47.3936   26.0669 C.ar      1 UNK         0.0000 
     21 S21        -5.3968   46.8936   27.8423 S.o2      1 UNK         0.0000 
     22 O22        -5.2955   45.5780   28.4816 O.2       1 UNK         0.0000 
     23 O23        -6.7175   47.4714   27.5745 O.2       1 UNK         0.0000 
     24 N24        -4.4957   48.0448   28.8368 N.pl3     1 UNK         0.0000 
     25 C25        -4.7249   48.0805   30.2963 C.3       1 UNK         0.0000 
     26 C26        -6.1936   48.1646   30.6624 C.2       1 UNK         0.0000 
     27 C27        -6.8247   47.2977   31.4700 C.2       1 UNK         0.0000 
     28 C28         0.6725   52.0458   26.4231 C.2       1 UNK         0.0000 
     29 C29         0.6339   52.2993   27.7497 C.2       1 UNK         0.0000 
     30 C30        -0.1625   51.6992   28.8318 C.2       1 UNK         0.0000 
     31 C31        -0.0898   52.1605   30.0930 C.2       1 UNK         0.0000 
     32 C32         0.8133   53.2664   30.3623 C.2       1 UNK         0.0000 
     33 C33         1.5869   53.8160   29.3885 C.2       1 UNK         0.0000 
     34 C34         1.5126   53.3410   28.0709 C.2       1 UNK         0.0000 
     35 N35         2.1607   53.7379   27.0052 N.pl3     1 UNK         0.0000 
     36 C36         1.7019   52.9871   25.8253 C.3       1 UNK         0.0000 
     37 H37        -7.4098   53.1641   24.8165 H         1 UNK         0.0000 
     38 H38        -5.9490   54.0734   24.4584 H         1 UNK         0.0000 
     39 H39        -6.2462   52.4964   23.6817 H         1 UNK         0.0000 
     40 H40        -4.4992   50.8226   27.2932 H         1 UNK         0.0000 
     41 H41        -2.1524   50.1865   27.2658 H         1 UNK         0.0000 
     42 H42        -1.5013   52.7242   23.8527 H         1 UNK         0.0000 
     43 H43        -3.8593   53.3227   23.8599 H         1 UNK         0.0000 
     44 H44         0.7325   49.4564   26.7371 H         1 UNK         0.0000 
     45 H45         1.0991   49.3067   25.0531 H         1 UNK         0.0000 
     46 H46        -1.0865   48.2625   26.5954 H         1 UNK         0.0000 
     47 H47        -2.8032   46.5706   22.8110 H         1 UNK         0.0000 
     48 H48        -4.9632   45.4527   23.1671 H         1 UNK         0.0000 
     49 H49        -6.0998   45.5842   25.3601 H         1 UNK         0.0000 
     50 H50        -2.8957   47.9544   26.8817 H         1 UNK         0.0000 
     51 H51        -3.4899   48.0897   28.6255 H         1 UNK         0.0000 
     52 H52        -4.1877   48.9341   30.7127 H         1 UNK         0.0000 
     53 H53        -4.2504   47.2033   30.7382 H         1 UNK         0.0000 
     54 H54        -6.7495   48.9801   30.2212 H         1 UNK         0.0000 
     55 H55        -6.3045   46.4679   31.9254 H         1 UNK         0.0000 
     56 H56        -7.8773   47.4074   31.6880 H         1 UNK         0.0000 
     57 H57        -0.8126   50.8573   28.6685 H         1 UNK         0.0000 
     58 H58        -0.6744   51.7065   30.8846 H         1 UNK         0.0000 
     59 H59         0.8611   53.6557   31.3703 H         1 UNK         0.0000 
     60 H60         2.2369   54.6406   29.6433 H         1 UNK         0.0000 
     61 H61         2.5691   52.4966   25.3809 H         1 UNK         0.0000 
     62 H62         1.2786   53.6984   25.1144 H         1 UNK         0.0000 
     63 H63         2.8548   54.4804   26.9767 H         1 UNK         0.0000 
@<TRIPOS>BOND
     1    1    2 1    
     2    1   37 1    
     3    1   38 1    
     4    1   39 1    
     5    2    3 1    
     6    3    8 ar   
     7    3    4 ar   
     8    4    5 ar   
     9    4   40 1    
    10    5    6 ar   
    11    5   41 1    
    12    6    7 ar   
    13    6    9 1    
    14    7    8 ar   
    15    7   42 1    
    16    8   43 1    
    17    9   10 1    
    18    9   11 1    
    19    9   28 1    
    20   11   12 1    
    21   11   44 1    
    22   11   45 1    
    23   12   13 am   BACKBONE|DICT|INTERRES
    24   12   46 1    
    25   13   14 2    
    26   13   15 1    
    27   15   20 ar   
    28   15   16 ar   
    29   16   17 ar   
    30   16   47 1    
    31   17   18 ar   
    32   17   48 1    
    33   18   19 ar   
    34   18   49 1    
    35   19   20 ar   
    36   19   21 1    
    37   20   50 1    
    38   21   22 2    
    39   21   23 2    
    40   21   24 1    
    41   24   25 1    
    42   24   51 1    
    43   25   26 1    
    44   25   52 1    
    45   25   53 1    
    46   26   27 2    
    47   26   54 1    
    48   27   55 1    
    49   27   56 1    
    50   28   36 1    
    51   28   29 2    
    52   29   34 1    
    53   29   30 1    
    54   30   31 2    
    55   30   57 1    
    56   31   32 1    
    57   31   58 1    
    58   32   33 2    
    59   32   59 1    
    60   33   34 1    
    61   33   60 1    
    62   34   35 2    
    63   35   36 1    
    64   35   63 1    
    65   36   61 1    
    66   36   62 1    
@<TRIPOS>SUBSTRUCTURE
     1 UNK         1 GROUP             0       ****    0 ROOT    
