@<TRIPOS>MOLECULE
ZINC20744650_275
53   55    1
SMALL
USER_CHARGES


@<TRIPOS>ATOM
      1 C1          0.3232   54.1303   31.3392 C.3       1 UNK         0.0000 
      2 C2          0.9901   52.7510   31.2146 C.3       1 UNK         0.0000 
      3 C3          1.0638   52.1934   29.7688 C.3       1 UNK         0.0000 
      4 H4          1.6776   51.2967   29.8253 H         1 UNK         0.0000 
      5 C5         -0.3347   51.7093   29.3354 C.3       1 UNK         0.0000 
      6 C6          1.7501   53.1389   28.7216 C.3       1 UNK         0.0000 
      7 H7          1.2292   54.0966   28.7674 H         1 UNK         0.0000 
      8 C8          3.2203   53.4388   29.0817 C.2       1 UNK         0.0000 
      9 O9          3.5242   54.0962   30.0804 O.2       1 UNK         0.0000 
     10 O10         4.1233   52.8973   28.2333 O.3       1 UNK         0.0000 
     11 C11         5.5023   53.2098   28.3239 C.3       1 UNK         0.0000 
     12 N12         1.5286   52.6856   27.3173 N.am      1 UNK         0.0000 
     13 C13         1.9233   53.2969   26.1740 C.2       1 UNK         0.0000 
     14 O14         2.7504   54.2074   26.1975 O.2       1 UNK         0.0000 
     15 N15         1.3214   52.9012   25.0154 N.am      1 UNK         0.0000 
     16 C16         1.5746   53.7139   23.7866 C.3       1 UNK         0.0000 
     17 C17         2.5087   52.9475   22.8199 C.3       1 UNK         0.0000 
     18 C18         1.9034   51.5757   22.5803 C.ar      1 UNK         0.0000 
     19 C19         1.0434   50.9940   23.5031 C.ar      1 UNK         0.0000 
     20 N20         0.7629   49.7592   22.9877 N.pl3     1 UNK         0.0000 
     21 H21         0.1946   49.0393   23.4115 H         1 UNK         0.0000 
     22 C22         1.4190   49.7068   21.7843 C.ar      1 UNK         0.0000 
     23 N23         2.1018   50.7988   21.5268 N.2       1 UNK         0.0000 
     24 C24         0.6574   51.5675   24.8610 C.3       1 UNK         0.0000 
     25 H25         1.1010   50.9169   25.6150 H         1 UNK         0.0000 
     26 C26        -0.8474   51.5096   25.1706 C.ar      1 UNK         0.0000 
     27 C27        -1.2980   50.5476   26.0824 C.ar      1 UNK         0.0000 
     28 C28        -2.6363   50.4956   26.4664 C.ar      1 UNK         0.0000 
     29 C29        -3.5546   51.3881   25.9220 C.ar      1 UNK         0.0000 
     30 C30        -3.1334   52.3275   24.9822 C.ar      1 UNK         0.0000 
     31 C31        -1.7898   52.3862   24.6027 C.ar      1 UNK         0.0000 
     32 F32        -1.4278   53.3033   23.6826 F         1 UNK         0.0000 
     33 F33        -4.0277   53.1881   24.4402 F         1 UNK         0.0000 
     34 F34        -4.8514   51.3371   26.3023 F         1 UNK         0.0000 
     35 H35        -0.4800   54.2609   30.6166 H         1 UNK         0.0000 
     36 H36        -0.0966   54.2598   32.3363 H         1 UNK         0.0000 
     37 H37         1.0416   54.9344   31.1785 H         1 UNK         0.0000 
     38 H38         1.9891   52.7993   31.6433 H         1 UNK         0.0000 
     39 H39         0.4637   52.0443   31.8575 H         1 UNK         0.0000 
     40 H40        -0.9602   52.5386   29.0148 H         1 UNK         0.0000 
     41 H41        -0.2611   51.0046   28.5110 H         1 UNK         0.0000 
     42 H42        -0.8598   51.1897   30.1385 H         1 UNK         0.0000 
     43 H43         6.0500   52.6877   27.5399 H         1 UNK         0.0000 
     44 H44         5.6722   54.2815   28.2042 H         1 UNK         0.0000 
     45 H45         5.9053   52.8991   29.2817 H         1 UNK         0.0000 
     46 H46         0.8083   51.9849   27.2267 H         1 UNK         0.0000 
     47 H47         0.6338   53.8921   23.2801 H         1 UNK         0.0000 
     48 H48         1.9264   54.7233   24.0074 H         1 UNK         0.0000 
     49 H49         2.6031   53.5004   21.8842 H         1 UNK         0.0000 
     50 H50         3.5129   52.8974   23.2399 H         1 UNK         0.0000 
     51 H51         1.3546   48.8279   21.1605 H         1 UNK         0.0000 
     52 H52        -0.6127   49.8351   26.5224 H         1 UNK         0.0000 
     53 H53        -2.9508   49.7558   27.1914 H         1 UNK         0.0000 
@<TRIPOS>BOND
     1    1    2 1    
     2    1   35 1    
     3    1   36 1    
     4    1   37 1    
     5    2    3 1    
     6    2   38 1    
     7    2   39 1    
     8    3    4 1    
     9    3    5 1    
    10    3    6 1    
    11    5   40 1    
    12    5   41 1    
    13    5   42 1    
    14    6    7 1    
    15    6    8 1    
    16    6   12 1    
    17    8    9 2    
    18    8   10 1    
    19   10   11 1    
    20   11   43 1    
    21   11   44 1    
    22   11   45 1    
    23   12   13 am   BACKBONE|DICT|INTERRES
    24   12   46 1    
    25   13   14 2    
    26   13   15 am   BACKBONE|DICT|INTERRES
    27   15   24 1    
    28   15   16 1    
    29   16   17 1    
    30   16   47 1    
    31   16   48 1    
    32   17   18 1    
    33   17   49 1    
    34   17   50 1    
    35   18   23 ar   
    36   18   19 ar   
    37   19   20 ar   
    38   19   24 1    
    39   20   21 1    
    40   20   22 ar   
    41   22   23 ar   
    42   22   51 1    
    43   24   25 1    
    44   24   26 1    
    45   26   31 ar   
    46   26   27 ar   
    47   27   28 ar   
    48   27   52 1    
    49   28   29 ar   
    50   28   53 1    
    51   29   30 ar   
    52   29   34 1    
    53   30   31 ar   
    54   30   33 1    
    55   31   32 1    
@<TRIPOS>SUBSTRUCTURE
     1 UNK         1 GROUP             0       ****    0 ROOT    
