ZINC38653685_775
                    3D
 Schrodinger Suite 2024-2.
 51 54  0  0  1  0            999 V2000
    1.1149   55.2949   16.8814 C   0  0  0  0  0  0
    2.2717   54.5755   17.2817 O   0  0  0  0  0  0
    2.2507   53.2234   17.3609 C   0  0  0  0  0  0
    1.2842   52.5043   17.1080 O   0  0  0  0  0  0
    3.5740   52.6146   17.8607 C   0  0  2  0  0  0
    3.4954   51.5275   17.9473 H   0  0  0  0  0  0
    4.1619   53.2706   19.0983 C   0  0  0  0  0  0
    5.3471   53.8248   18.7834 C   0  0  0  0  0  0
    6.2968   54.6159   19.5752 C   0  0  0  0  0  0
    7.4499   55.0576   19.0370 C   0  0  0  0  0  0
    7.7131   54.7272   17.6425 C   0  0  0  0  0  0
    6.8353   54.0171   16.8857 C   0  0  0  0  0  0
    5.6309   53.5673   17.4386 C   0  0  0  0  0  0
    4.6461   52.8967   16.8754 N   0  3  0  0  0  0
    8.7308   56.0967   20.1029 Br  0  0  0  0  0  0
    3.4353   53.2968   20.2503 N   0  0  0  0  0  0
    3.8815   52.9370   21.4766 C   0  0  0  0  0  0
    4.9297   52.2957   21.6118 O   0  0  0  0  0  0
    3.0195   53.3089   22.7560 C   0  0  0  0  0  0
    1.9898   52.1599   23.0332 C   0  0  0  0  0  0
    2.3022   50.8028   22.8196 C   0  0  0  0  0  0
    1.3691   49.8017   23.0678 C   0  0  0  0  0  0
    0.1095   50.1334   23.5529 C   0  0  0  0  0  0
   -0.2273   51.4628   23.7804 C   0  0  0  0  0  0
    0.7029   52.4643   23.5188 C   0  0  0  0  0  0
    3.8891   53.6967   23.9970 C   0  0  0  0  0  0
    5.2124   54.1704   23.8809 C   0  0  0  0  0  0
    5.9442   54.5569   25.0000 C   0  0  0  0  0  0
    5.3553   54.5083   26.2586 C   0  0  0  0  0  0
    4.0360   54.0921   26.3998 C   0  0  0  0  0  0
    3.3103   53.6967   25.2785 C   0  0  0  0  0  0
    2.3051   54.4967   22.4817 O   0  0  0  0  0  0
    1.3298   56.3637   16.8696 H   0  0  0  0  0  0
    0.7951   55.0017   15.8802 H   0  0  0  0  0  0
    0.2892   55.1236   17.5738 H   0  0  0  0  0  0
    6.1017   54.8570   20.6095 H   0  0  0  0  0  0
    8.6405   55.0605   17.1986 H   0  0  0  0  0  0
    7.0875   53.8036   15.8570 H   0  0  0  0  0  0
    2.5378   53.7528   20.1583 H   0  0  0  0  0  0
    3.2712   50.4966   22.4571 H   0  0  0  0  0  0
    1.6309   48.7690   22.8941 H   0  0  0  0  0  0
   -0.6083   49.3532   23.7611 H   0  0  0  0  0  0
   -1.2046   51.7154   24.1652 H   0  0  0  0  0  0
    0.4159   53.4866   23.7183 H   0  0  0  0  0  0
    5.7004   54.2559   22.9232 H   0  0  0  0  0  0
    6.9623   54.8994   24.8854 H   0  0  0  0  0  0
    5.9189   54.8087   27.1302 H   0  0  0  0  0  0
    3.5760   54.0702   27.3768 H   0  0  0  0  0  0
    2.2873   53.3868   25.4222 H   0  0  0  0  0  0
    1.9043   54.4837   21.6050 H   0  0  0  0  0  0
    4.6285   52.5733   15.9118 H   0  0  0  0  0  0
  1  2  1  0  0  0
  1 33  1  0  0  0
  1 34  1  0  0  0
  1 35  1  0  0  0
  2  3  1  0  0  0
  3  4  2  0  0  0
  3  5  1  0  0  0
  5  6  1  0  0  0
  5 14  1  0  0  0
  5  7  1  0  0  0
  7  8  2  0  0  0
  7 16  1  0  0  0
  8 13  1  0  0  0
  8  9  1  0  0  0
  9 10  2  0  0  0
  9 36  1  0  0  0
 10 11  1  0  0  0
 10 15  1  0  0  0
 11 12  2  0  0  0
 11 37  1  0  0  0
 12 13  1  0  0  0
 12 38  1  0  0  0
 13 14  2  0  0  0
 14 51  1  0  0  0
 16 17  1  0  0  0
 16 39  1  0  0  0
 17 18  2  0  0  0
 17 19  1  0  0  0
 19 20  1  0  0  0
 19 26  1  0  0  0
 19 32  1  0  0  0
 20 25  2  0  0  0
 20 21  1  0  0  0
 21 22  2  0  0  0
 21 40  1  0  0  0
 22 23  1  0  0  0
 22 41  1  0  0  0
 23 24  2  0  0  0
 23 42  1  0  0  0
 24 25  1  0  0  0
 24 43  1  0  0  0
 25 44  1  0  0  0
 26 31  2  0  0  0
 26 27  1  0  0  0
 27 28  2  0  0  0
 27 45  1  0  0  0
 28 29  1  0  0  0
 28 46  1  0  0  0
 29 30  2  0  0  0
 29 47  1  0  0  0
 30 31  1  0  0  0
 30 48  1  0  0  0
 31 49  1  0  0  0
 32 50  1  0  0  0
M  CHG  1  14   1
M  END
> <i_i_glide_confnum>
113

> <i_i_glide_lignum>
776

> <i_i_glide_posenum>
184

> <i_i_glide_rotatable_bonds>
8

> <i_m_Source_File_Index>
1074

> <b_m_subgroup_collapsed>
0

> <r_i_docking_score>
-5.87262

> <r_i_glide_ecoul>
-9.05308

> <r_i_glide_eff_state_penalty>
0

> <r_i_glide_einternal>
12.2757

> <r_i_glide_emodel>
-52.1638

> <r_i_glide_energy>
-41.6272

> <r_i_glide_erotb>
0.527353

> <r_i_glide_esite>
-0.0951648

> <r_i_glide_evdw>
-32.5741

> <r_i_glide_gscore>
-5.87262

> <r_i_glide_hbond>
-0.608

> <r_i_glide_ligand_efficiency>
-0.189439

> <r_i_glide_ligand_efficiency_ln>
-1.32446

> <r_i_glide_ligand_efficiency_sa>
-0.595101

> <r_i_glide_lipo>
-2.38108

> <r_i_glide_metal>
0

> <r_i_glide_rewards>
-0.32906

> <s_i_glide_gridfile>
wee1_glide-grid

> <s_m_Source_File>
wee1_decoys_glide_SP.sdf

> <s_m_Source_Path>
/Users/zhangxujun/Desktop

> <s_m_entry_id>
1349

> <s_m_entry_name>
wee1_decoys_glide_SP.1074

> <s_m_subgroup_title>
wee1_decoys_glide_SP

> <s_m_subgroupid>
wee1_decoys_glide_SP


$$$$
