@<TRIPOS>MOLECULE
ZINC35397540_3292
65   68    1
SMALL
USER_CHARGES


@<TRIPOS>ATOM
      1 C1          7.9969   51.7174   16.4107 C.3       1 UNK         0.0000 
      2 C2          8.6874   53.0177   16.7780 C.ar      1 UNK         0.0000 
      3 C3         10.0763   53.0751   16.8817 C.ar      1 UNK         0.0000 
      4 C4         10.7019   54.2689   17.2315 C.ar      1 UNK         0.0000 
      5 C5          9.9522   55.4216   17.4890 C.ar      1 UNK         0.0000 
      6 C6          8.5451   55.3691   17.3967 C.ar      1 UNK         0.0000 
      7 C7          7.9316   54.1653   17.0217 C.ar      1 UNK         0.0000 
      8 S8          7.4800   56.7735   17.8153 S.o2      1 UNK         0.0000 
      9 O9          8.1888   57.9709   17.3551 O.2       1 UNK         0.0000 
     10 O10         6.1934   56.5026   17.1638 O.2       1 UNK         0.0000 
     11 N11         7.4898   56.6204   19.3835 N.2       1 UNK         0.0000 
     12 C12         6.6847   55.7806   20.1151 C.ar      1 UNK         0.0000 
     13 C13         6.9081   55.6959   21.4949 C.ar      1 UNK         0.0000 
     14 C14         6.1150   54.8969   22.3391 C.ar      1 UNK         0.0000 
     15 C15         5.0181   54.1866   21.7676 C.ar      1 UNK         0.0000 
     16 N16         4.8813   54.2565   20.4266 N.pl3     1 UNK         0.0000 
     17 C17         5.6502   54.9860   19.6073 C.ar      1 UNK         0.0000 
     18 N18         3.9601   53.4716   22.4598 N.pl3     1 UNK         0.0000 
     19 C19         3.3440   52.2662   21.8167 C.3       1 UNK         0.0000 
     20 C20         1.8610   52.0664   22.1938 C.3       1 UNK         0.0000 
     21 C21         1.6808   52.0478   23.7164 C.3       1 UNK         0.0000 
     22 C22         2.2024   53.3798   24.2835 C.3       1 UNK         0.0000 
     23 C23         3.6843   53.5990   23.9185 C.3       1 UNK         0.0000 
     24 N24         0.2066   51.7332   24.1127 N.4       1 UNK         0.0000 
     25 C25        -0.8257   52.8064   23.6803 C.3       1 UNK         0.0000 
     26 C26        -2.2441   52.3289   24.0438 C.3       1 UNK         0.0000 
     27 C27        -2.3751   51.9663   25.5322 C.3       1 UNK         0.0000 
     28 C28        -1.3250   50.9215   25.9446 C.3       1 UNK         0.0000 
     29 C29         0.1037   51.3923   25.6234 C.3       1 UNK         0.0000 
     30 C30         6.5161   54.8273   23.7784 C.2       1 UNK         0.0000 
     31 O31         6.7042   55.9002   24.3908 O.co2     1 UNK         0.0000 
     32 O32         6.6742   53.6968   24.2752 O.co2     1 UNK         0.0000 
     33 C33        10.7042   56.6888   17.8729 C.3       1 UNK         0.0000 
     34 H34         7.2318   51.8928   15.6527 H         1 UNK         0.0000 
     35 H35         8.6955   50.9842   16.0051 H         1 UNK         0.0000 
     36 H36         7.5043   51.2960   17.2874 H         1 UNK         0.0000 
     37 H37        10.6757   52.1938   16.7046 H         1 UNK         0.0000 
     38 H38        11.7789   54.2893   17.3136 H         1 UNK         0.0000 
     39 H39         6.8564   54.1074   16.9439 H         1 UNK         0.0000 
     40 H40         7.7378   56.2476   21.9174 H         1 UNK         0.0000 
     41 H41         5.3569   54.9170   18.5742 H         1 UNK         0.0000 
     42 H42         3.3931   52.3433   20.7315 H         1 UNK         0.0000 
     43 H43         3.9541   51.4026   22.0812 H         1 UNK         0.0000 
     44 H44         1.2810   52.8753   21.7472 H         1 UNK         0.0000 
     45 H45         1.4545   51.1591   21.7438 H         1 UNK         0.0000 
     46 H46         2.2980   51.2264   24.0861 H         1 UNK         0.0000 
     47 H47         2.0658   53.4394   25.3624 H         1 UNK         0.0000 
     48 H48         1.6164   54.2125   23.8930 H         1 UNK         0.0000 
     49 H49         4.3245   52.8982   24.4534 H         1 UNK         0.0000 
     50 H50         3.9450   54.6101   24.2309 H         1 UNK         0.0000 
     51 H51        -0.5643   53.7503   24.1569 H         1 UNK         0.0000 
     52 H52        -0.7548   52.8951   22.5972 H         1 UNK         0.0000 
     53 H53        -2.9659   53.1077   23.7906 H         1 UNK         0.0000 
     54 H54        -2.5084   51.4657   23.4313 H         1 UNK         0.0000 
     55 H55        -3.3770   51.5853   25.7366 H         1 UNK         0.0000 
     56 H56        -2.2628   52.8638   26.1434 H         1 UNK         0.0000 
     57 H57        -1.5222   49.9707   25.4457 H         1 UNK         0.0000 
     58 H58        -1.4092   50.7104   27.0131 H         1 UNK         0.0000 
     59 H59         0.8015   50.5761   25.8182 H         1 UNK         0.0000 
     60 H60         0.3867   52.2723   26.2016 H         1 UNK         0.0000 
     61 H61        10.6437   57.4268   17.0734 H         1 UNK         0.0000 
     62 H62        10.2752   57.1286   18.7743 H         1 UNK         0.0000 
     63 H63        11.7570   56.4974   18.0804 H         1 UNK         0.0000 
     64 H64        -0.0351   50.8781   23.6308 H         1 UNK         0.0000 
     65 H65         4.1088   53.7545   20.0108 H         1 UNK         0.0000 
@<TRIPOS>BOND
     1    1    2 1    
     2    1   34 1    
     3    1   35 1    
     4    1   36 1    
     5    2    7 ar   
     6    2    3 ar   
     7    3    4 ar   
     8    3   37 1    
     9    4    5 ar   
    10    4   38 1    
    11    5    6 ar   
    12    5   33 1    
    13    6    7 ar   
    14    6    8 1    
    15    7   39 1    
    16    8    9 2    
    17    8   10 2    
    18    8   11 1    
    19   11   12 1    
    20   12   17 ar   
    21   12   13 ar   
    22   13   14 ar   
    23   13   40 1    
    24   14   15 ar   
    25   14   30 1    
    26   15   16 ar   
    27   15   18 1    
    28   16   17 ar   
    29   16   65 1    
    30   17   41 1    
    31   18   23 1    
    32   18   19 1    
    33   19   20 1    
    34   19   42 1    
    35   19   43 1    
    36   20   21 1    
    37   20   44 1    
    38   20   45 1    
    39   21   22 1    
    40   21   24 1    
    41   21   46 1    
    42   22   23 1    
    43   22   47 1    
    44   22   48 1    
    45   23   49 1    
    46   23   50 1    
    47   24   29 1    
    48   24   25 1    
    49   24   64 1    
    50   25   26 1    
    51   25   51 1    
    52   25   52 1    
    53   26   27 1    
    54   26   53 1    
    55   26   54 1    
    56   27   28 1    
    57   27   55 1    
    58   27   56 1    
    59   28   29 1    
    60   28   57 1    
    61   28   58 1    
    62   29   59 1    
    63   29   60 1    
    64   30   31 2    
    65   30   32 1    
    66   33   61 1    
    67   33   62 1    
    68   33   63 1    
@<TRIPOS>SUBSTRUCTURE
     1 UNK         1 GROUP             0       ****    0 ROOT    
