ZINC63537910_5016
                    3D
 Schrodinger Suite 2024-2.
 57 61  0  0  1  0            999 V2000
    4.0037   54.2106   26.6797 C   0  0  0  0  0  0
    4.0174   53.9754   28.0527 C   0  0  0  0  0  0
    2.9970   53.2316   28.6384 C   0  0  0  0  0  0
    1.9564   52.7315   27.8573 C   0  0  0  0  0  0
    1.9426   52.9613   26.4820 C   0  0  0  0  0  0
    2.9762   53.6971   25.8702 C   0  0  0  0  0  0
    3.0021   53.9352   24.3407 C   0  0  2  0  0  0
    2.5222   54.9093   24.2370 H   0  0  0  0  0  0
    2.1822   52.9066   23.4982 C   0  0  0  0  0  0
    2.3447   53.0460   21.9526 C   0  0  1  0  0  0
    1.8946   53.9982   21.6817 H   0  0  0  0  0  0
    3.7663   53.2071   21.6148 N   0  0  0  0  0  0
    4.3365   54.3210   22.3542 C   0  0  1  0  0  0
    3.7722   55.2250   22.1185 H   0  0  0  0  0  0
    4.3515   54.1157   23.7957 N   0  0  0  0  0  0
    5.7095   54.4281   21.7311 C   0  0  0  0  0  0
    5.4432   54.0972   20.2443 C   0  0  1  0  0  0
    6.1779   53.4043   19.8335 H   0  0  0  0  0  0
    4.1149   53.4735   20.2165 N   0  0  0  0  0  0
    5.5053   55.3400   19.3132 C   0  0  0  0  0  0
    5.9045   56.4300   19.7331 O   0  0  0  0  0  0
    5.1438   55.1713   18.0236 N   0  0  0  0  0  0
    5.1297   56.2474   17.0261 C   0  0  0  0  0  0
    3.8585   57.1096   17.1605 C   0  0  2  0  0  0
    3.6807   57.3097   18.2137 H   0  0  0  0  0  0
    2.6411   56.5068   16.4932 C   0  0  0  0  0  0
    2.1334   57.4055   15.6368 C   0  0  0  0  0  0
    0.9554   57.3473   14.7618 C   0  0  0  0  0  0
    0.6118   58.4014   13.9895 C   0  0  0  0  0  0
    1.4562   59.5863   14.0615 C   0  0  0  0  0  0
    2.5564   59.6532   14.8575 C   0  0  0  0  0  0
    2.9168   58.5613   15.6565 C   0  0  0  0  0  0
    3.9304   58.4262   16.4828 N   0  3  0  0  0  0
   -0.8078   58.3508   12.9391 Cl  0  0  0  0  0  0
    1.6037   51.9258   21.1751 C   0  0  0  0  0  0
    0.3138   51.8899   21.5176 F   0  0  0  0  0  0
    1.6449   52.0928   19.8540 F   0  0  0  0  0  0
    2.1179   50.7240   21.4469 F   0  0  0  0  0  0
    3.0265   52.9220   30.3381 Cl  0  0  0  0  0  0
    4.8072   54.7889   26.2488 H   0  0  0  0  0  0
    4.8243   54.3639   28.6581 H   0  0  0  0  0  0
    1.1651   52.1549   28.3162 H   0  0  0  0  0  0
    1.1255   52.5496   25.9079 H   0  0  0  0  0  0
    1.1256   53.0203   23.7460 H   0  0  0  0  0  0
    2.4896   51.9027   23.7980 H   0  0  0  0  0  0
    4.9048   53.2952   23.9988 H   0  0  0  0  0  0
    6.3754   53.6963   22.1744 H   0  0  0  0  0  0
    6.1638   55.3999   21.9295 H   0  0  0  0  0  0
    4.2023   52.5551   19.7923 H   0  0  0  0  0  0
    4.8498   54.2520   17.7253 H   0  0  0  0  0  0
    5.2048   55.8182   16.0257 H   0  0  0  0  0  0
    6.0255   56.8656   17.1411 H   0  0  0  0  0  0
    2.2678   55.5195   16.7248 H   0  0  0  0  0  0
    0.3354   56.4635   14.7156 H   0  0  0  0  0  0
    1.1955   60.4498   13.4679 H   0  0  0  0  0  0
    3.1326   60.5680   14.8803 H   0  0  0  0  0  0
    4.6229   59.1511   16.6806 H   0  0  0  0  0  0
  1  6  2  0  0  0
  1  2  1  0  0  0
  1 40  1  0  0  0
  2  3  2  0  0  0
  2 41  1  0  0  0
  3  4  1  0  0  0
  3 39  1  0  0  0
  4  5  2  0  0  0
  4 42  1  0  0  0
  5  6  1  0  0  0
  5 43  1  0  0  0
  6  7  1  0  0  0
  7  8  1  0  0  0
  7 15  1  0  0  0
  7  9  1  0  0  0
  9 10  1  0  0  0
  9 44  1  0  0  0
  9 45  1  0  0  0
 10 11  1  0  0  0
 10 12  1  0  0  0
 10 35  1  0  0  0
 12 19  1  0  0  0
 12 13  1  0  0  0
 13 14  1  0  0  0
 13 15  1  0  0  0
 13 16  1  0  0  0
 15 46  1  0  0  0
 16 17  1  0  0  0
 16 47  1  0  0  0
 16 48  1  0  0  0
 17 18  1  0  0  0
 17 19  1  0  0  0
 17 20  1  0  0  0
 19 49  1  0  0  0
 20 21  2  0  0  0
 20 22  1  0  0  0
 22 23  1  0  0  0
 22 50  1  0  0  0
 23 24  1  0  0  0
 23 51  1  0  0  0
 23 52  1  0  0  0
 24 25  1  0  0  0
 24 33  1  0  0  0
 24 26  1  0  0  0
 26 27  2  0  0  0
 26 53  1  0  0  0
 27 32  1  0  0  0
 27 28  1  0  0  0
 28 29  2  0  0  0
 28 54  1  0  0  0
 29 30  1  0  0  0
 29 34  1  0  0  0
 30 31  2  0  0  0
 30 55  1  0  0  0
 31 32  1  0  0  0
 31 56  1  0  0  0
 32 33  2  0  0  0
 33 57  1  0  0  0
 35 36  1  0  0  0
 35 37  1  0  0  0
 35 38  1  0  0  0
M  CHG  1  33   1
M  END
> <i_i_glide_confnum>
22

> <i_i_glide_lignum>
5017

> <i_i_glide_posenum>
243

> <i_i_glide_rotatable_bonds>
6

> <i_m_Source_File_Index>
2468

> <b_m_subgroup_collapsed>
0

> <r_i_docking_score>
-4.49179

> <r_i_glide_ecoul>
-3.70237

> <r_i_glide_eff_state_penalty>
0

> <r_i_glide_einternal>
3.44255

> <r_i_glide_emodel>
-48.0908

> <r_i_glide_energy>
-36.7384

> <r_i_glide_erotb>
0.311233

> <r_i_glide_esite>
-0.0989086

> <r_i_glide_evdw>
-33.0361

> <r_i_glide_gscore>
-4.49179

> <r_i_glide_hbond>
0

> <r_i_glide_ligand_efficiency>
-0.132112

> <r_i_glide_ligand_efficiency_ln>
-0.992363

> <r_i_glide_ligand_efficiency_sa>
-0.42799

> <r_i_glide_lipo>
-2.0169

> <r_i_glide_metal>
0

> <r_i_glide_rewards>
-0.480061

> <s_i_glide_gridfile>
wee1_glide-grid

> <s_m_Source_File>
wee1_decoys_glide_SP.sdf

> <s_m_Source_Path>
/Users/zhangxujun/Desktop

> <s_m_entry_id>
2743

> <s_m_entry_name>
wee1_decoys_glide_SP.2468

> <s_m_subgroup_title>
wee1_decoys_glide_SP

> <s_m_subgroupid>
wee1_decoys_glide_SP


$$$$
