ZINC00673855_5215
                    3D
 Schrodinger Suite 2024-2.
 42 45  0  0  1  0            999 V2000
    7.9796   55.6975   20.3541 C   0  0  0  0  0  0
    7.3699   55.4619   21.5863 C   0  0  0  0  0  0
    6.1085   54.8549   21.6469 C   0  0  0  0  0  0
    5.4541   54.5259   20.4550 C   0  0  0  0  0  0
    6.0508   54.7934   19.2224 C   0  0  0  0  0  0
    7.3173   55.3732   19.1715 C   0  0  0  0  0  0
    5.2275   54.3933   17.7607 Cl  0  0  0  0  0  0
    5.4523   54.4966   22.8347 N   0  0  0  0  0  0
    5.7260   54.8250   24.1160 C   0  0  0  0  0  0
    6.7047   55.4590   24.5094 O   0  0  0  0  0  0
    4.7214   54.3640   25.0432 C   0  0  0  0  0  0
    3.3329   54.1871   24.7956 C   0  0  0  0  0  0
    2.8208   53.6961   25.9773 C   0  0  0  0  0  0
    3.8779   53.6348   26.8580 N   0  0  0  0  0  0
    5.0060   54.0880   26.2993 N   0  0  0  0  0  0
    3.8298   53.1885   28.2505 C   0  0  2  0  0  0
    4.6609   52.4974   28.3958 H   0  0  0  0  0  0
    2.4928   52.4219   28.4494 C   0  0  0  0  0  0
    1.2889   53.1207   27.7725 C   0  0  1  0  0  0
    1.2065   54.1397   28.1546 H   0  0  0  0  0  0
    1.5742   53.2226   26.3375 N   0  0  0  0  0  0
   -0.0230   52.4118   28.0774 C   0  0  0  0  0  0
   -0.4959   51.9714   29.3177 C   0  0  0  0  0  0
   -1.7149   51.2993   29.2725 C   0  0  0  0  0  0
   -2.2656   51.2964   28.0058 C   0  0  0  0  0  0
   -1.2174   52.0368   26.8518 S   0  0  0  0  0  0
    4.0194   54.3345   29.2570 C   0  0  0  0  0  0
    3.9040   53.8448   30.4817 F   0  0  0  0  0  0
    5.2214   54.8960   29.1645 F   0  0  0  0  0  0
    3.1050   55.2966   29.1312 F   0  0  0  0  0  0
    2.3224   54.4966   23.2054 Br  0  0  0  0  0  0
    8.9686   56.1319   20.3145 H   0  0  0  0  0  0
    7.9046   55.7279   22.4813 H   0  0  0  0  0  0
    4.4786   54.0600   20.4700 H   0  0  0  0  0  0
    7.7861   55.5682   18.2165 H   0  0  0  0  0  0
    4.5937   53.9809   22.7029 H   0  0  0  0  0  0
    2.5939   51.4000   28.0809 H   0  0  0  0  0  0
    2.2974   52.2910   29.5140 H   0  0  0  0  0  0
    0.7634   53.4257   25.7712 H   0  0  0  0  0  0
    0.0538   52.0939   30.2397 H   0  0  0  0  0  0
   -2.1860   50.8556   30.1390 H   0  0  0  0  0  0
   -3.1921   50.8368   27.6947 H   0  0  0  0  0  0
  1  6  2  0  0  0
  1  2  1  0  0  0
  1 32  1  0  0  0
  2  3  2  0  0  0
  2 33  1  0  0  0
  3  4  1  0  0  0
  3  8  1  0  0  0
  4  5  2  0  0  0
  4 34  1  0  0  0
  5  6  1  0  0  0
  5  7  1  0  0  0
  6 35  1  0  0  0
  8  9  1  0  0  0
  8 36  1  0  0  0
  9 10  2  0  0  0
  9 11  1  0  0  0
 11 15  2  0  0  0
 11 12  1  0  0  0
 12 13  2  0  0  0
 12 31  1  0  0  0
 13 21  1  0  0  0
 13 14  1  0  0  0
 14 15  1  0  0  0
 14 16  1  0  0  0
 16 17  1  0  0  0
 16 18  1  0  0  0
 16 27  1  0  0  0
 18 19  1  0  0  0
 18 37  1  0  0  0
 18 38  1  0  0  0
 19 20  1  0  0  0
 19 21  1  0  0  0
 19 22  1  0  0  0
 21 39  1  0  0  0
 22 26  1  0  0  0
 22 23  2  0  0  0
 23 24  1  0  0  0
 23 40  1  0  0  0
 24 25  2  0  0  0
 24 41  1  0  0  0
 25 26  1  0  0  0
 25 42  1  0  0  0
 27 28  1  0  0  0
 27 29  1  0  0  0
 27 30  1  0  0  0
M  END
> <i_i_glide_confnum>
35

> <i_i_glide_lignum>
5216

> <i_i_glide_posenum>
363

> <i_i_glide_rotatable_bonds>
5

> <i_m_Source_File_Index>
5523

> <b_m_subgroup_collapsed>
0

> <r_i_docking_score>
-5.51478

> <r_i_glide_ecoul>
-3.06667

> <r_i_glide_eff_state_penalty>
0

> <r_i_glide_einternal>
3.84695

> <r_i_glide_emodel>
-56.7231

> <r_i_glide_energy>
-44.1432

> <r_i_glide_erotb>
0.319899

> <r_i_glide_esite>
-0.0413217

> <r_i_glide_evdw>
-41.0765

> <r_i_glide_gscore>
-5.51478

> <r_i_glide_hbond>
0

> <r_i_glide_ligand_efficiency>
-0.190165

> <r_i_glide_ligand_efficiency_ln>
-1.26274

> <r_i_glide_ligand_efficiency_sa>
-0.584247

> <r_i_glide_lipo>
-2.33618

> <r_i_glide_metal>
0

> <r_i_glide_rewards>
-0.94335

> <s_i_glide_gridfile>
wee1_glide-grid

> <s_m_Source_File>
wee1_decoys_glide_SP.sdf

> <s_m_Source_Path>
/Users/zhangxujun/Desktop

> <s_m_entry_id>
5798

> <s_m_entry_name>
wee1_decoys_glide_SP.5523

> <s_m_subgroup_title>
wee1_decoys_glide_SP

> <s_m_subgroupid>
wee1_decoys_glide_SP


$$$$
