ZINC36014205_2215
                    3D
 Schrodinger Suite 2024-2.
 64 67  0  0  1  0            999 V2000
    6.4871   54.3072   13.6502 C   0  0  0  0  0  0
    5.7589   53.9658   14.9387 C   0  0  0  0  0  0
    6.4373   53.9967   16.1579 C   0  0  0  0  0  0
    5.7700   53.6636   17.3348 C   0  0  0  0  0  0
    4.4132   53.3050   17.2986 C   0  0  0  0  0  0
    3.7395   53.2949   16.0742 C   0  0  0  0  0  0
    4.4079   53.6264   14.8992 C   0  0  0  0  0  0
    3.6450   52.9183   18.4143 N   0  0  0  0  0  0
    3.9813   52.8117   19.7227 C   0  0  0  0  0  0
    5.0945   53.1137   20.1603 O   0  0  0  0  0  0
    3.0082   52.2809   20.5240 N   0  0  0  0  0  0
    3.3553   52.0416   21.9433 C   0  0  0  0  0  0
    2.5338   50.8548   22.4970 C   0  0  0  0  0  0
    1.0262   50.9537   22.2553 C   0  0  0  0  0  0
    0.8171   51.1591   20.7408 C   0  0  0  0  0  0
    1.5601   52.3965   20.1931 C   0  0  0  0  0  0
    0.4229   49.6134   22.6502 N   0  3  0  0  0  0
   -0.8700   49.8742   23.3475 C   0  0  2  0  0  0
   -1.6550   49.6514   22.6239 H   0  0  0  0  0  0
   -0.8158   51.3840   23.6598 C   0  0  0  0  0  0
   -1.6614   51.9677   24.3367 O   0  0  0  0  0  0
    0.3022   51.9104   23.1111 N   0  0  0  0  0  0
    0.7097   53.2944   23.4456 C   0  0  0  0  0  0
    1.6701   53.4755   24.6255 C   0  0  0  0  0  0
    2.8111   54.2709   24.4792 C   0  0  0  0  0  0
    3.6835   54.4548   25.5459 C   0  0  0  0  0  0
    3.3977   53.8722   26.7761 C   0  0  0  0  0  0
    2.2513   53.1026   26.9433 C   0  0  0  0  0  0
    1.3905   52.8973   25.8679 C   0  0  0  0  0  0
    4.2305   54.0724   27.8222 F   0  0  0  0  0  0
   -0.9177   48.9185   24.5819 C   0  0  0  0  0  0
    0.1533   49.1982   25.6586 C   0  0  0  0  0  0
   -2.3049   48.9033   25.2419 C   0  0  0  0  0  0
    7.2894   55.0253   13.8247 H   0  0  0  0  0  0
    6.9115   53.4063   13.2050 H   0  0  0  0  0  0
    5.8086   54.7647   12.9289 H   0  0  0  0  0  0
    7.4832   54.2662   16.1954 H   0  0  0  0  0  0
    6.3367   53.6764   18.2513 H   0  0  0  0  0  0
    2.6969   53.0209   16.0200 H   0  0  0  0  0  0
    3.8775   53.6086   13.9583 H   0  0  0  0  0  0
    2.7070   52.6401   18.1821 H   0  0  0  0  0  0
    3.1415   52.9506   22.4779 H   0  0  0  0  0  0
    4.4085   51.7805   22.0671 H   0  0  0  0  0  0
    2.6714   50.7456   23.5719 H   0  0  0  0  0  0
    2.9445   49.9447   22.0546 H   0  0  0  0  0  0
    1.1547   50.2820   20.1821 H   0  0  0  0  0  0
   -0.2466   51.2556   20.5197 H   0  0  0  0  0  0
    1.1501   53.2946   20.6457 H   0  0  0  0  0  0
    1.3679   52.4101   19.1215 H   0  0  0  0  0  0
    1.0676   49.1491   23.2756 H   0  0  0  0  0  0
   -0.1730   53.8895   23.6843 H   0  0  0  0  0  0
    1.1286   53.7721   22.5651 H   0  0  0  0  0  0
    3.0359   54.7503   23.5355 H   0  0  0  0  0  0
    4.5665   55.0661   25.4286 H   0  0  0  0  0  0
    2.0306   52.6649   27.9055 H   0  0  0  0  0  0
    0.4884   52.3281   26.0167 H   0  0  0  0  0  0
   -0.7470   47.8993   24.2292 H   0  0  0  0  0  0
    0.0318   50.1849   26.0991 H   0  0  0  0  0  0
    0.0705   48.4936   26.4822 H   0  0  0  0  0  0
    1.1680   49.1199   25.2721 H   0  0  0  0  0  0
   -2.5733   49.8805   25.6401 H   0  0  0  0  0  0
   -3.0791   48.6047   24.5370 H   0  0  0  0  0  0
   -2.3307   48.2033   26.0773 H   0  0  0  0  0  0
    0.3243   49.0188   21.8401 H   0  0  0  0  0  0
  1  2  1  0  0  0
  1 34  1  0  0  0
  1 35  1  0  0  0
  1 36  1  0  0  0
  2  7  2  0  0  0
  2  3  1  0  0  0
  3  4  2  0  0  0
  3 37  1  0  0  0
  4  5  1  0  0  0
  4 38  1  0  0  0
  5  6  2  0  0  0
  5  8  1  0  0  0
  6  7  1  0  0  0
  6 39  1  0  0  0
  7 40  1  0  0  0
  8  9  1  0  0  0
  8 41  1  0  0  0
  9 10  2  0  0  0
  9 11  1  0  0  0
 11 16  1  0  0  0
 11 12  1  0  0  0
 12 13  1  0  0  0
 12 42  1  0  0  0
 12 43  1  0  0  0
 13 14  1  0  0  0
 13 44  1  0  0  0
 13 45  1  0  0  0
 14 22  1  0  0  0
 14 15  1  0  0  0
 14 17  1  0  0  0
 15 16  1  0  0  0
 15 46  1  0  0  0
 15 47  1  0  0  0
 16 48  1  0  0  0
 16 49  1  0  0  0
 17 18  1  0  0  0
 17 50  1  0  0  0
 17 64  1  0  0  0
 18 19  1  0  0  0
 18 20  1  0  0  0
 18 31  1  0  0  0
 20 21  2  0  0  0
 20 22  1  0  0  0
 22 23  1  0  0  0
 23 24  1  0  0  0
 23 51  1  0  0  0
 23 52  1  0  0  0
 24 29  2  0  0  0
 24 25  1  0  0  0
 25 26  2  0  0  0
 25 53  1  0  0  0
 26 27  1  0  0  0
 26 54  1  0  0  0
 27 28  2  0  0  0
 27 30  1  0  0  0
 28 29  1  0  0  0
 28 55  1  0  0  0
 29 56  1  0  0  0
 31 32  1  0  0  0
 31 33  1  0  0  0
 31 57  1  0  0  0
 32 58  1  0  0  0
 32 59  1  0  0  0
 32 60  1  0  0  0
 33 61  1  0  0  0
 33 62  1  0  0  0
 33 63  1  0  0  0
M  CHG  1  17   1
M  END
> <i_i_glide_confnum>
25

> <i_i_glide_lignum>
2216

> <i_i_glide_posenum>
360

> <i_i_glide_rotatable_bonds>
6

> <i_m_Source_File_Index>
5538

> <b_m_subgroup_collapsed>
0

> <r_i_docking_score>
-3.87438

> <r_i_glide_ecoul>
-2.76753

> <r_i_glide_eff_state_penalty>
0

> <r_i_glide_einternal>
1.95749

> <r_i_glide_emodel>
-40.3442

> <r_i_glide_energy>
-31.5991

> <r_i_glide_erotb>
0.51654

> <r_i_glide_esite>
-0.0977664

> <r_i_glide_evdw>
-28.8316

> <r_i_glide_gscore>
-3.87438

> <r_i_glide_hbond>
0

> <r_i_glide_ligand_efficiency>
-0.121074

> <r_i_glide_ligand_efficiency_ln>
-0.86758

> <r_i_glide_ligand_efficiency_sa>
-0.384387

> <r_i_glide_lipo>
-1.50934

> <r_i_glide_metal>
0

> <r_i_glide_rewards>
-0.927105

> <s_i_glide_gridfile>
wee1_glide-grid

> <s_m_Source_File>
wee1_decoys_glide_SP.sdf

> <s_m_Source_Path>
/Users/zhangxujun/Desktop

> <s_m_entry_id>
5813

> <s_m_entry_name>
wee1_decoys_glide_SP.5538

> <s_m_subgroup_title>
wee1_decoys_glide_SP

> <s_m_subgroupid>
wee1_decoys_glide_SP


$$$$
