@<TRIPOS>MOLECULE
ZINC35265306_441
61   64    1
SMALL
USER_CHARGES


@<TRIPOS>ATOM
      1 C1          1.5061   51.3896   17.3562 C.ar      1 UNK         0.0000 
      2 C2          1.6212   52.0457   18.5799 C.ar      1 UNK         0.0000 
      3 C3          1.3429   51.3710   19.7711 C.ar      1 UNK         0.0000 
      4 C4          0.9737   50.0172   19.7246 C.ar      1 UNK         0.0000 
      5 C5          0.8558   49.3651   18.5012 C.ar      1 UNK         0.0000 
      6 C6          1.1089   50.0488   17.3089 C.ar      1 UNK         0.0000 
      7 C7          0.9585   49.3197   15.9727 C.3       1 UNK         0.0000 
      8 F8          1.5029   48.1022   16.0268 F         1 UNK         0.0000 
      9 F9         -0.3410   49.1851   15.7091 F         1 UNK         0.0000 
     10 F10         1.5185   49.9853   14.9610 F         1 UNK         0.0000 
     11 N11         1.4785   52.1204   20.9561 N.am      1 UNK         0.0000 
     12 C12         1.0703   51.8137   22.2023 C.2       1 UNK         0.0000 
     13 O13         0.4082   50.8186   22.4977 O.2       1 UNK         0.0000 
     14 N14         1.4927   52.7360   23.0908 N.am      1 UNK         0.0000 
     15 C15         1.2820   52.7324   24.4840 C.ar      1 UNK         0.0000 
     16 C16         0.1439   52.1861   25.0898 C.ar      1 UNK         0.0000 
     17 C17         0.0181   52.1900   26.4751 C.ar      1 UNK         0.0000 
     18 C18         1.0104   52.7473   27.2872 C.ar      1 UNK         0.0000 
     19 C19         2.1716   53.2936   26.6926 C.ar      1 UNK         0.0000 
     20 C20         2.2754   53.2963   25.2875 C.ar      1 UNK         0.0000 
     21 C21         3.3812   53.6698   27.5246 C.2       1 UNK         0.0000 
     22 O22         3.6661   53.0561   28.5562 O.2       1 UNK         0.0000 
     23 N23         4.1731   54.6249   27.0169 N.am      1 UNK         0.0000 
     24 C24         5.5623   54.8411   27.4235 C.3       1 UNK         0.0000 
     25 C25         6.5265   54.9374   26.2289 C.3       1 UNK         0.0000 
     26 H26         7.5044   55.1168   26.6598 H         1 UNK         0.0000 
     27 C27         6.5409   53.6959   25.3603 C.3       1 UNK         0.0000 
     28 C28         6.9303   54.1363   23.9751 C.3       1 UNK         0.0000 
     29 C29         6.8964   55.6577   24.0720 C.3       1 UNK         0.0000 
     30 O30         6.1935   55.9511   25.2825 O.3       1 UNK         0.0000 
     31 N31         0.7738   52.8115   28.6646 N.pl3     1 UNK         0.0000 
     32 C32         0.3833   51.6959   29.5208 C.3       1 UNK         0.0000 
     33 C33        -0.0851   52.2745   30.8526 C.3       1 UNK         0.0000 
     34 C34         0.4974   53.6711   30.8761 C.3       1 UNK         0.0000 
     35 C35         0.5255   54.0441   29.4038 C.3       1 UNK         0.0000 
     36 H36         1.7268   51.9278   16.4456 H         1 UNK         0.0000 
     37 H37         1.9226   53.0843   18.5903 H         1 UNK         0.0000 
     38 H38         0.7786   49.4458   20.6172 H         1 UNK         0.0000 
     39 H39         0.5651   48.3237   18.4813 H         1 UNK         0.0000 
     40 H40         1.8758   53.0389   20.8226 H         1 UNK         0.0000 
     41 H41         2.1314   53.4381   22.7517 H         1 UNK         0.0000 
     42 H42        -0.6553   51.7604   24.4992 H         1 UNK         0.0000 
     43 H43        -0.8788   51.7783   26.9166 H         1 UNK         0.0000 
     44 H44         3.1711   53.6709   24.8087 H         1 UNK         0.0000 
     45 H45         3.8254   55.2057   26.2703 H         1 UNK         0.0000 
     46 H46         5.9195   54.0173   28.0472 H         1 UNK         0.0000 
     47 H47         5.6647   55.6964   28.0760 H         1 UNK         0.0000 
     48 H48         5.5303   53.2966   25.3110 H         1 UNK         0.0000 
     49 H49         7.1362   52.8971   25.8003 H         1 UNK         0.0000 
     50 H50         6.2123   53.7752   23.2362 H         1 UNK         0.0000 
     51 H51         7.9044   53.7509   23.6823 H         1 UNK         0.0000 
     52 H52         6.4117   56.0972   23.2055 H         1 UNK         0.0000 
     53 H53         7.8926   56.0969   24.1338 H         1 UNK         0.0000 
     54 H54        -0.4469   51.1453   29.0736 H         1 UNK         0.0000 
     55 H55         1.2268   51.0228   29.6750 H         1 UNK         0.0000 
     56 H56        -1.1721   52.2836   30.8822 H         1 UNK         0.0000 
     57 H57         0.2721   51.6969   31.7032 H         1 UNK         0.0000 
     58 H58         1.5059   53.6721   31.2808 H         1 UNK         0.0000 
     59 H59        -0.0939   54.3638   31.4753 H         1 UNK         0.0000 
     60 H60         1.3144   54.7672   29.1935 H         1 UNK         0.0000 
     61 H61        -0.4070   54.4945   29.0678 H         1 UNK         0.0000 
@<TRIPOS>BOND
     1    1    6 ar   
     2    1    2 ar   
     3    1   36 1    
     4    2    3 ar   
     5    2   37 1    
     6    3    4 ar   
     7    3   11 1    
     8    4    5 ar   
     9    4   38 1    
    10    5    6 ar   
    11    5   39 1    
    12    6    7 1    
    13    7    8 1    
    14    7    9 1    
    15    7   10 1    
    16   11   12 am   BACKBONE|DICT|INTERRES
    17   11   40 1    
    18   12   13 2    
    19   12   14 am   BACKBONE|DICT|INTERRES
    20   14   15 1    
    21   14   41 1    
    22   15   20 ar   
    23   15   16 ar   
    24   16   17 ar   
    25   16   42 1    
    26   17   18 ar   
    27   17   43 1    
    28   18   19 ar   
    29   18   31 1    
    30   19   20 ar   
    31   19   21 1    
    32   20   44 1    
    33   21   22 2    
    34   21   23 am   BACKBONE|DICT|INTERRES
    35   23   24 1    
    36   23   45 1    
    37   24   25 1    
    38   24   46 1    
    39   24   47 1    
    40   25   26 1    
    41   25   30 1    
    42   25   27 1    
    43   27   28 1    
    44   27   48 1    
    45   27   49 1    
    46   28   29 1    
    47   28   50 1    
    48   28   51 1    
    49   29   30 1    
    50   29   52 1    
    51   29   53 1    
    52   31   35 1    
    53   31   32 1    
    54   32   33 1    
    55   32   54 1    
    56   32   55 1    
    57   33   34 1    
    58   33   56 1    
    59   33   57 1    
    60   34   35 1    
    61   34   58 1    
    62   34   59 1    
    63   35   60 1    
    64   35   61 1    
@<TRIPOS>SUBSTRUCTURE
     1 UNK         1 GROUP             0       ****    0 ROOT    
