@<TRIPOS>MOLECULE
ZINC64046760_2227
51   55    1
SMALL
USER_CHARGES


@<TRIPOS>ATOM
      1 C1         -2.2413   50.5978   21.4126 C.ar      1 UNK         0.0000 
      2 C2         -1.4092   51.4408   20.6856 C.ar      1 UNK         0.0000 
      3 C3         -0.3041   52.0231   21.3009 C.ar      1 UNK         0.0000 
      4 C4         -0.0079   51.7866   22.6562 C.ar      1 UNK         0.0000 
      5 C5         -0.8501   50.9027   23.3886 C.ar      1 UNK         0.0000 
      6 C6         -1.9619   50.3338   22.7498 C.ar      1 UNK         0.0000 
      7 C7         -0.6449   50.5256   24.8621 C.3       1 UNK         0.0000 
      8 S8         -1.5106   51.6762   25.9780 S.3       1 UNK         0.0000 
      9 C9         -0.3560   51.7903   27.3071 C.2       1 UNK         0.0000 
     10 N10         0.9536   51.6521   27.2759 N.2       1 UNK         0.0000 
     11 C11         1.3325   51.8986   28.5657 C.ar      1 UNK         0.0000 
     12 C12         2.5968   51.9167   29.1752 C.ar      1 UNK         0.0000 
     13 C13         2.6672   52.2242   30.5395 C.ar      1 UNK         0.0000 
     14 C14         1.5118   52.4954   31.2842 C.ar      1 UNK         0.0000 
     15 C15         0.2457   52.4957   30.6981 C.ar      1 UNK         0.0000 
     16 C16         0.1935   52.1862   29.3375 C.ar      1 UNK         0.0000 
     17 O17        -0.8911   52.0989   28.5238 O.3       1 UNK         0.0000 
     18 C18         1.2183   52.4445   23.2559 C.2       1 UNK         0.0000 
     19 O19         1.9043   51.8569   24.0873 O.2       1 UNK         0.0000 
     20 N20         1.5045   53.6951   22.8107 N.am      1 UNK         0.0000 
     21 N21         2.6850   54.3469   23.2109 N.am      1 UNK         0.0000 
     22 C22         3.8870   53.8554   22.8254 C.2       1 UNK         0.0000 
     23 O23         4.0634   53.2840   21.7476 O.2       1 UNK         0.0000 
     24 C24         4.9972   54.1019   23.7224 C.2       1 UNK         0.0000 
     25 C25         4.9640   54.2100   25.0719 C.2       1 UNK         0.0000 
     26 C26         3.8817   54.0992   26.0696 C.2       1 UNK         0.0000 
     27 C27         4.1355   54.2643   27.3816 C.2       1 UNK         0.0000 
     28 C28         5.5043   54.5248   27.7929 C.2       1 UNK         0.0000 
     29 C29         6.5138   54.6409   26.8910 C.2       1 UNK         0.0000 
     30 C30         6.2663   54.4918   25.5196 C.2       1 UNK         0.0000 
     31 N31         7.1042   54.5665   24.5067 N.pl3     1 UNK         0.0000 
     32 C32         6.4210   54.2488   23.2504 C.3       1 UNK         0.0000 
     33 H33        -3.0969   50.1415   20.9406 H         1 UNK         0.0000 
     34 H34        -1.6129   51.6361   19.6440 H         1 UNK         0.0000 
     35 H35         0.3297   52.6597   20.6940 H         1 UNK         0.0000 
     36 H36        -2.6156   49.6683   23.2950 H         1 UNK         0.0000 
     37 H37        -1.0737   49.5383   25.0340 H         1 UNK         0.0000 
     38 H38         0.4002   50.3808   25.1189 H         1 UNK         0.0000 
     39 H39         3.4872   51.6975   28.6049 H         1 UNK         0.0000 
     40 H40         3.6246   52.2340   31.0378 H         1 UNK         0.0000 
     41 H41         1.5893   52.6831   32.3462 H         1 UNK         0.0000 
     42 H42        -0.6483   52.6667   31.2800 H         1 UNK         0.0000 
     43 H43         1.2128   54.0137   21.8977 H         1 UNK         0.0000 
     44 H44         2.5591   54.8423   24.0810 H         1 UNK         0.0000 
     45 H45         2.8618   53.8696   25.7955 H         1 UNK         0.0000 
     46 H46         3.3462   54.1994   28.1137 H         1 UNK         0.0000 
     47 H47         5.7296   54.6380   28.8468 H         1 UNK         0.0000 
     48 H48         7.5052   54.8303   27.2754 H         1 UNK         0.0000 
     49 H49         6.5915   55.0599   22.5408 H         1 UNK         0.0000 
     50 H50         6.8347   53.3128   22.8821 H         1 UNK         0.0000 
     51 H51         8.1051   54.7642   24.5417 H         1 UNK         0.0000 
@<TRIPOS>BOND
     1    1    6 ar   
     2    1    2 ar   
     3    1   33 1    
     4    2    3 ar   
     5    2   34 1    
     6    3    4 ar   
     7    3   35 1    
     8    4    5 ar   
     9    4   18 1    
    10    5    6 ar   
    11    5    7 1    
    12    6   36 1    
    13    7    8 1    
    14    7   37 1    
    15    7   38 1    
    16    8    9 1    
    17    9   17 1    
    18    9   10 2    
    19   10   11 1    
    20   11   16 ar   
    21   11   12 ar   
    22   12   13 ar   
    23   12   39 1    
    24   13   14 ar   
    25   13   40 1    
    26   14   15 ar   
    27   14   41 1    
    28   15   16 ar   
    29   15   42 1    
    30   16   17 1    
    31   18   19 2    
    32   18   20 am   BACKBONE|DICT|INTERRES
    33   20   21 1    
    34   20   43 1    
    35   21   22 am   BACKBONE|DICT|INTERRES
    36   21   44 1    
    37   22   23 2    
    38   22   24 1    
    39   24   32 1    
    40   24   25 2    
    41   25   30 1    
    42   25   26 1    
    43   26   27 2    
    44   26   45 1    
    45   27   28 1    
    46   27   46 1    
    47   28   29 2    
    48   28   47 1    
    49   29   30 1    
    50   29   48 1    
    51   30   31 2    
    52   31   32 1    
    53   31   51 1    
    54   32   49 1    
    55   32   50 1    
@<TRIPOS>SUBSTRUCTURE
     1 UNK         1 GROUP             0       ****    0 ROOT    
