@<TRIPOS>MOLECULE
ZINC08822591_463
46   48    1
SMALL
USER_CHARGES


@<TRIPOS>ATOM
      1 C1         -5.5318   49.8209   30.8666 C.3       1 UNK         0.0000 
      2 C2         -4.9590   50.7556   29.8082 C.2       1 UNK         0.0000 
      3 O3         -5.6413   51.6960   29.3982 O.2       1 UNK         0.0000 
      4 N4         -3.6955   50.4967   29.4255 N.am      1 UNK         0.0000 
      5 C5         -2.9241   51.1867   28.4816 C.ar      1 UNK         0.0000 
      6 C6         -3.4276   51.6963   27.2765 C.ar      1 UNK         0.0000 
      7 C7         -2.5621   52.3166   26.3702 C.ar      1 UNK         0.0000 
      8 C8         -1.1975   52.4217   26.6570 C.ar      1 UNK         0.0000 
      9 C9         -0.6970   51.9078   27.8584 C.ar      1 UNK         0.0000 
     10 C10        -1.5627   51.2967   28.7618 C.ar      1 UNK         0.0000 
     11 N11         0.6650   51.9019   28.1662 N.am      1 UNK         0.0000 
     12 C12         1.4645   52.9803   28.2683 C.2       1 UNK         0.0000 
     13 O13         1.0936   54.1397   28.0823 O.2       1 UNK         0.0000 
     14 C14         2.9093   52.6645   28.6769 C.3       1 UNK         0.0000 
     15 S15         3.9350   54.0976   29.1496 S.3       1 UNK         0.0000 
     16 C16         4.9028   54.2632   27.6862 C.2       1 UNK         0.0000 
     17 N17         6.1938   54.4837   27.6961 N.2       1 UNK         0.0000 
     18 N18         6.7389   54.6286   26.4294 N.2       1 UNK         0.0000 
     19 C19         5.8518   54.5247   25.4771 C.2       1 UNK         0.0000 
     20 S20         4.2273   54.2548   26.0783 S.3       1 UNK         0.0000 
     21 N21         6.2172   54.6841   24.1462 N.am      1 UNK         0.0000 
     22 C22         5.4425   54.4963   23.0547 C.2       1 UNK         0.0000 
     23 O23         4.2858   54.0730   23.0954 O.2       1 UNK         0.0000 
     24 C24         6.0734   54.8259   21.7156 C.ar      1 UNK         0.0000 
     25 C25         7.3341   55.4430   21.6100 C.ar      1 UNK         0.0000 
     26 C26         7.9034   55.6967   20.3617 C.ar      1 UNK         0.0000 
     27 C27         7.2131   55.3667   19.1981 C.ar      1 UNK         0.0000 
     28 C28         5.9548   54.7758   19.2823 C.ar      1 UNK         0.0000 
     29 C29         5.3926   54.5030   20.5291 C.ar      1 UNK         0.0000 
     30 Br30        5.0033   54.3352   17.6952 Br        1 UNK         0.0000 
     31 H31        -5.0419   48.8452   30.8418 H         1 UNK         0.0000 
     32 H32        -6.5998   49.6701   30.7012 H         1 UNK         0.0000 
     33 H33        -5.3920   50.2510   31.8604 H         1 UNK         0.0000 
     34 H34        -3.1890   49.7672   29.9200 H         1 UNK         0.0000 
     35 H35        -4.4764   51.6000   27.0360 H         1 UNK         0.0000 
     36 H36        -2.9465   52.7057   25.4395 H         1 UNK         0.0000 
     37 H37        -0.5311   52.8828   25.9422 H         1 UNK         0.0000 
     38 H38        -1.1756   50.8966   29.6888 H         1 UNK         0.0000 
     39 H39         1.0282   51.0107   28.4674 H         1 UNK         0.0000 
     40 H40         2.8765   52.0135   29.5497 H         1 UNK         0.0000 
     41 H41         3.3930   52.0969   27.8836 H         1 UNK         0.0000 
     42 H42         7.1902   54.8967   23.9846 H         1 UNK         0.0000 
     43 H43         7.9037   55.7267   22.4823 H         1 UNK         0.0000 
     44 H44         8.8829   56.1492   20.2952 H         1 UNK         0.0000 
     45 H45         7.6516   55.5666   18.2315 H         1 UNK         0.0000 
     46 H46         4.4169   54.0364   20.5593 H         1 UNK         0.0000 
@<TRIPOS>BOND
     1    1    2 1    
     2    1   31 1    
     3    1   32 1    
     4    1   33 1    
     5    2    3 2    
     6    2    4 am   BACKBONE|DICT|INTERRES
     7    4    5 1    
     8    4   34 1    
     9    5   10 ar   
    10    5    6 ar   
    11    6    7 ar   
    12    6   35 1    
    13    7    8 ar   
    14    7   36 1    
    15    8    9 ar   
    16    8   37 1    
    17    9   10 ar   
    18    9   11 1    
    19   10   38 1    
    20   11   12 am   BACKBONE|DICT|INTERRES
    21   11   39 1    
    22   12   13 2    
    23   12   14 1    
    24   14   15 1    
    25   14   40 1    
    26   14   41 1    
    27   15   16 1    
    28   16   20 1    
    29   16   17 2    
    30   17   18 1    
    31   18   19 2    
    32   19   20 1    
    33   19   21 am   BACKBONE|DICT|INTERRES
    34   21   22 am   BACKBONE|DICT|INTERRES
    35   21   42 1    
    36   22   23 2    
    37   22   24 1    
    38   24   29 ar   
    39   24   25 ar   
    40   25   26 ar   
    41   25   43 1    
    42   26   27 ar   
    43   26   44 1    
    44   27   28 ar   
    45   27   45 1    
    46   28   29 ar   
    47   28   30 1    
    48   29   46 1    
@<TRIPOS>SUBSTRUCTURE
     1 UNK         1 GROUP             0       ****    0 ROOT    
