@<TRIPOS>MOLECULE
ZINC38901585_4849
66   69    1
SMALL
USER_CHARGES


@<TRIPOS>ATOM
      1 C1          4.4842   54.5300   18.5210 C.3       1 UNK         0.0000 
      2 C2          5.5355   54.9295   19.5494 C.ar      1 UNK         0.0000 
      3 C3          6.6797   55.6055   19.1128 C.ar      1 UNK         0.0000 
      4 C4          7.6668   55.9863   20.0194 C.ar      1 UNK         0.0000 
      5 C5          7.5165   55.6959   21.3726 C.ar      1 UNK         0.0000 
      6 C6          6.3884   55.0114   21.8184 C.ar      1 UNK         0.0000 
      7 C7          5.3876   54.6297   20.9181 C.ar      1 UNK         0.0000 
      8 C8          4.1595   53.9030   21.4514 C.3       1 UNK         0.0000 
      9 S9          4.3013   52.0994   21.2805 S.3       1 UNK         0.0000 
     10 C10         2.6567   51.7276   20.6021 C.3       1 UNK         0.0000 
     11 C11         2.2741   50.2379   20.5562 C.3       1 UNK         0.0000 
     12 C12         2.1560   49.5607   21.9341 C.3       1 UNK         0.0000 
     13 N13         1.1962   50.2179   22.8179 N.am      1 UNK         0.0000 
     14 C14        -0.0316   49.7635   23.1157 C.2       1 UNK         0.0000 
     15 O15        -0.4956   48.7215   22.6496 O.2       1 UNK         0.0000 
     16 C16        -0.8436   50.6290   24.1035 C.3       1 UNK         0.0000 
     17 H17        -0.6677   51.6582   23.7811 H         1 UNK         0.0000 
     18 C18        -2.3589   50.2950   24.0439 C.3       1 UNK         0.0000 
     19 C19        -3.1164   51.1444   25.0857 C.3       1 UNK         0.0000 
     20 C20        -2.5499   50.9614   26.5085 C.3       1 UNK         0.0000 
     21 N21        -1.0430   51.3295   26.4995 N.4       1 UNK         0.0000 
     22 C22        -0.2774   50.3956   25.5249 C.3       1 UNK         0.0000 
     23 C23        -0.4792   51.1805   27.9361 C.3       1 UNK         0.0000 
     24 C24         0.8674   51.8636   28.1179 C.2       1 UNK         0.0000 
     25 N25         1.5538   52.6016   27.2837 N.2       1 UNK         0.0000 
     26 C26         2.6521   52.8705   27.9743 C.2       1 UNK         0.0000 
     27 N27         2.6804   52.3906   29.2038 N.2       1 UNK         0.0000 
     28 O28         1.4783   51.6989   29.3141 O.3       1 UNK         0.0000 
     29 C29         3.8206   53.6164   27.3823 C.ar      1 UNK         0.0000 
     30 C30         5.0228   53.7424   28.0950 C.ar      1 UNK         0.0000 
     31 C31         6.1228   54.3790   27.5262 C.ar      1 UNK         0.0000 
     32 C32         6.0309   54.8956   26.2385 C.ar      1 UNK         0.0000 
     33 C33         4.8413   54.7966   25.5237 C.ar      1 UNK         0.0000 
     34 C34         3.7413   54.1581   26.0910 C.ar      1 UNK         0.0000 
     35 F35         7.1017   55.5040   25.6802 F         1 UNK         0.0000 
     36 H36         3.5184   54.9799   18.7559 H         1 UNK         0.0000 
     37 H37         4.7565   54.8326   17.5099 H         1 UNK         0.0000 
     38 H38         4.3544   53.4478   18.5197 H         1 UNK         0.0000 
     39 H39         6.8113   55.8359   18.0654 H         1 UNK         0.0000 
     40 H40         8.5519   56.4993   19.6714 H         1 UNK         0.0000 
     41 H41         8.2861   55.9855   22.0744 H         1 UNK         0.0000 
     42 H42         6.3017   54.7754   22.8682 H         1 UNK         0.0000 
     43 H43         3.9864   54.1557   22.4976 H         1 UNK         0.0000 
     44 H44         3.2747   54.2636   20.9326 H         1 UNK         0.0000 
     45 H45         1.9164   52.2726   21.1884 H         1 UNK         0.0000 
     46 H46         2.6030   52.1445   19.5968 H         1 UNK         0.0000 
     47 H47         1.3286   50.1273   20.0251 H         1 UNK         0.0000 
     48 H48         3.0081   49.7016   19.9531 H         1 UNK         0.0000 
     49 H49         1.9550   48.4969   21.8163 H         1 UNK         0.0000 
     50 H50         3.1043   49.6285   22.4577 H         1 UNK         0.0000 
     51 H51         1.5158   51.0692   23.2561 H         1 UNK         0.0000 
     52 H52        -2.7824   50.5256   23.0648 H         1 UNK         0.0000 
     53 H53        -2.5452   49.2533   24.3170 H         1 UNK         0.0000 
     54 H54        -3.0793   52.1997   24.8076 H         1 UNK         0.0000 
     55 H55        -4.1743   50.8723   25.0834 H         1 UNK         0.0000 
     56 H56        -3.0488   51.6400   27.2033 H         1 UNK         0.0000 
     57 H57        -2.6410   49.9340   26.8756 H         1 UNK         0.0000 
     58 H58        -0.4294   49.3722   25.8863 H         1 UNK         0.0000 
     59 H59         0.7783   50.6640   25.5909 H         1 UNK         0.0000 
     60 H60        -1.2253   51.5859   28.6205 H         1 UNK         0.0000 
     61 H61        -0.4331   50.1036   28.0817 H         1 UNK         0.0000 
     62 H62         5.1202   53.3331   29.0899 H         1 UNK         0.0000 
     63 H63         7.0440   54.4734   28.0823 H         1 UNK         0.0000 
     64 H64         4.7729   55.2145   24.5318 H         1 UNK         0.0000 
     65 H65         2.8306   54.0791   25.5145 H         1 UNK         0.0000 
     66 H66        -0.9339   52.2928   26.2094 H         1 UNK         0.0000 
@<TRIPOS>BOND
     1    1    2 1    
     2    1   36 1    
     3    1   37 1    
     4    1   38 1    
     5    2    7 ar   
     6    2    3 ar   
     7    3    4 ar   
     8    3   39 1    
     9    4    5 ar   
    10    4   40 1    
    11    5    6 ar   
    12    5   41 1    
    13    6    7 ar   
    14    6   42 1    
    15    7    8 1    
    16    8    9 1    
    17    8   43 1    
    18    8   44 1    
    19    9   10 1    
    20   10   11 1    
    21   10   45 1    
    22   10   46 1    
    23   11   12 1    
    24   11   47 1    
    25   11   48 1    
    26   12   13 1    
    27   12   49 1    
    28   12   50 1    
    29   13   14 am   BACKBONE|DICT|INTERRES
    30   13   51 1    
    31   14   15 2    
    32   14   16 1    
    33   16   17 1    
    34   16   22 1    
    35   16   18 1    
    36   18   19 1    
    37   18   52 1    
    38   18   53 1    
    39   19   20 1    
    40   19   54 1    
    41   19   55 1    
    42   20   21 1    
    43   20   56 1    
    44   20   57 1    
    45   21   22 1    
    46   21   23 1    
    47   21   66 1    
    48   22   58 1    
    49   22   59 1    
    50   23   24 1    
    51   23   60 1    
    52   23   61 1    
    53   24   28 1    
    54   24   25 2    
    55   25   26 1    
    56   26   27 2    
    57   26   29 1    
    58   27   28 1    
    59   29   34 ar   
    60   29   30 ar   
    61   30   31 ar   
    62   30   62 1    
    63   31   32 ar   
    64   31   63 1    
    65   32   33 ar   
    66   32   35 1    
    67   33   34 ar   
    68   33   64 1    
    69   34   65 1    
@<TRIPOS>SUBSTRUCTURE
     1 UNK         1 GROUP             0       ****    0 ROOT    
