@<TRIPOS>MOLECULE
ZINC35346990_3575
32   33    1
SMALL
USER_CHARGES


@<TRIPOS>ATOM
      1 C1         -2.8274   53.2508   23.8224 C.3       1 UNK         0.0000 
      2 C2         -3.5673   52.7460   25.0558 C.ar      1 UNK         0.0000 
      3 C3         -4.7340   53.4344   25.4043 C.ar      1 UNK         0.0000 
      4 C4         -5.5190   53.0167   26.4713 C.ar      1 UNK         0.0000 
      5 C5         -5.1418   51.9008   27.2058 C.ar      1 UNK         0.0000 
      6 C6         -3.9764   51.2038   26.8906 C.ar      1 UNK         0.0000 
      7 C7         -3.1614   51.6175   25.8135 C.ar      1 UNK         0.0000 
      8 S8         -1.6735   50.6504   25.3977 S.o2      1 UNK         0.0000 
      9 O9         -2.1424   49.2973   25.0833 O.2       1 UNK         0.0000 
     10 O10        -0.8531   51.3779   24.4266 O.2       1 UNK         0.0000 
     11 N11        -0.7081   50.4967   26.8817 N.pl3     1 UNK         0.0000 
     12 C12        -0.1941   51.5969   27.5821 C.ar      1 UNK         0.0000 
     13 C13        -0.5750   51.7489   28.9199 C.ar      1 UNK         0.0000 
     14 C14        -0.0942   52.8171   29.6794 C.ar      1 UNK         0.0000 
     15 C15         0.7837   53.7370   29.1053 C.ar      1 UNK         0.0000 
     16 C16         1.2104   53.5621   27.7913 C.ar      1 UNK         0.0000 
     17 C17         0.7341   52.4951   27.0305 C.ar      1 UNK         0.0000 
     18 F18         1.2062   52.3459   25.7733 F         1 UNK         0.0000 
     19 Br19        1.4012   55.2379   30.0972 Br        1 UNK         0.0000 
     20 N20        -3.6955   50.0965   27.6909 N.pl3     1 UNK         0.0000 
     21 H21        -1.8372   53.6232   24.0825 H         1 UNK         0.0000 
     22 H22        -2.7091   52.4447   23.0982 H         1 UNK         0.0000 
     23 H23        -3.3599   54.0557   23.3163 H         1 UNK         0.0000 
     24 H24        -5.0537   54.2911   24.8289 H         1 UNK         0.0000 
     25 H25        -6.4249   53.5493   26.7212 H         1 UNK         0.0000 
     26 H26        -5.7673   51.5789   28.0259 H         1 UNK         0.0000 
     27 H27        -0.9073   49.6531   27.4237 H         1 UNK         0.0000 
     28 H28        -1.2611   51.0446   29.3730 H         1 UNK         0.0000 
     29 H29        -0.4126   52.9307   30.7064 H         1 UNK         0.0000 
     30 H30         1.9097   54.2591   27.3535 H         1 UNK         0.0000 
     31 H31        -2.8566   49.5346   27.5555 H         1 UNK         0.0000 
     32 H32        -4.3102   49.8674   28.4569 H         1 UNK         0.0000 
@<TRIPOS>BOND
     1    1    2 1    
     2    1   21 1    
     3    1   22 1    
     4    1   23 1    
     5    2    7 ar   
     6    2    3 ar   
     7    3    4 ar   
     8    3   24 1    
     9    4    5 ar   
    10    4   25 1    
    11    5    6 ar   
    12    5   26 1    
    13    6    7 ar   
    14    6   20 1    
    15    7    8 1    
    16    8    9 2    
    17    8   10 2    
    18    8   11 1    
    19   11   12 1    
    20   11   27 1    
    21   12   17 ar   
    22   12   13 ar   
    23   13   14 ar   
    24   13   28 1    
    25   14   15 ar   
    26   14   29 1    
    27   15   16 ar   
    28   15   19 1    
    29   16   17 ar   
    30   16   30 1    
    31   17   18 1    
    32   20   31 1    
    33   20   32 1    
@<TRIPOS>SUBSTRUCTURE
     1 UNK         1 GROUP             0       ****    0 ROOT    
