@<TRIPOS>MOLECULE
ZINC04452908_2670
55   57    1
SMALL
USER_CHARGES


@<TRIPOS>ATOM
      1 C1          5.4353   54.2058   27.0889 C.3       1 UNK         0.0000 
      2 C2          4.0795   53.5621   27.4224 C.3       1 UNK         0.0000 
      3 C3          2.9062   53.8265   26.4509 C.3       1 UNK         0.0000 
      4 N4          3.1412   53.3620   25.0753 N.3       1 UNK         0.0000 
      5 C5          3.7325   54.4207   24.2549 C.3       1 UNK         0.0000 
      6 C6          3.9092   54.0577   22.7962 C.2       1 UNK         0.0000 
      7 C7          3.2229   53.0641   22.1948 C.2       1 UNK         0.0000 
      8 C8          2.2327   52.2199   23.0204 C.3       1 UNK         0.0000 
      9 H9          2.7044   51.2535   23.1988 H         1 UNK         0.0000 
     10 C10         1.9248   52.8710   24.4156 C.3       1 UNK         0.0000 
     11 C11         0.9693   51.9836   22.1546 C.3       1 UNK         0.0000 
     12 H12         0.5789   52.9864   21.9668 H         1 UNK         0.0000 
     13 C13         1.2744   51.3796   20.7332 C.3       1 UNK         0.0000 
     14 C14         2.5153   52.0200   20.0808 C.2       1 UNK         0.0000 
     15 C15         3.3944   52.7838   20.7692 C.2       1 UNK         0.0000 
     16 C16         4.5270   53.3362   20.0823 C.1       1 UNK         0.0000 
     17 N17         5.4449   53.8078   19.5586 N.1       1 UNK         0.0000 
     18 N18         2.7044   51.6910   18.7542 N.pl3     1 UNK         0.0000 
     19 C19         0.0814   51.6067   19.8935 C.1       1 UNK         0.0000 
     20 N20        -0.8584   51.7881   19.2415 N.1       1 UNK         0.0000 
     21 C21         1.5368   49.9293   20.7671 C.1       1 UNK         0.0000 
     22 N22         1.7473   48.7916   20.7863 N.1       1 UNK         0.0000 
     23 C23        -0.1481   51.2526   22.9216 C.ar      1 UNK         0.0000 
     24 C24        -1.3677   51.8920   23.1705 C.ar      1 UNK         0.0000 
     25 C25        -2.3946   51.2403   23.8699 C.ar      1 UNK         0.0000 
     26 C26        -2.1968   49.9245   24.2862 C.ar      1 UNK         0.0000 
     27 C27        -0.9753   49.2677   24.0677 C.ar      1 UNK         0.0000 
     28 C28         0.0416   49.9527   23.4052 C.ar      1 UNK         0.0000 
     29 O29        -0.6979   47.9739   24.4640 O.3       1 UNK         0.0000 
     30 C30        -1.6899   47.2492   25.1808 C.3       1 UNK         0.0000 
     31 O31        -3.6136   51.8108   24.1753 O.3       1 UNK         0.0000 
     32 C32        -3.7077   53.2306   24.2410 C.3       1 UNK         0.0000 
     33 H33         6.1318   54.0944   27.9215 H         1 UNK         0.0000 
     34 H34         5.3333   55.2723   26.8850 H         1 UNK         0.0000 
     35 H35         5.8978   53.7284   26.2253 H         1 UNK         0.0000 
     36 H36         4.2002   52.4947   27.5770 H         1 UNK         0.0000 
     37 H37         3.7759   53.9394   28.3985 H         1 UNK         0.0000 
     38 H38         2.0174   53.3449   26.8627 H         1 UNK         0.0000 
     39 H39         2.7042   54.8967   26.4594 H         1 UNK         0.0000 
     40 H40         3.0944   55.2970   24.2651 H         1 UNK         0.0000 
     41 H41         4.7115   54.7072   24.6312 H         1 UNK         0.0000 
     42 H42         4.5855   54.6658   22.2145 H         1 UNK         0.0000 
     43 H43         1.4658   52.1109   25.0488 H         1 UNK         0.0000 
     44 H44         1.1906   53.6752   24.3360 H         1 UNK         0.0000 
     45 H45         2.0737   51.0680   18.2698 H         1 UNK         0.0000 
     46 H46         3.6137   51.8141   18.3220 H         1 UNK         0.0000 
     47 H47        -1.5137   52.8967   22.8145 H         1 UNK         0.0000 
     48 H48        -3.0051   49.4342   24.8055 H         1 UNK         0.0000 
     49 H49         0.9863   49.4472   23.2692 H         1 UNK         0.0000 
     50 H50        -1.2952   46.2790   25.4825 H         1 UNK         0.0000 
     51 H51        -1.9951   47.7752   26.0840 H         1 UNK         0.0000 
     52 H52        -2.5724   47.0686   24.5659 H         1 UNK         0.0000 
     53 H53        -4.7148   53.5082   24.5547 H         1 UNK         0.0000 
     54 H54        -3.0120   53.6335   24.9783 H         1 UNK         0.0000 
     55 H55        -3.5224   53.7105   23.2815 H         1 UNK         0.0000 
@<TRIPOS>BOND
     1    1    2 1    
     2    1   33 1    
     3    1   34 1    
     4    1   35 1    
     5    2    3 1    
     6    2   36 1    
     7    2   37 1    
     8    3    4 1    
     9    3   38 1    
    10    3   39 1    
    11    4   10 1    
    12    4    5 1    
    13    5    6 1    
    14    5   40 1    
    15    5   41 1    
    16    6    7 2    
    17    6   42 1    
    18    7   15 1    
    19    7    8 1    
    20    8    9 1    
    21    8   10 1    
    22    8   11 1    
    23   10   43 1    
    24   10   44 1    
    25   11   12 1    
    26   11   13 1    
    27   11   23 1    
    28   13   14 1    
    29   13   19 1    
    30   13   21 1    
    31   14   15 2    
    32   14   18 1    
    33   15   16 1    
    34   16   17 3    
    35   18   45 1    
    36   18   46 1    
    37   19   20 3    
    38   21   22 3    
    39   23   28 ar   
    40   23   24 ar   
    41   24   25 ar   
    42   24   47 1    
    43   25   26 ar   
    44   25   31 1    
    45   26   27 ar   
    46   26   48 1    
    47   27   28 ar   
    48   27   29 1    
    49   28   49 1    
    50   29   30 1    
    51   30   50 1    
    52   30   51 1    
    53   30   52 1    
    54   31   32 1    
    55   32   53 1    
    56   32   54 1    
    57   32   55 1    
@<TRIPOS>SUBSTRUCTURE
     1 UNK         1 GROUP             0       ****    0 ROOT    
