@<TRIPOS>MOLECULE
ZINC10010863_3000
57   59    1
SMALL
USER_CHARGES


@<TRIPOS>ATOM
      1 C1          7.0413   54.2536   26.2171 C.3       1 UNK         0.0000 
      2 C2          5.7380   54.3408   26.9930 C.ar      1 UNK         0.0000 
      3 C3          5.7912   54.3647   28.3877 C.ar      1 UNK         0.0000 
      4 C4          4.6269   54.4693   29.1419 C.ar      1 UNK         0.0000 
      5 C5          3.3883   54.5165   28.5087 C.ar      1 UNK         0.0000 
      6 C6          3.3216   54.4814   27.1142 C.ar      1 UNK         0.0000 
      7 C7          4.4906   54.4046   26.3465 C.ar      1 UNK         0.0000 
      8 C8          4.3860   54.3861   24.8287 C.3       1 UNK         0.0000 
      9 N9          2.2282   54.6023   29.2755 N.pl3     1 UNK         0.0000 
     10 S10         1.5604   53.1847   30.0894 S.o2      1 UNK         0.0000 
     11 O11         0.6072   53.6999   31.0779 O.2       1 UNK         0.0000 
     12 O12         2.6847   52.3306   30.4904 O.2       1 UNK         0.0000 
     13 C13         0.6350   52.3139   28.8427 C.ar      1 UNK         0.0000 
     14 C14        -0.7252   52.0727   29.0328 C.ar      1 UNK         0.0000 
     15 C15        -1.4436   51.3805   28.0621 C.ar      1 UNK         0.0000 
     16 C16        -0.8004   50.9600   26.9003 C.ar      1 UNK         0.0000 
     17 C17         0.5600   51.1968   26.7087 C.ar      1 UNK         0.0000 
     18 C18         1.2832   51.8645   27.6907 C.ar      1 UNK         0.0000 
     19 N19        -1.5113   50.1785   25.9889 N.pl3     1 UNK         0.0000 
     20 C20        -1.9725   50.4843   24.7399 C.2       1 UNK         0.0000 
     21 S21        -1.7995   52.0101   24.0354 S.2       1 UNK         0.0000 
     22 N22        -2.5746   49.3816   24.1920 N.am      1 UNK         0.0000 
     23 C23        -3.2329   49.1633   23.0233 C.2       1 UNK         0.0000 
     24 O24        -3.4197   49.9951   22.1341 O.2       1 UNK         0.0000 
     25 C25        -3.7163   47.8098   22.8648 C.2       1 UNK         0.0000 
     26 C26        -4.2469   47.0737   23.8688 C.2       1 UNK         0.0000 
     27 C27        -4.7397   45.6801   23.7840 C.ar      1 UNK         0.0000 
     28 C28        -5.3594   45.1222   24.9082 C.ar      1 UNK         0.0000 
     29 C29        -5.8352   43.8135   24.8815 C.ar      1 UNK         0.0000 
     30 C30        -5.6961   43.0416   23.7305 C.ar      1 UNK         0.0000 
     31 C31        -5.0761   43.5718   22.5893 C.ar      1 UNK         0.0000 
     32 C32        -4.6072   44.8963   22.6264 C.ar      1 UNK         0.0000 
     33 N33        -4.9121   42.7423   21.3726 N.pl3     1 UNK         0.0000 
     34 O34        -5.5543   41.6973   21.2817 O.co2     1 UNK         0.0000 
     35 O35        -4.1377   43.1255   20.5028 O.co2     1 UNK         0.0000 
     36 H36         7.1027   55.0520   25.4757 H         1 UNK         0.0000 
     37 H37         7.9031   54.3459   26.8819 H         1 UNK         0.0000 
     38 H38         7.1044   53.3010   25.6905 H         1 UNK         0.0000 
     39 H39         6.7404   54.3121   28.8988 H         1 UNK         0.0000 
     40 H40         4.6945   54.4958   30.2188 H         1 UNK         0.0000 
     41 H41         2.3580   54.4977   26.6277 H         1 UNK         0.0000 
     42 H42         4.8959   55.2540   24.4125 H         1 UNK         0.0000 
     43 H43         4.8688   53.4963   24.4262 H         1 UNK         0.0000 
     44 H44         3.3519   54.3971   24.4836 H         1 UNK         0.0000 
     45 H45         1.6754   55.4471   29.2547 H         1 UNK         0.0000 
     46 H46        -1.2192   52.3797   29.9430 H         1 UNK         0.0000 
     47 H47        -2.4867   51.1458   28.2303 H         1 UNK         0.0000 
     48 H48         1.0576   50.8377   25.8202 H         1 UNK         0.0000 
     49 H49         2.3443   52.0189   27.5624 H         1 UNK         0.0000 
     50 H50        -1.7621   49.2739   26.3650 H         1 UNK         0.0000 
     51 H51        -2.4870   48.5510   24.7550 H         1 UNK         0.0000 
     52 H52        -3.6361   47.4303   21.8576 H         1 UNK         0.0000 
     53 H53        -4.3279   47.5197   24.8516 H         1 UNK         0.0000 
     54 H54        -5.4773   45.6991   25.8141 H         1 UNK         0.0000 
     55 H55        -6.3126   43.3946   25.7562 H         1 UNK         0.0000 
     56 H56        -6.0660   42.0264   23.7342 H         1 UNK         0.0000 
     57 H57        -4.1345   45.3094   21.7485 H         1 UNK         0.0000 
@<TRIPOS>BOND
     1    1    2 1    
     2    1   36 1    
     3    1   37 1    
     4    1   38 1    
     5    2    7 ar   
     6    2    3 ar   
     7    3    4 ar   
     8    3   39 1    
     9    4    5 ar   
    10    4   40 1    
    11    5    6 ar   
    12    5    9 1    
    13    6    7 ar   
    14    6   41 1    
    15    7    8 1    
    16    8   42 1    
    17    8   43 1    
    18    8   44 1    
    19    9   10 1    
    20    9   45 1    
    21   10   11 2    
    22   10   12 2    
    23   10   13 1    
    24   13   18 ar   
    25   13   14 ar   
    26   14   15 ar   
    27   14   46 1    
    28   15   16 ar   
    29   15   47 1    
    30   16   17 ar   
    31   16   19 1    
    32   17   18 ar   
    33   17   48 1    
    34   18   49 1    
    35   19   20 1    
    36   19   50 1    
    37   20   21 2    
    38   20   22 am   BACKBONE|DICT|INTERRES
    39   22   23 am   BACKBONE|DICT|INTERRES
    40   22   51 1    
    41   23   24 2    
    42   23   25 1    
    43   25   26 2    
    44   25   52 1    
    45   26   27 1    
    46   26   53 1    
    47   27   32 ar   
    48   27   28 ar   
    49   28   29 ar   
    50   28   54 1    
    51   29   30 ar   
    52   29   55 1    
    53   30   31 ar   
    54   30   56 1    
    55   31   32 ar   
    56   31   33 1    
    57   32   57 1    
    58   33   34 2    
    59   33   35 1    
@<TRIPOS>SUBSTRUCTURE
     1 UNK         1 GROUP             0       ****    0 ROOT    
