@<TRIPOS>MOLECULE
ZINC34762182_1229
64   67    1
SMALL
USER_CHARGES


@<TRIPOS>ATOM
      1 C1          1.0812   52.9946   28.5925 C.3       1 UNK         0.0000 
      2 C2          1.7028   54.2101   27.8697 C.3       1 UNK         0.0000 
      3 C3          3.2048   54.0906   27.5900 C.2       1 UNK         0.0000 
      4 C4          4.1490   54.0408   28.6170 C.2       1 UNK         0.0000 
      5 S5          5.8021   54.0950   28.0620 S.3       1 UNK         0.0000 
      6 C6          5.2630   54.2389   26.4206 C.ar      1 UNK         0.0000 
      7 C7          3.8461   54.0964   26.2812 C.ar      1 UNK         0.0000 
      8 C8          3.4012   54.0501   24.9172 C.ar      1 UNK         0.0000 
      9 N9          4.2737   54.3024   23.9013 N.ar      1 UNK         0.0000 
     10 C10         5.5778   54.4959   24.2008 C.ar      1 UNK         0.0000 
     11 N11         6.1312   54.4396   25.4309 N.ar      1 UNK         0.0000 
     12 S12         6.7042   54.8244   22.8809 S.3       1 UNK         0.0000 
     13 C13         5.8055   54.7776   21.2957 C.3       1 UNK         0.0000 
     14 C14         6.3570   55.7627   20.2625 C.2       1 UNK         0.0000 
     15 O15         6.7024   56.8970   20.5812 O.2       1 UNK         0.0000 
     16 N16         6.4213   55.3524   18.9976 N.am      1 UNK         0.0000 
     17 N17         2.1083   53.6979   24.5129 N.pl3     1 UNK         0.0000 
     18 C18         1.5606   53.9269   23.1541 C.3       1 UNK         0.0000 
     19 C19         1.3194   52.6602   22.2897 C.3       1 UNK         0.0000 
     20 N20         0.4558   51.6734   23.1012 N.4       1 UNK         0.0000 
     21 C21         1.2266   51.3316   24.3843 C.3       1 UNK         0.0000 
     22 C22         1.3749   52.6217   25.1961 C.3       1 UNK         0.0000 
     23 C23         0.0931   50.3835   22.3262 C.3       1 UNK         0.0000 
     24 C24        -0.9071   49.5167   23.0960 C.ar      1 UNK         0.0000 
     25 C25        -0.4265   48.4460   23.8586 C.ar      1 UNK         0.0000 
     26 C26        -1.2895   47.6975   24.6570 C.ar      1 UNK         0.0000 
     27 C27        -2.6512   47.9903   24.6834 C.ar      1 UNK         0.0000 
     28 C28        -3.1450   49.0341   23.8966 C.ar      1 UNK         0.0000 
     29 C29        -2.2853   49.8018   23.1036 C.ar      1 UNK         0.0000 
     30 C30        -2.8691   50.9504   22.2939 C.3       1 UNK         0.0000 
     31 C31        -3.5770   47.2141   25.6005 C.3       1 UNK         0.0000 
     32 C32         3.9149   53.9711   30.1027 C.3       1 UNK         0.0000 
     33 H33        -0.0046   53.0863   28.6322 H         1 UNK         0.0000 
     34 H34         1.4250   52.9063   29.6219 H         1 UNK         0.0000 
     35 H35         1.3035   52.0462   28.1108 H         1 UNK         0.0000 
     36 H36         1.1118   54.4492   26.9916 H         1 UNK         0.0000 
     37 H37         1.5349   55.0820   28.5061 H         1 UNK         0.0000 
     38 H38         5.8670   53.7600   20.9113 H         1 UNK         0.0000 
     39 H39         4.7508   55.0065   21.4434 H         1 UNK         0.0000 
     40 H40         6.1180   54.4304   18.7241 H         1 UNK         0.0000 
     41 H41         6.7744   55.9903   18.2996 H         1 UNK         0.0000 
     42 H42         0.6074   54.4192   23.3425 H         1 UNK         0.0000 
     43 H43         2.1625   54.6415   22.5896 H         1 UNK         0.0000 
     44 H44         2.2432   52.1562   21.9961 H         1 UNK         0.0000 
     45 H45         0.7361   52.9142   21.4029 H         1 UNK         0.0000 
     46 H46         2.1709   50.8744   24.0813 H         1 UNK         0.0000 
     47 H47         0.6313   50.6266   24.9635 H         1 UNK         0.0000 
     48 H48         1.8945   52.3361   26.1043 H         1 UNK         0.0000 
     49 H49         0.3900   53.0040   25.4613 H         1 UNK         0.0000 
     50 H50        -0.3053   50.7085   21.3630 H         1 UNK         0.0000 
     51 H51         1.0367   49.8643   22.1403 H         1 UNK         0.0000 
     52 H52         0.6307   48.2185   23.8820 H         1 UNK         0.0000 
     53 H53        -0.8951   46.9067   25.2799 H         1 UNK         0.0000 
     54 H54        -4.2002   49.2623   23.9258 H         1 UNK         0.0000 
     55 H55        -3.9354   51.0810   22.4820 H         1 UNK         0.0000 
     56 H56        -2.3743   51.8884   22.5410 H         1 UNK         0.0000 
     57 H57        -2.7305   50.7732   21.2270 H         1 UNK         0.0000 
     58 H58        -3.0534   46.9147   26.5122 H         1 UNK         0.0000 
     59 H59        -4.4176   47.8304   25.9219 H         1 UNK         0.0000 
     60 H60        -3.9616   46.3228   25.1041 H         1 UNK         0.0000 
     61 H61         3.9222   52.9421   30.4594 H         1 UNK         0.0000 
     62 H62         4.7035   54.4968   30.6349 H         1 UNK         0.0000 
     63 H63         2.9704   54.4207   30.4045 H         1 UNK         0.0000 
     64 H64        -0.4114   52.1200   23.3651 H         1 UNK         0.0000 
@<TRIPOS>BOND
     1    1    2 1    
     2    1   33 1    
     3    1   34 1    
     4    1   35 1    
     5    2    3 1    
     6    2   36 1    
     7    2   37 1    
     8    3    7 1    
     9    3    4 2    
    10    4    5 1    
    11    4   32 1    
    12    5    6 1    
    13    6   11 ar   
    14    6    7 ar   
    15    7    8 ar   
    16    8    9 ar   
    17    8   17 1    
    18    9   10 ar   
    19   10   11 ar   
    20   10   12 1    
    21   12   13 1    
    22   13   14 1    
    23   13   38 1    
    24   13   39 1    
    25   14   15 2    
    26   14   16 am   BACKBONE|DICT|INTERRES
    27   16   40 1    
    28   16   41 1    
    29   17   22 1    
    30   17   18 1    
    31   18   19 1    
    32   18   42 1    
    33   18   43 1    
    34   19   20 1    
    35   19   44 1    
    36   19   45 1    
    37   20   21 1    
    38   20   23 1    
    39   20   64 1    
    40   21   22 1    
    41   21   46 1    
    42   21   47 1    
    43   22   48 1    
    44   22   49 1    
    45   23   24 1    
    46   23   50 1    
    47   23   51 1    
    48   24   29 ar   
    49   24   25 ar   
    50   25   26 ar   
    51   25   52 1    
    52   26   27 ar   
    53   26   53 1    
    54   27   28 ar   
    55   27   31 1    
    56   28   29 ar   
    57   28   54 1    
    58   29   30 1    
    59   30   55 1    
    60   30   56 1    
    61   30   57 1    
    62   31   58 1    
    63   31   59 1    
    64   31   60 1    
    65   32   61 1    
    66   32   62 1    
    67   32   63 1    
@<TRIPOS>SUBSTRUCTURE
     1 UNK         1 GROUP             0       ****    0 ROOT    
