@<TRIPOS>MOLECULE
ZINC31637082_3226
69   72    1
SMALL
USER_CHARGES


@<TRIPOS>ATOM
      1 C1         -1.6039   51.8273   25.1823 C.3       1 UNK         0.0000 
      2 C2         -0.2185   52.3971   24.9386 C.ar      1 UNK         0.0000 
      3 C3          0.7177   52.4088   25.9711 C.ar      1 UNK         0.0000 
      4 C4          1.9940   52.9151   25.7444 C.ar      1 UNK         0.0000 
      5 C5          2.3545   53.4016   24.4776 C.ar      1 UNK         0.0000 
      6 C6          1.3957   53.4123   23.4559 C.ar      1 UNK         0.0000 
      7 C7          0.1217   52.8966   23.6822 C.ar      1 UNK         0.0000 
      8 N8          3.6793   53.8727   24.2392 N.pl3     1 UNK         0.0000 
      9 C9          4.4541   53.7962   23.0889 C.ar      1 UNK         0.0000 
     10 C10         5.6276   54.4968   23.4040 C.ar      1 UNK         0.0000 
     11 C11         5.5329   54.7785   24.7695 C.ar      1 UNK         0.0000 
     12 N12         4.3579   54.4516   25.2474 N.2       1 UNK         0.0000 
     13 C13         6.5621   55.4155   25.6649 C.3       1 UNK         0.0000 
     14 N14         6.7047   54.8696   22.6028 N.am      1 UNK         0.0000 
     15 C15         6.5892   55.2920   21.3269 C.2       1 UNK         0.0000 
     16 O16         5.5155   55.3462   20.7243 O.2       1 UNK         0.0000 
     17 C17         7.9095   55.6944   20.6281 C.3       1 UNK         0.0000 
     18 N18         7.6863   56.1118   19.2221 N.am      1 UNK         0.0000 
     19 C19         7.0225   57.2398   18.8815 C.2       1 UNK         0.0000 
     20 O20         6.7044   58.1699   19.6229 O.2       1 UNK         0.0000 
     21 C21         6.7324   57.1299   17.3905 C.3       1 UNK         0.0000 
     22 N22         7.5061   55.9503   17.0944 N.am      1 UNK         0.0000 
     23 C23         7.9733   55.3062   18.1694 C.2       1 UNK         0.0000 
     24 O24         8.4536   54.1767   18.1858 O.2       1 UNK         0.0000 
     25 C25         7.3655   58.3621   16.6895 C.3       1 UNK         0.0000 
     26 C26         5.2173   56.9178   17.1135 C.ar      1 UNK         0.0000 
     27 C27         4.6073   55.6860   17.3961 C.ar      1 UNK         0.0000 
     28 C28         3.2639   55.4665   17.1135 C.ar      1 UNK         0.0000 
     29 C29         2.4761   56.4728   16.5371 C.ar      1 UNK         0.0000 
     30 C30         3.0707   57.7220   16.3055 C.ar      1 UNK         0.0000 
     31 C31         4.4156   57.9456   16.5968 C.ar      1 UNK         0.0000 
     32 C32         0.9915   56.2326   16.1500 C.3       1 UNK         0.0000 
     33 C33         0.8557   56.3154   14.6112 C.3       1 UNK         0.0000 
     34 C34         0.0680   57.2976   16.7903 C.3       1 UNK         0.0000 
     35 C35         0.4555   54.8468   16.6000 C.3       1 UNK         0.0000 
     36 C36         4.0298   53.0639   21.8250 C.3       1 UNK         0.0000 
     37 H37        -1.5648   51.0066   25.8999 H         1 UNK         0.0000 
     38 H38        -2.2706   52.5966   25.5715 H         1 UNK         0.0000 
     39 H39        -2.0302   51.4193   24.2652 H         1 UNK         0.0000 
     40 H40         0.4618   52.0190   26.9460 H         1 UNK         0.0000 
     41 H41         2.7101   52.8974   26.5538 H         1 UNK         0.0000 
     42 H42         1.6174   53.8190   22.4807 H         1 UNK         0.0000 
     43 H43        -0.6029   52.8937   22.8817 H         1 UNK         0.0000 
     44 H44         7.5572   55.2048   25.2837 H         1 UNK         0.0000 
     45 H45         6.4501   56.4955   25.6813 H         1 UNK         0.0000 
     46 H46         6.5193   55.0521   26.6930 H         1 UNK         0.0000 
     47 H47         7.6174   54.9031   23.0385 H         1 UNK         0.0000 
     48 H48         8.6214   54.8727   20.6696 H         1 UNK         0.0000 
     49 H49         8.3762   56.4962   21.1932 H         1 UNK         0.0000 
     50 H50         7.8883   55.8063   16.1721 H         1 UNK         0.0000 
     51 H51         6.9522   59.3003   17.0631 H         1 UNK         0.0000 
     52 H52         8.4466   58.4139   16.8323 H         1 UNK         0.0000 
     53 H53         7.1859   58.3359   15.6143 H         1 UNK         0.0000 
     54 H54         5.1729   54.8748   17.8307 H         1 UNK         0.0000 
     55 H55         2.8617   54.4919   17.3419 H         1 UNK         0.0000 
     56 H56         2.4967   58.5356   15.8872 H         1 UNK         0.0000 
     57 H57         4.8185   58.9290   16.4001 H         1 UNK         0.0000 
     58 H58        -0.1698   56.1354   14.2857 H         1 UNK         0.0000 
     59 H59         1.4871   55.5759   14.1168 H         1 UNK         0.0000 
     60 H60         1.1439   57.2951   14.2286 H         1 UNK         0.0000 
     61 H61         0.1147   57.2760   17.8778 H         1 UNK         0.0000 
     62 H62         0.3210   58.3091   16.4742 H         1 UNK         0.0000 
     63 H63        -0.9757   57.1397   16.5152 H         1 UNK         0.0000 
     64 H64         0.5272   54.7186   17.6813 H         1 UNK         0.0000 
     65 H65        -0.5939   54.7154   16.3329 H         1 UNK         0.0000 
     66 H66         1.0007   54.0277   16.1292 H         1 UNK         0.0000 
     67 H67         4.8934   52.7459   21.2407 H         1 UNK         0.0000 
     68 H68         3.4613   52.1580   22.0362 H         1 UNK         0.0000 
     69 H69         3.4261   53.6919   21.1688 H         1 UNK         0.0000 
@<TRIPOS>BOND
     1    1    2 1    
     2    1   37 1    
     3    1   38 1    
     4    1   39 1    
     5    2    7 ar   
     6    2    3 ar   
     7    3    4 ar   
     8    3   40 1    
     9    4    5 ar   
    10    4   41 1    
    11    5    6 ar   
    12    5    8 1    
    13    6    7 ar   
    14    6   42 1    
    15    7   43 1    
    16    8   12 ar   
    17    8    9 ar   
    18    9   10 ar   
    19    9   36 1    
    20   10   11 ar   
    21   10   14 1    
    22   11   12 ar   
    23   11   13 1    
    24   13   44 1    
    25   13   45 1    
    26   13   46 1    
    27   14   15 am   BACKBONE|DICT|INTERRES
    28   14   47 1    
    29   15   16 2    
    30   15   17 1    
    31   17   18 1    
    32   17   48 1    
    33   17   49 1    
    34   18   23 am   BACKBONE|DICT|INTERRES
    35   18   19 am   BACKBONE|DICT|INTERRES
    36   19   20 2    
    37   19   21 1    
    38   21   22 1    
    39   21   25 1    
    40   21   26 1    
    41   22   23 am   BACKBONE|DICT|INTERRES
    42   22   50 1    
    43   23   24 2    
    44   25   51 1    
    45   25   52 1    
    46   25   53 1    
    47   26   31 ar   
    48   26   27 ar   
    49   27   28 ar   
    50   27   54 1    
    51   28   29 ar   
    52   28   55 1    
    53   29   30 ar   
    54   29   32 1    
    55   30   31 ar   
    56   30   56 1    
    57   31   57 1    
    58   32   33 1    
    59   32   34 1    
    60   32   35 1    
    61   33   58 1    
    62   33   59 1    
    63   33   60 1    
    64   34   61 1    
    65   34   62 1    
    66   34   63 1    
    67   35   64 1    
    68   35   65 1    
    69   35   66 1    
    70   36   67 1    
    71   36   68 1    
    72   36   69 1    
@<TRIPOS>SUBSTRUCTURE
     1 UNK         1 GROUP             0       ****    0 ROOT    
