@<TRIPOS>MOLECULE
ZINC11852420_2936
63   66    1
SMALL
USER_CHARGES


@<TRIPOS>ATOM
      1 C1          4.0747   58.6743   16.4086 C.3       1 UNK         0.0000 
      2 C2          3.1694   57.4569   16.4182 C.ar      1 UNK         0.0000 
      3 C3          1.8226   57.6013   16.0820 C.ar      1 UNK         0.0000 
      4 C4          0.9774   56.4960   16.1246 C.ar      1 UNK         0.0000 
      5 C5          1.4829   55.2439   16.4811 C.ar      1 UNK         0.0000 
      6 C6          2.8406   55.0923   16.7838 C.ar      1 UNK         0.0000 
      7 C7          3.6801   56.2024   16.7576 C.ar      1 UNK         0.0000 
      8 S8          0.3461   53.8547   16.5109 S.o2      1 UNK         0.0000 
      9 O9         -0.8239   54.2918   17.2815 O.2       1 UNK         0.0000 
     10 O10         0.1938   53.4114   15.1232 O.2       1 UNK         0.0000 
     11 C11         1.1978   52.4722   17.4815 C.3       1 UNK         0.0000 
     12 N12         1.4020   52.8965   18.8818 N.pl3     1 UNK         0.0000 
     13 C13         1.3493   52.1659   20.0013 C.2       1 UNK         0.0000 
     14 C14         1.1813   50.7166   19.8604 C.ar      1 UNK         0.0000 
     15 C15         2.1871   49.9511   19.2523 C.ar      1 UNK         0.0000 
     16 C16         2.0180   48.5838   19.0593 C.ar      1 UNK         0.0000 
     17 C17         0.8396   47.9674   19.4730 C.ar      1 UNK         0.0000 
     18 C18        -0.1740   48.7120   20.0740 C.ar      1 UNK         0.0000 
     19 C19        -0.0085   50.0844   20.2579 C.ar      1 UNK         0.0000 
     20 N20         1.4399   52.8158   21.1809 N.pl3     1 UNK         0.0000 
     21 C21         1.5879   52.4062   22.6033 C.2       1 UNK         0.0000 
     22 S22         1.5049   50.8421   23.1980 S.2       1 UNK         0.0000 
     23 N23         1.7947   53.4789   23.4299 N.pl3     1 UNK         0.0000 
     24 N24         2.9444   53.6959   24.2655 N.pl3     1 UNK         0.0000 
     25 C25         2.6807   53.6951   25.6730 C.ar      1 UNK         0.0000 
     26 C26         1.6492   52.9082   26.2263 C.ar      1 UNK         0.0000 
     27 C27         1.3875   52.8932   27.5933 C.ar      1 UNK         0.0000 
     28 C28         2.1445   53.6846   28.4467 C.ar      1 UNK         0.0000 
     29 C29         3.1524   54.4944   27.9381 C.ar      1 UNK         0.0000 
     30 C30         3.4098   54.4971   26.5690 C.ar      1 UNK         0.0000 
     31 C31         4.1675   54.0967   23.6315 C.ar      1 UNK         0.0000 
     32 C32         4.2159   54.4963   22.2817 C.ar      1 UNK         0.0000 
     33 C33         5.4097   54.8823   21.6705 C.ar      1 UNK         0.0000 
     34 C34         6.5889   54.8961   22.4052 C.ar      1 UNK         0.0000 
     35 C35         6.5840   54.4774   23.7288 C.ar      1 UNK         0.0000 
     36 C36         5.3934   54.0704   24.3221 C.ar      1 UNK         0.0000 
     37 H37         5.1332   58.4041   16.4010 H         1 UNK         0.0000 
     38 H38         3.8742   59.2950   17.2810 H         1 UNK         0.0000 
     39 H39         3.8950   59.2860   15.5232 H         1 UNK         0.0000 
     40 H40         1.4269   58.5739   15.8217 H         1 UNK         0.0000 
     41 H41        -0.0678   56.6150   15.8783 H         1 UNK         0.0000 
     42 H42         3.2569   54.1294   17.0392 H         1 UNK         0.0000 
     43 H43         4.7270   56.0862   16.9992 H         1 UNK         0.0000 
     44 H44         0.5311   51.6102   17.4315 H         1 UNK         0.0000 
     45 H45         2.1433   52.2119   17.0048 H         1 UNK         0.0000 
     46 H46         3.1042   50.4089   18.9031 H         1 UNK         0.0000 
     47 H47         2.8036   48.0151   18.5783 H         1 UNK         0.0000 
     48 H48         0.7109   46.9065   19.3188 H         1 UNK         0.0000 
     49 H49        -1.0886   48.2274   20.3879 H         1 UNK         0.0000 
     50 H50        -0.8074   50.6495   20.7204 H         1 UNK         0.0000 
     51 H51         1.5039   53.8193   21.0143 H         1 UNK         0.0000 
     52 H52         1.3357   54.3529   23.2178 H         1 UNK         0.0000 
     53 H53         1.0302   52.2845   25.6058 H         1 UNK         0.0000 
     54 H54         0.5970   52.2668   27.9855 H         1 UNK         0.0000 
     55 H55         1.9363   53.6789   29.5060 H         1 UNK         0.0000 
     56 H56         3.7242   55.1297   28.5984 H         1 UNK         0.0000 
     57 H57         4.1606   55.1849   26.2134 H         1 UNK         0.0000 
     58 H58         3.3238   54.5538   21.6838 H         1 UNK         0.0000 
     59 H59         5.4138   55.1943   20.6352 H         1 UNK         0.0000 
     60 H60         7.5163   55.2041   21.9442 H         1 UNK         0.0000 
     61 H61         7.5044   54.4512   24.2922 H         1 UNK         0.0000 
     62 H62         5.4548   53.6927   25.3306 H         1 UNK         0.0000 
     63 H63         1.5043   53.8943   19.0544 H         1 UNK         0.0000 
@<TRIPOS>BOND
     1    1    2 1    
     2    1   37 1    
     3    1   38 1    
     4    1   39 1    
     5    2    7 ar   
     6    2    3 ar   
     7    3    4 ar   
     8    3   40 1    
     9    4    5 ar   
    10    4   41 1    
    11    5    6 ar   
    12    5    8 1    
    13    6    7 ar   
    14    6   42 1    
    15    7   43 1    
    16    8    9 2    
    17    8   10 2    
    18    8   11 1    
    19   11   12 1    
    20   11   44 1    
    21   11   45 1    
    22   12   13 2    
    23   12   63 1    
    24   13   14 1    
    25   13   20 1    
    26   14   19 ar   
    27   14   15 ar   
    28   15   16 ar   
    29   15   46 1    
    30   16   17 ar   
    31   16   47 1    
    32   17   18 ar   
    33   17   48 1    
    34   18   19 ar   
    35   18   49 1    
    36   19   50 1    
    37   20   21 1    
    38   20   51 1    
    39   21   22 2    
    40   21   23 1    
    41   23   24 1    
    42   23   52 1    
    43   24   25 1    
    44   24   31 1    
    45   25   30 ar   
    46   25   26 ar   
    47   26   27 ar   
    48   26   53 1    
    49   27   28 ar   
    50   27   54 1    
    51   28   29 ar   
    52   28   55 1    
    53   29   30 ar   
    54   29   56 1    
    55   30   57 1    
    56   31   36 ar   
    57   31   32 ar   
    58   32   33 ar   
    59   32   58 1    
    60   33   34 ar   
    61   33   59 1    
    62   34   35 ar   
    63   34   60 1    
    64   35   36 ar   
    65   35   61 1    
    66   36   62 1    
@<TRIPOS>SUBSTRUCTURE
     1 UNK         1 GROUP             0       ****    0 ROOT    
