ZINC13631650_4269
                    3D
 Schrodinger Suite 2024-2.
 43 44  0  0  1  0            999 V2000
    2.8954   50.0966   20.1705 C   0  0  0  0  0  0
    1.7024   51.0390   20.3753 C   0  0  0  0  0  0
    1.4130   51.2869   21.7874 N   0  0  0  0  0  0
    0.7302   50.4583   22.6009 C   0  0  0  0  0  0
    0.2759   49.3789   22.2154 O   0  0  0  0  0  0
    0.5538   50.9073   24.0385 C   0  0  0  0  0  0
    0.8607   52.2160   24.4447 C   0  0  0  0  0  0
    0.7309   52.5866   25.7780 C   0  0  0  0  0  0
    0.3032   51.6625   26.7313 C   0  0  0  0  0  0
   -0.0754   50.3892   26.3251 C   0  0  0  0  0  0
    0.0626   50.0046   24.9943 C   0  0  0  0  0  0
    0.2307   51.9740   28.1028 N   0  0  0  0  0  0
    1.1417   52.6129   28.8984 C   0  0  0  0  0  0
    0.6914   52.8968   30.4813 S   0  0  0  0  0  0
    2.3405   52.9276   28.3042 N   0  0  0  0  0  0
    3.4150   53.6529   28.7072 C   0  0  0  0  0  0
    3.6355   54.0129   29.8678 O   0  0  0  0  0  0
    4.3877   54.0166   27.6032 C   0  0  0  0  0  0
    5.6642   54.4962   27.9161 C   0  0  0  0  0  0
    6.5422   54.8968   26.9101 C   0  0  0  0  0  0
    6.1651   54.8312   25.5640 C   0  0  0  0  0  0
    4.9084   54.3176   25.2357 C   0  0  0  0  0  0
    4.0399   53.9232   26.2463 C   0  0  0  0  0  0
    4.2568   54.0948   23.2531 I   0  0  0  0  0  0
    7.0998   55.3322   24.4829 C   0  0  0  0  0  0
    3.1034   49.9541   19.1078 H   0  0  0  0  0  0
    3.8039   50.4983   20.6219 H   0  0  0  0  0  0
    2.7046   49.1124   20.5988 H   0  0  0  0  0  0
    0.8180   50.6447   19.8692 H   0  0  0  0  0  0
    1.9158   51.9987   19.9013 H   0  0  0  0  0  0
    1.7896   52.1372   22.1736 H   0  0  0  0  0  0
    1.2055   52.9615   23.7447 H   0  0  0  0  0  0
    0.9757   53.5962   26.0685 H   0  0  0  0  0  0
   -0.4575   49.6944   27.0517 H   0  0  0  0  0  0
   -0.2060   48.9944   24.7193 H   0  0  0  0  0  0
   -0.5985   51.6340   28.5676 H   0  0  0  0  0  0
    2.3932   52.6427   27.3390 H   0  0  0  0  0  0
    5.9835   54.5842   28.9461 H   0  0  0  0  0  0
    7.5044   55.2829   27.2047 H   0  0  0  0  0  0
    3.0910   53.5378   25.9323 H   0  0  0  0  0  0
    7.5044   54.4942   23.9167 H   0  0  0  0  0  0
    6.5609   55.9669   23.7805 H   0  0  0  0  0  0
    7.9042   55.9469   24.8814 H   0  0  0  0  0  0
  1  2  1  0  0  0
  1 26  1  0  0  0
  1 27  1  0  0  0
  1 28  1  0  0  0
  2  3  1  0  0  0
  2 29  1  0  0  0
  2 30  1  0  0  0
  3  4  1  0  0  0
  3 31  1  0  0  0
  4  5  2  0  0  0
  4  6  1  0  0  0
  6 11  2  0  0  0
  6  7  1  0  0  0
  7  8  2  0  0  0
  7 32  1  0  0  0
  8  9  1  0  0  0
  8 33  1  0  0  0
  9 10  2  0  0  0
  9 12  1  0  0  0
 10 11  1  0  0  0
 10 34  1  0  0  0
 11 35  1  0  0  0
 12 13  1  0  0  0
 12 36  1  0  0  0
 13 14  2  0  0  0
 13 15  1  0  0  0
 15 16  1  0  0  0
 15 37  1  0  0  0
 16 17  2  0  0  0
 16 18  1  0  0  0
 18 23  2  0  0  0
 18 19  1  0  0  0
 19 20  2  0  0  0
 19 38  1  0  0  0
 20 21  1  0  0  0
 20 39  1  0  0  0
 21 22  2  0  0  0
 21 25  1  0  0  0
 22 23  1  0  0  0
 22 24  1  0  0  0
 23 40  1  0  0  0
 25 41  1  0  0  0
 25 42  1  0  0  0
 25 43  1  0  0  0
M  END
> <i_i_glide_confnum>
145

> <i_i_glide_lignum>
4270

> <i_i_glide_posenum>
332

> <i_i_glide_rotatable_bonds>
8

> <i_m_Source_File_Index>
1424

> <b_m_subgroup_collapsed>
0

> <r_i_docking_score>
-5.05288

> <r_i_glide_ecoul>
-4.00591

> <r_i_glide_eff_state_penalty>
0

> <r_i_glide_einternal>
4.46979

> <r_i_glide_emodel>
-58.4326

> <r_i_glide_energy>
-46.3557

> <r_i_glide_erotb>
0.646865

> <r_i_glide_esite>
-0.000860806

> <r_i_glide_evdw>
-42.3498

> <r_i_glide_gscore>
-5.05288

> <r_i_glide_hbond>
-0.283564

> <r_i_glide_ligand_efficiency>
-0.202115

> <r_i_glide_ligand_efficiency_ln>
-1.19768

> <r_i_glide_ligand_efficiency_sa>
-0.590988

> <r_i_glide_lipo>
-2.12609

> <r_i_glide_metal>
0

> <r_i_glide_rewards>
-0.570848

> <s_i_glide_gridfile>
wee1_glide-grid

> <s_m_Source_File>
wee1_decoys_glide_SP.sdf

> <s_m_Source_Path>
/Users/zhangxujun/Desktop

> <s_m_entry_id>
1699

> <s_m_entry_name>
wee1_decoys_glide_SP.1424

> <s_m_subgroup_title>
wee1_decoys_glide_SP

> <s_m_subgroupid>
wee1_decoys_glide_SP


$$$$
