@<TRIPOS>MOLECULE
ZINC36309755_1086
70   73    1
SMALL
USER_CHARGES


@<TRIPOS>ATOM
      1 C1          1.6716   49.0165   19.4761 C.3       1 UNK         0.0000 
      2 C2          2.4134   50.3683   19.5687 C.3       1 UNK         0.0000 
      3 C3          2.3050   51.1035   18.2154 C.3       1 UNK         0.0000 
      4 N4          1.8867   51.3478   20.6743 N.4       1 UNK         0.0000 
      5 C5          2.8943   52.3432   21.3536 C.3       1 UNK         0.0000 
      6 C6          4.1539   52.7799   20.5684 C.3       1 UNK         0.0000 
      7 H7          3.8838   53.1520   19.5834 H         1 UNK         0.0000 
      8 C8          4.8947   53.9367   21.2742 C.3       1 UNK         0.0000 
      9 O9          5.7853   54.5369   20.3430 O.3       1 UNK         0.0000 
     10 C10         6.7216   55.4496   20.8957 C.3       1 UNK         0.0000 
     11 C11         7.2009   56.3659   19.7955 C.2       1 UNK         0.0000 
     12 C12         8.3853   56.4915   19.0820 C.2       1 UNK         0.0000 
     13 C13         8.2098   57.5497   18.1862 C.2       1 UNK         0.0000 
     14 C14         6.9267   58.0275   18.3928 C.2       1 UNK         0.0000 
     15 O15         6.3142   57.3020   19.3633 O.3       1 UNK         0.0000 
     16 O16         5.0671   51.6985   20.4817 O.3       1 UNK         0.0000 
     17 C17         0.9943   50.7881   21.7670 C.3       1 UNK         0.0000 
     18 C18        -0.2023   51.7474   21.9421 C.2       1 UNK         0.0000 
     19 O19        -0.7792   52.0962   20.9075 O.2       1 UNK         0.0000 
     20 N20        -0.6189   52.1508   23.1762 N.am      1 UNK         0.0000 
     21 C21        -1.8301   53.0017   23.2818 C.3       1 UNK         0.0000 
     22 C22        -2.8393   52.2999   24.2143 C.3       1 UNK         0.0000 
     23 C23        -2.1365   51.9706   25.5121 C.2       1 UNK         0.0000 
     24 C24        -0.7493   51.8408   25.6236 C.2       1 UNK         0.0000 
     25 C25        -0.3762   51.4621   26.9227 C.2       1 UNK         0.0000 
     26 C26        -1.4572   51.2970   27.7757 C.2       1 UNK         0.0000 
     27 S27        -2.9670   51.5840   26.9816 S.3       1 UNK         0.0000 
     28 C28         0.1917   52.0265   24.4225 C.3       1 UNK         0.0000 
     29 H29         0.7524   51.0955   24.3921 H         1 UNK         0.0000 
     30 C30         1.2134   53.1828   24.5993 C.3       1 UNK         0.0000 
     31 O31         1.8900   53.1290   25.8578 O.3       1 UNK         0.0000 
     32 C32         3.1437   53.6972   26.0086 C.ar      1 UNK         0.0000 
     33 C33         3.8096   54.4447   25.0228 C.ar      1 UNK         0.0000 
     34 C34         5.1134   54.8887   25.2398 C.ar      1 UNK         0.0000 
     35 C35         5.7512   54.6057   26.4439 C.ar      1 UNK         0.0000 
     36 C36         5.0843   53.9093   27.4477 C.ar      1 UNK         0.0000 
     37 C37         3.7817   53.4636   27.2296 C.ar      1 UNK         0.0000 
     38 F38         7.0264   55.0120   26.6379 F         1 UNK         0.0000 
     39 H39         2.0743   48.4223   18.6525 H         1 UNK         0.0000 
     40 H40         1.8072   48.4144   20.3749 H         1 UNK         0.0000 
     41 H41         0.6040   49.1415   19.2859 H         1 UNK         0.0000 
     42 H42         3.4397   50.1232   19.8243 H         1 UNK         0.0000 
     43 H43         2.7037   50.4973   17.4033 H         1 UNK         0.0000 
     44 H44         1.2671   51.3320   17.9633 H         1 UNK         0.0000 
     45 H45         2.8635   52.0323   18.1679 H         1 UNK         0.0000 
     46 H46         2.2684   53.2125   21.5630 H         1 UNK         0.0000 
     47 H47         3.2163   51.8894   22.2914 H         1 UNK         0.0000 
     48 H48         4.1845   54.6976   21.6041 H         1 UNK         0.0000 
     49 H49         5.4147   53.5796   22.1668 H         1 UNK         0.0000 
     50 H50         6.2652   56.0375   21.6930 H         1 UNK         0.0000 
     51 H51         7.5498   54.8968   21.3424 H         1 UNK         0.0000 
     52 H52         9.2752   55.8886   19.2000 H         1 UNK         0.0000 
     53 H53         8.9321   57.9234   17.4747 H         1 UNK         0.0000 
     54 H54         6.3465   58.8277   17.9498 H         1 UNK         0.0000 
     55 H55         5.1052   51.3837   19.5570 H         1 UNK         0.0000 
     56 H56         1.5904   50.5268   22.6387 H         1 UNK         0.0000 
     57 H57         0.5318   49.8670   21.4304 H         1 UNK         0.0000 
     58 H58        -1.5466   53.9721   23.6891 H         1 UNK         0.0000 
     59 H59        -2.2976   53.2140   22.3217 H         1 UNK         0.0000 
     60 H60        -3.7028   52.9435   24.3849 H         1 UNK         0.0000 
     61 H61        -3.2221   51.3950   23.7396 H         1 UNK         0.0000 
     62 H62         0.6470   51.2875   27.2238 H         1 UNK         0.0000 
     63 H63        -1.4436   50.9688   28.8062 H         1 UNK         0.0000 
     64 H64         0.7270   54.1523   24.4880 H         1 UNK         0.0000 
     65 H65         1.9229   53.0978   23.7838 H         1 UNK         0.0000 
     66 H66         3.3437   54.6780   24.0796 H         1 UNK         0.0000 
     67 H67         5.6369   55.4411   24.4743 H         1 UNK         0.0000 
     68 H68         5.5845   53.7001   28.3827 H         1 UNK         0.0000 
     69 H69         3.2761   52.8974   27.9976 H         1 UNK         0.0000 
     70 H70         1.2522   51.9103   20.1183 H         1 UNK         0.0000 
@<TRIPOS>BOND
     1    1    2 1    
     2    1   39 1    
     3    1   40 1    
     4    1   41 1    
     5    2    3 1    
     6    2    4 1    
     7    2   42 1    
     8    3   43 1    
     9    3   44 1    
    10    3   45 1    
    11    4    5 1    
    12    4   17 1    
    13    4   70 1    
    14    5    6 1    
    15    5   46 1    
    16    5   47 1    
    17    6    7 1    
    18    6    8 1    
    19    6   16 1    
    20    8    9 1    
    21    8   48 1    
    22    8   49 1    
    23    9   10 1    
    24   10   11 1    
    25   10   50 1    
    26   10   51 1    
    27   11   15 1    
    28   11   12 2    
    29   12   13 1    
    30   12   52 1    
    31   13   14 2    
    32   13   53 1    
    33   14   15 1    
    34   14   54 1    
    35   16   55 1    
    36   17   18 1    
    37   17   56 1    
    38   17   57 1    
    39   18   19 2    
    40   18   20 am   BACKBONE|DICT|INTERRES
    41   20   28 1    
    42   20   21 1    
    43   21   22 1    
    44   21   58 1    
    45   21   59 1    
    46   22   23 1    
    47   22   60 1    
    48   22   61 1    
    49   23   27 1    
    50   23   24 2    
    51   24   25 1    
    52   24   28 1    
    53   25   26 2    
    54   25   62 1    
    55   26   27 1    
    56   26   63 1    
    57   28   29 1    
    58   28   30 1    
    59   30   31 1    
    60   30   64 1    
    61   30   65 1    
    62   31   32 1    
    63   32   37 ar   
    64   32   33 ar   
    65   33   34 ar   
    66   33   66 1    
    67   34   35 ar   
    68   34   67 1    
    69   35   36 ar   
    70   35   38 1    
    71   36   37 ar   
    72   36   68 1    
    73   37   69 1    
@<TRIPOS>SUBSTRUCTURE
     1 UNK         1 GROUP             0       ****    0 ROOT    
