@<TRIPOS>MOLECULE
ZINC00940659_4293
42   45    1
SMALL
USER_CHARGES


@<TRIPOS>ATOM
      1 C1         -1.8067   51.7014   21.5166 C.3       1 UNK         0.0000 
      2 C2         -1.5480   51.4917   23.0053 C.2       1 UNK         0.0000 
      3 C3         -0.3969   51.0176   23.5815 C.2       1 UNK         0.0000 
      4 C4         -0.4218   50.7328   25.1109 C.3       1 UNK         0.0000 
      5 H5          0.0161   49.7476   25.2781 H         1 UNK         0.0000 
      6 N6         -1.8281   50.5504   25.5399 N.pl3     1 UNK         0.0000 
      7 C7         -2.8117   51.3528   24.9185 C.ar      1 UNK         0.0000 
      8 N8         -2.6728   51.8046   23.7243 N.2       1 UNK         0.0000 
      9 N9         -3.8557   51.5735   25.7940 N.2       1 UNK         0.0000 
     10 C10        -3.5272   51.0582   26.9213 C.ar      1 UNK         0.0000 
     11 N11        -2.2216   50.4968   26.8940 N.pl3     1 UNK         0.0000 
     12 C12        -4.3913   51.0099   28.1215 C.ar      1 UNK         0.0000 
     13 C13        -5.7052   51.5008   28.0775 C.ar      1 UNK         0.0000 
     14 C14        -6.5001   51.4899   29.2217 C.ar      1 UNK         0.0000 
     15 C15        -5.9903   50.9854   30.4162 C.ar      1 UNK         0.0000 
     16 C16        -4.6946   50.4800   30.4720 C.ar      1 UNK         0.0000 
     17 C17        -3.9002   50.4928   29.3293 C.ar      1 UNK         0.0000 
     18 Cl18       -6.9649   51.0031   31.8399 Cl        1 UNK         0.0000 
     19 C19         0.4605   51.6633   25.9758 C.ar      1 UNK         0.0000 
     20 C20         0.7033   51.2996   27.3028 C.ar      1 UNK         0.0000 
     21 C21         1.5090   52.0806   28.1260 C.ar      1 UNK         0.0000 
     22 C22         2.1085   53.2265   27.6116 C.ar      1 UNK         0.0000 
     23 C23         1.9046   53.5897   26.2823 C.ar      1 UNK         0.0000 
     24 C24         1.0728   52.8205   25.4698 C.ar      1 UNK         0.0000 
     25 Br25        3.2163   54.2982   28.7313 Br        1 UNK         0.0000 
     26 C26         0.8151   50.7495   22.8291 C.2       1 UNK         0.0000 
     27 O27         1.1983   51.4499   21.8974 O.2       1 UNK         0.0000 
     28 N28         1.5278   49.6967   23.2156 N.am      1 UNK         0.0000 
     29 H29        -1.7452   52.7615   21.2820 H         1 UNK         0.0000 
     30 H30        -1.0952   51.1743   20.8837 H         1 UNK         0.0000 
     31 H31        -2.7974   51.3412   21.2335 H         1 UNK         0.0000 
     32 H32        -1.9765   49.5846   27.3097 H         1 UNK         0.0000 
     33 H33        -6.1174   51.9025   27.1619 H         1 UNK         0.0000 
     34 H34        -7.5085   51.8756   29.1814 H         1 UNK         0.0000 
     35 H35        -4.2933   50.0911   31.3985 H         1 UNK         0.0000 
     36 H36        -2.8974   50.0972   29.4067 H         1 UNK         0.0000 
     37 H37         0.2609   50.3941   27.6835 H         1 UNK         0.0000 
     38 H38         1.6747   51.7916   29.1532 H         1 UNK         0.0000 
     39 H39         2.3851   54.4701   25.8831 H         1 UNK         0.0000 
     40 H40         0.9177   53.1322   24.4473 H         1 UNK         0.0000 
     41 H41         1.2430   49.1093   23.9842 H         1 UNK         0.0000 
     42 H42         2.3823   49.4842   22.7248 H         1 UNK         0.0000 
@<TRIPOS>BOND
     1    1    2 1    
     2    1   29 1    
     3    1   30 1    
     4    1   31 1    
     5    2    8 1    
     6    2    3 2    
     7    3    4 1    
     8    3   26 1    
     9    4    5 1    
    10    4    6 1    
    11    4   19 1    
    12    6   11 1    
    13    6    7 ar   
    14    7    8 2    
    15    7    9 ar   
    16    9   10 ar   
    17   10   11 ar   
    18   10   12 1    
    19   11   32 1    
    20   12   17 ar   
    21   12   13 ar   
    22   13   14 ar   
    23   13   33 1    
    24   14   15 ar   
    25   14   34 1    
    26   15   16 ar   
    27   15   18 1    
    28   16   17 ar   
    29   16   35 1    
    30   17   36 1    
    31   19   24 ar   
    32   19   20 ar   
    33   20   21 ar   
    34   20   37 1    
    35   21   22 ar   
    36   21   38 1    
    37   22   23 ar   
    38   22   25 1    
    39   23   24 ar   
    40   23   39 1    
    41   24   40 1    
    42   26   27 2    
    43   26   28 am   BACKBONE|DICT|INTERRES
    44   28   41 1    
    45   28   42 1    
@<TRIPOS>SUBSTRUCTURE
     1 UNK         1 GROUP             0       ****    0 ROOT    
