@<TRIPOS>MOLECULE
ZINC35642737_2916
72   74    1
SMALL
USER_CHARGES


@<TRIPOS>ATOM
      1 C1          1.4517   45.5494   13.8679 C.3       1 UNK         0.0000 
      2 C2          1.4592   47.0063   14.3510 C.3       1 UNK         0.0000 
      3 C3          1.4739   47.1289   15.8847 C.3       1 UNK         0.0000 
      4 N4          1.5044   48.5164   16.3432 N.am      1 UNK         0.0000 
      5 C5          0.4202   49.2846   16.5890 C.2       1 UNK         0.0000 
      6 O6         -0.7201   48.8516   16.4014 O.2       1 UNK         0.0000 
      7 N7          0.6592   50.5548   17.0348 N.am      1 UNK         0.0000 
      8 C8         -0.4676   51.4418   17.3803 C.3       1 UNK         0.0000 
      9 C9         -0.2705   52.3111   18.6474 C.3       1 UNK         0.0000 
     10 C10         0.2635   51.5856   19.8991 C.3       1 UNK         0.0000 
     11 N11         1.8081   51.4403   19.9276 N.4       1 UNK         0.0000 
     12 C12         2.4527   50.6428   18.7720 C.3       1 UNK         0.0000 
     13 C13         1.9909   51.0766   17.3743 C.3       1 UNK         0.0000 
     14 C14         2.3566   50.9403   21.2937 C.3       1 UNK         0.0000 
     15 C15         2.2632   52.0181   22.4001 C.2       1 UNK         0.0000 
     16 C16         3.1032   53.0950   22.4747 C.2       1 UNK         0.0000 
     17 C17         2.8857   54.1523   23.5861 C.3       1 UNK         0.0000 
     18 H18         3.1029   55.1501   23.2019 H         1 UNK         0.0000 
     19 N19         1.4499   54.0965   23.9438 N.am      1 UNK         0.0000 
     20 C20         0.7405   52.9426   24.0480 C.2       1 UNK         0.0000 
     21 O21        -0.1649   52.8966   24.8801 O.2       1 UNK         0.0000 
     22 N22         1.1512   51.9101   23.2334 N.am      1 UNK         0.0000 
     23 C23         0.2950   50.6965   23.3349 C.3       1 UNK         0.0000 
     24 C24         0.9608   49.5661   24.1340 C.3       1 UNK         0.0000 
     25 C25         3.8612   54.0964   24.7861 C.ar      1 UNK         0.0000 
     26 C26         3.4424   53.6969   26.0656 C.ar      1 UNK         0.0000 
     27 C27         4.3331   53.6969   27.1375 C.ar      1 UNK         0.0000 
     28 C28         5.6519   54.0967   26.9426 C.ar      1 UNK         0.0000 
     29 C29         6.0813   54.5104   25.6873 C.ar      1 UNK         0.0000 
     30 C30         5.1864   54.5194   24.6225 C.ar      1 UNK         0.0000 
     31 F31         6.5221   54.0764   27.9760 F         1 UNK         0.0000 
     32 C32         4.3365   53.2357   21.6561 C.2       1 UNK         0.0000 
     33 O33         5.0276   52.2879   21.2808 O.2       1 UNK         0.0000 
     34 O34         4.6200   54.5228   21.3486 O.3       1 UNK         0.0000 
     35 C35         5.7407   54.8859   20.5416 C.3       1 UNK         0.0000 
     36 C36         6.9428   55.2969   21.4057 C.3       1 UNK         0.0000 
     37 H37         1.4922   45.4983   12.7793 H         1 UNK         0.0000 
     38 H38         0.5459   45.0325   14.1898 H         1 UNK         0.0000 
     39 H39         2.3062   44.9953   14.2591 H         1 UNK         0.0000 
     40 H40         2.3311   47.5176   13.9390 H         1 UNK         0.0000 
     41 H41         0.5828   47.5201   13.9495 H         1 UNK         0.0000 
     42 H42         0.6269   46.5876   16.3145 H         1 UNK         0.0000 
     43 H43         2.3529   46.6171   16.2812 H         1 UNK         0.0000 
     44 H44         2.4391   48.8968   16.4817 H         1 UNK         0.0000 
     45 H45        -0.5813   52.1408   16.5505 H         1 UNK         0.0000 
     46 H46        -1.3972   50.8787   17.4805 H         1 UNK         0.0000 
     47 H47         0.3869   53.1521   18.4181 H         1 UNK         0.0000 
     48 H48        -1.2283   52.7741   18.8829 H         1 UNK         0.0000 
     49 H49         0.0350   52.1928   20.7751 H         1 UNK         0.0000 
     50 H50        -0.1570   50.5872   20.0320 H         1 UNK         0.0000 
     51 H51         2.3202   49.5766   18.9672 H         1 UNK         0.0000 
     52 H52         3.5044   50.8753   18.8814 H         1 UNK         0.0000 
     53 H53         2.7040   50.6641   16.6618 H         1 UNK         0.0000 
     54 H54         2.0895   52.1464   17.1889 H         1 UNK         0.0000 
     55 H55         1.8567   49.9933   21.4872 H         1 UNK         0.0000 
     56 H56         3.3922   50.6524   21.1314 H         1 UNK         0.0000 
     57 H57         1.1178   54.8251   24.5578 H         1 UNK         0.0000 
     58 H58        -0.6575   50.8959   23.8314 H         1 UNK         0.0000 
     59 H59        -0.0126   50.3507   22.3503 H         1 UNK         0.0000 
     60 H60         0.3403   48.6693   24.1336 H         1 UNK         0.0000 
     61 H61         1.9291   49.2968   23.7166 H         1 UNK         0.0000 
     62 H62         1.1044   49.8500   25.1767 H         1 UNK         0.0000 
     63 H63         2.4289   53.3746   26.2502 H         1 UNK         0.0000 
     64 H64         4.0058   53.3788   28.1163 H         1 UNK         0.0000 
     65 H65         7.1035   54.8211   25.5371 H         1 UNK         0.0000 
     66 H66         5.5340   54.8680   23.6666 H         1 UNK         0.0000 
     67 H67         6.0153   54.0870   19.8508 H         1 UNK         0.0000 
     68 H68         5.4452   55.7312   19.9193 H         1 UNK         0.0000 
     69 H69         7.7991   55.5554   20.7815 H         1 UNK         0.0000 
     70 H70         6.7071   56.1644   22.0202 H         1 UNK         0.0000 
     71 H71         7.2541   54.4967   22.0768 H         1 UNK         0.0000 
     72 H72         2.1710   52.3795   19.8186 H         1 UNK         0.0000 
@<TRIPOS>BOND
     1    1    2 1    
     2    1   37 1    
     3    1   38 1    
     4    1   39 1    
     5    2    3 1    
     6    2   40 1    
     7    2   41 1    
     8    3    4 1    
     9    3   42 1    
    10    3   43 1    
    11    4    5 am   BACKBONE|DICT|INTERRES
    12    4   44 1    
    13    5    6 2    
    14    5    7 am   BACKBONE|DICT|INTERRES
    15    7   13 1    
    16    7    8 1    
    17    8    9 1    
    18    8   45 1    
    19    8   46 1    
    20    9   10 1    
    21    9   47 1    
    22    9   48 1    
    23   10   11 1    
    24   10   49 1    
    25   10   50 1    
    26   11   12 1    
    27   11   14 1    
    28   11   72 1    
    29   12   13 1    
    30   12   51 1    
    31   12   52 1    
    32   13   53 1    
    33   13   54 1    
    34   14   15 1    
    35   14   55 1    
    36   14   56 1    
    37   15   22 1    
    38   15   16 2    
    39   16   17 1    
    40   16   32 1    
    41   17   18 1    
    42   17   19 1    
    43   17   25 1    
    44   19   20 am   BACKBONE|DICT|INTERRES
    45   19   57 1    
    46   20   21 2    
    47   20   22 am   BACKBONE|DICT|INTERRES
    48   22   23 1    
    49   23   24 1    
    50   23   58 1    
    51   23   59 1    
    52   24   60 1    
    53   24   61 1    
    54   24   62 1    
    55   25   30 ar   
    56   25   26 ar   
    57   26   27 ar   
    58   26   63 1    
    59   27   28 ar   
    60   27   64 1    
    61   28   29 ar   
    62   28   31 1    
    63   29   30 ar   
    64   29   65 1    
    65   30   66 1    
    66   32   33 2    
    67   32   34 1    
    68   34   35 1    
    69   35   36 1    
    70   35   67 1    
    71   35   68 1    
    72   36   69 1    
    73   36   70 1    
    74   36   71 1    
@<TRIPOS>SUBSTRUCTURE
     1 UNK         1 GROUP             0       ****    0 ROOT    
