ZINC23446803_5681
                    3D
 Schrodinger Suite 2024-2.
 74 77  0  0  1  0            999 V2000
    3.0516   58.9847   16.0085 C   0  0  0  0  0  0
    2.1407   57.9820   15.5692 O   0  0  0  0  0  0
    2.3423   56.6722   15.9542 C   0  0  0  0  0  0
    1.3371   55.7627   15.6155 C   0  0  0  0  0  0
    1.4380   54.4218   15.9762 C   0  0  0  0  0  0
    2.5418   53.9721   16.6970 C   0  0  0  0  0  0
    3.5659   54.8618   17.0521 C   0  0  0  0  0  0
    3.4654   56.2061   16.6588 C   0  0  0  0  0  0
    4.7268   54.3597   17.9153 C   0  0  2  0  0  0
    4.3629   53.4435   18.3876 H   0  0  0  0  0  0
    5.1474   55.3979   18.9790 C   0  0  0  0  0  0
    5.7325   54.7507   20.2647 N   0  3  0  0  0  0
    6.5161   55.8034   21.0844 C   0  0  0  0  0  0
    7.1022   55.1859   22.3770 C   0  0  0  0  0  0
    6.0314   54.4976   23.1359 N   0  0  0  0  0  0
    5.2534   53.4748   22.3887 C   0  0  0  0  0  0
    4.6216   54.1355   21.1475 C   0  0  0  0  0  0
    5.9051   54.7200   24.4804 C   0  0  0  0  0  0
    6.7569   55.3174   25.1433 O   0  0  0  0  0  0
    4.7387   54.2826   25.0025 N   0  0  0  0  0  0
    4.2988   54.1601   26.3349 C   0  0  0  0  0  0
    5.0674   54.4959   27.4598 C   0  0  0  0  0  0
    4.5618   54.2924   28.7408 C   0  0  0  0  0  0
    3.2972   53.7411   28.9317 C   0  0  0  0  0  0
    2.5254   53.4119   27.8075 C   0  0  0  0  0  0
    3.0163   53.6132   26.5074 C   0  0  0  0  0  0
    2.2966   53.2880   25.3658 O   0  0  0  0  0  0
    1.0550   52.6040   25.4793 C   0  0  0  0  0  0
    2.8911   53.5537   30.2384 O   0  0  0  0  0  0
    1.6219   52.9559   30.4962 C   0  0  0  0  0  0
    5.8472   54.1125   17.0731 O   0  0  0  0  0  0
    6.5721   52.9133   17.3395 C   0  0  0  0  0  0
    8.0656   53.1578   17.1830 C   0  0  0  0  0  0
    8.8651   52.1796   16.5890 C   0  0  0  0  0  0
   10.2387   52.3768   16.4801 C   0  0  0  0  0  0
   10.8141   53.5531   16.9700 C   0  0  0  0  0  0
   10.0176   54.5324   17.5670 C   0  0  0  0  0  0
    8.6434   54.3350   17.6705 C   0  0  0  0  0  0
   12.2543   53.7489   16.8826 C   0  0  0  0  0  0
   13.3988   53.9036   16.8156 N   0  0  0  0  0  0
    2.7040   59.9596   15.6680 H   0  0  0  0  0  0
    3.1143   59.0242   17.0978 H   0  0  0  0  0  0
    4.0515   58.8363   15.5964 H   0  0  0  0  0  0
    0.4736   56.1102   15.0694 H   0  0  0  0  0  0
    0.6528   53.7286   15.7059 H   0  0  0  0  0  0
    2.5978   52.9323   16.9847 H   0  0  0  0  0  0
    4.2587   56.8914   16.9162 H   0  0  0  0  0  0
    5.9114   56.0659   18.5811 H   0  0  0  0  0  0
    4.3044   56.0102   19.2794 H   0  0  0  0  0  0
    7.3429   56.1158   20.4418 H   0  0  0  0  0  0
    5.8780   56.6659   21.2807 H   0  0  0  0  0  0
    7.9049   54.4954   22.1264 H   0  0  0  0  0  0
    7.5528   55.9885   22.9638 H   0  0  0  0  0  0
    4.4669   53.0080   22.9785 H   0  0  0  0  0  0
    5.9071   52.6598   22.0819 H   0  0  0  0  0  0
    3.8786   54.8953   21.4004 H   0  0  0  0  0  0
    4.1352   53.3609   20.5539 H   0  0  0  0  0  0
    4.0798   53.8959   24.3437 H   0  0  0  0  0  0
    6.0630   54.9085   27.3741 H   0  0  0  0  0  0
    5.1666   54.5580   29.5937 H   0  0  0  0  0  0
    1.5438   52.9848   27.9480 H   0  0  0  0  0  0
    0.6666   52.3867   24.4839 H   0  0  0  0  0  0
    1.1648   51.6565   26.0048 H   0  0  0  0  0  0
    0.3080   53.2046   25.9963 H   0  0  0  0  0  0
    1.4680   52.8864   31.5730 H   0  0  0  0  0  0
    0.8052   53.5518   30.0863 H   0  0  0  0  0  0
    1.5668   51.9444   30.0905 H   0  0  0  0  0  0
    6.2204   52.1424   16.6518 H   0  0  0  0  0  0
    6.4115   52.5322   18.3516 H   0  0  0  0  0  0
    8.4264   51.2639   16.2210 H   0  0  0  0  0  0
   10.8454   51.6081   16.0207 H   0  0  0  0  0  0
   10.4550   55.4377   17.9621 H   0  0  0  0  0  0
    8.0342   55.0937   18.1341 H   0  0  0  0  0  0
    6.3761   54.0195   19.9935 H   0  0  0  0  0  0
  1  2  1  0  0  0
  1 41  1  0  0  0
  1 42  1  0  0  0
  1 43  1  0  0  0
  2  3  1  0  0  0
  3  8  2  0  0  0
  3  4  1  0  0  0
  4  5  2  0  0  0
  4 44  1  0  0  0
  5  6  1  0  0  0
  5 45  1  0  0  0
  6  7  2  0  0  0
  6 46  1  0  0  0
  7  8  1  0  0  0
  7  9  1  0  0  0
  8 47  1  0  0  0
  9 10  1  0  0  0
  9 11  1  0  0  0
  9 31  1  0  0  0
 11 12  1  0  0  0
 11 48  1  0  0  0
 11 49  1  0  0  0
 12 17  1  0  0  0
 12 13  1  0  0  0
 12 74  1  0  0  0
 13 14  1  0  0  0
 13 50  1  0  0  0
 13 51  1  0  0  0
 14 15  1  0  0  0
 14 52  1  0  0  0
 14 53  1  0  0  0
 15 16  1  0  0  0
 15 18  1  0  0  0
 16 17  1  0  0  0
 16 54  1  0  0  0
 16 55  1  0  0  0
 17 56  1  0  0  0
 17 57  1  0  0  0
 18 19  2  0  0  0
 18 20  1  0  0  0
 20 21  1  0  0  0
 20 58  1  0  0  0
 21 26  2  0  0  0
 21 22  1  0  0  0
 22 23  2  0  0  0
 22 59  1  0  0  0
 23 24  1  0  0  0
 23 60  1  0  0  0
 24 25  2  0  0  0
 24 29  1  0  0  0
 25 26  1  0  0  0
 25 61  1  0  0  0
 26 27  1  0  0  0
 27 28  1  0  0  0
 28 62  1  0  0  0
 28 63  1  0  0  0
 28 64  1  0  0  0
 29 30  1  0  0  0
 30 65  1  0  0  0
 30 66  1  0  0  0
 30 67  1  0  0  0
 31 32  1  0  0  0
 32 33  1  0  0  0
 32 68  1  0  0  0
 32 69  1  0  0  0
 33 38  2  0  0  0
 33 34  1  0  0  0
 34 35  2  0  0  0
 34 70  1  0  0  0
 35 36  1  0  0  0
 35 71  1  0  0  0
 36 37  2  0  0  0
 36 39  1  0  0  0
 37 38  1  0  0  0
 37 72  1  0  0  0
 38 73  1  0  0  0
 39 40  3  0  0  0
M  CHG  1  12   1
M  END
> <i_i_glide_confnum>
16

> <i_i_glide_lignum>
5682

> <i_i_glide_posenum>
221

> <i_i_glide_rotatable_bonds>
13

> <i_m_Source_File_Index>
1503

> <b_m_subgroup_collapsed>
0

> <r_i_docking_score>
-6.40222

> <r_i_glide_ecoul>
-5.26842

> <r_i_glide_eff_state_penalty>
0

> <r_i_glide_einternal>
13.2795

> <r_i_glide_emodel>
-69.2109

> <r_i_glide_energy>
-52.713

> <r_i_glide_erotb>
0.65667

> <r_i_glide_esite>
0

> <r_i_glide_evdw>
-47.4446

> <r_i_glide_gscore>
-6.40222

> <r_i_glide_hbond>
-0.508023

> <r_i_glide_ligand_efficiency>
-0.164159

> <r_i_glide_ligand_efficiency_ln>
-1.37282

> <r_i_glide_ligand_efficiency_sa>
-0.556699

> <r_i_glide_lipo>
-2.50589

> <r_i_glide_metal>
0

> <r_i_glide_rewards>
-0.882478

> <s_i_glide_gridfile>
wee1_glide-grid

> <s_m_Source_File>
wee1_decoys_glide_SP.sdf

> <s_m_Source_Path>
/Users/zhangxujun/Desktop

> <s_m_entry_id>
1778

> <s_m_entry_name>
wee1_decoys_glide_SP.1503

> <s_m_subgroup_title>
wee1_decoys_glide_SP

> <s_m_subgroupid>
wee1_decoys_glide_SP


$$$$
