@<TRIPOS>MOLECULE
ZINC13761675_5043
62   66    1
SMALL
USER_CHARGES


@<TRIPOS>ATOM
      1 C1          1.5900   53.5419   17.4608 C.ar      1 UNK         0.0000 
      2 C2          2.5729   52.5470   17.4575 C.ar      1 UNK         0.0000 
      3 C3          2.3028   51.3154   18.0606 C.ar      1 UNK         0.0000 
      4 N4          1.1031   51.1131   18.6456 N.pl3     1 UNK         0.0000 
      5 C5          0.1411   52.0596   18.6908 C.ar      1 UNK         0.0000 
      6 C6          0.3559   53.2973   18.0779 C.ar      1 UNK         0.0000 
      7 S7         -1.3893   51.5706   19.4969 S.o2      1 UNK         0.0000 
      8 O8         -2.4069   52.4319   18.8835 O.2       1 UNK         0.0000 
      9 O9         -1.4926   50.1265   19.2599 O.2       1 UNK         0.0000 
     10 N10        -1.1057   51.9910   20.9834 N.2       1 UNK         0.0000 
     11 C11        -0.5076   51.2056   21.9422 C.ar      1 UNK         0.0000 
     12 C12         0.2607   50.0555   21.6990 C.ar      1 UNK         0.0000 
     13 C13         0.8726   49.3542   22.7340 C.ar      1 UNK         0.0000 
     14 C14         0.7046   49.7670   24.0497 C.ar      1 UNK         0.0000 
     15 C15        -0.0644   50.8946   24.3405 C.ar      1 UNK         0.0000 
     16 C16        -0.6528   51.6030   23.2793 C.ar      1 UNK         0.0000 
     17 C17        -0.2352   51.3297   25.8073 C.3       1 UNK         0.0000 
     18 H18        -0.1819   50.3851   26.3572 H         1 UNK         0.0000 
     19 C19         0.9039   52.2218   26.3777 C.2       1 UNK         0.0000 
     20 C20         1.8091   52.9753   25.6778 C.2       1 UNK         0.0000 
     21 O21         1.7988   52.9934   24.3195 O.3       1 UNK         0.0000 
     22 C22         2.8014   53.8126   26.3572 C.2       1 UNK         0.0000 
     23 C23         2.7903   53.7931   27.7084 C.2       1 UNK         0.0000 
     24 O24         1.9301   53.0223   28.4199 O.3       1 UNK         0.0000 
     25 C25         0.9679   52.2238   27.8665 C.2       1 UNK         0.0000 
     26 O26         0.2782   51.6114   28.6768 O.2       1 UNK         0.0000 
     27 C27         3.5932   54.6711   28.6622 C.3       1 UNK         0.0000 
     28 C28         5.0766   54.2986   28.8819 C.3       1 UNK         0.0000 
     29 C29         6.0441   54.5603   27.7033 C.3       1 UNK         0.0000 
     30 C30         5.8895   53.6073   26.5026 C.3       1 UNK         0.0000 
     31 C31         5.1296   54.1765   25.2864 C.3       1 UNK         0.0000 
     32 C32         3.7284   54.7501   25.5778 C.3       1 UNK         0.0000 
     33 C33        -1.6558   51.8987   26.0782 C.3       1 UNK         0.0000 
     34 C34        -2.8746   51.0517   25.7821 C.3       1 UNK         0.0000 
     35 C35        -2.5010   51.3661   27.2139 C.3       1 UNK         0.0000 
     36 H36         1.7868   54.4985   16.9983 H         1 UNK         0.0000 
     37 H37         3.5347   52.7184   16.9929 H         1 UNK         0.0000 
     38 H38         3.0084   50.4954   18.0821 H         1 UNK         0.0000 
     39 H39        -0.4121   54.0560   18.0817 H         1 UNK         0.0000 
     40 H40         0.4139   49.6813   20.7027 H         1 UNK         0.0000 
     41 H41         1.4880   48.4976   22.5161 H         1 UNK         0.0000 
     42 H42         1.1837   49.2095   24.8415 H         1 UNK         0.0000 
     43 H43        -1.2390   52.4826   23.4967 H         1 UNK         0.0000 
     44 H44         1.1527   52.3512   24.0086 H         1 UNK         0.0000 
     45 H45         3.5086   55.6966   28.3275 H         1 UNK         0.0000 
     46 H46         3.0875   54.6687   29.6291 H         1 UNK         0.0000 
     47 H47         5.4373   54.8988   29.7208 H         1 UNK         0.0000 
     48 H48         5.1487   53.2587   29.2040 H         1 UNK         0.0000 
     49 H49         5.9947   55.6021   27.3836 H         1 UNK         0.0000 
     50 H50         7.0606   54.4391   28.0859 H         1 UNK         0.0000 
     51 H51         6.8824   53.3101   26.1632 H         1 UNK         0.0000 
     52 H52         5.4199   52.6813   26.8371 H         1 UNK         0.0000 
     53 H53         5.7355   54.9562   24.8227 H         1 UNK         0.0000 
     54 H54         5.0397   53.3928   24.5330 H         1 UNK         0.0000 
     55 H55         3.2609   55.0235   24.6308 H         1 UNK         0.0000 
     56 H56         3.8352   55.6966   26.0956 H         1 UNK         0.0000 
     57 H57        -1.7297   52.9601   25.8419 H         1 UNK         0.0000 
     58 H58        -3.7470   51.5338   25.3404 H         1 UNK         0.0000 
     59 H59        -2.7341   50.0341   25.4131 H         1 UNK         0.0000 
     60 H60        -2.1110   50.5617   27.8394 H         1 UNK         0.0000 
     61 H61        -3.1259   52.0571   27.7774 H         1 UNK         0.0000 
     62 H62         0.9031   50.2090   19.0529 H         1 UNK         0.0000 
@<TRIPOS>BOND
     1    1    6 ar   
     2    1    2 ar   
     3    1   36 1    
     4    2    3 ar   
     5    2   37 1    
     6    3    4 ar   
     7    3   38 1    
     8    4    5 ar   
     9    4   62 1    
    10    5    6 ar   
    11    5    7 1    
    12    6   39 1    
    13    7    8 2    
    14    7    9 2    
    15    7   10 1    
    16   10   11 1    
    17   11   16 ar   
    18   11   12 ar   
    19   12   13 ar   
    20   12   40 1    
    21   13   14 ar   
    22   13   41 1    
    23   14   15 ar   
    24   14   42 1    
    25   15   16 ar   
    26   15   17 1    
    27   16   43 1    
    28   17   18 1    
    29   17   33 1    
    30   17   19 1    
    31   19   25 1    
    32   19   20 2    
    33   20   21 1    
    34   20   22 1    
    35   21   44 1    
    36   22   32 1    
    37   22   23 2    
    38   23   27 1    
    39   23   24 1    
    40   24   25 1    
    41   25   26 2    
    42   27   28 1    
    43   27   45 1    
    44   27   46 1    
    45   28   29 1    
    46   28   47 1    
    47   28   48 1    
    48   29   30 1    
    49   29   49 1    
    50   29   50 1    
    51   30   31 1    
    52   30   51 1    
    53   30   52 1    
    54   31   32 1    
    55   31   53 1    
    56   31   54 1    
    57   32   55 1    
    58   32   56 1    
    59   33   35 1    
    60   33   34 1    
    61   33   57 1    
    62   34   35 1    
    63   34   58 1    
    64   34   59 1    
    65   35   60 1    
    66   35   61 1    
@<TRIPOS>SUBSTRUCTURE
     1 UNK         1 GROUP             0       ****    0 ROOT    
