ZINC09866533_3202
                    3D
 Schrodinger Suite 2024-2.
 54 58  0  0  1  0            999 V2000
   -2.4767   51.1110   26.7449 C   0  0  0  0  0  0
   -0.9825   51.0775   26.3200 C   0  0  2  0  0  0
   -0.8982   51.6250   24.8942 C   0  0  0  0  0  0
   -1.2045   52.7609   24.5244 O   0  0  0  0  0  0
   -0.5048   50.5870   24.1247 N   0  0  0  0  0  0
   -0.2804   49.4370   24.8096 C   0  0  0  0  0  0
    0.2100   48.3944   24.3835 O   0  0  0  0  0  0
   -0.5813   49.7162   26.0817 N   0  0  0  0  0  0
   -0.2809   50.7024   22.6671 C   0  0  0  0  0  0
    1.1019   51.3118   22.3266 C   0  0  0  0  0  0
    1.9041   51.6069   23.2104 O   0  0  0  0  0  0
    1.4198   51.5299   21.0393 N   0  0  0  0  0  0
    0.6464   51.1836   19.8422 C   0  0  2  0  0  0
   -0.3946   51.4388   20.0514 H   0  0  0  0  0  0
    0.6858   49.6854   19.5104 C   0  0  0  0  0  0
    1.8680   49.0760   19.0699 C   0  0  0  0  0  0
    1.8723   47.7275   18.7267 C   0  0  0  0  0  0
    0.7036   46.9789   18.8463 C   0  0  0  0  0  0
   -0.4736   47.5727   19.2890 C   0  0  0  0  0  0
   -0.4858   48.9257   19.6128 C   0  0  0  0  0  0
    0.7048   45.6659   18.5251 F   0  0  0  0  0  0
    1.0987   52.0551   18.6760 C   0  0  0  0  0  0
    2.3770   52.2564   18.1391 C   0  0  0  0  0  0
    2.4164   53.1308   17.0483 C   0  0  0  0  0  0
    1.1685   53.6221   16.7203 C   0  0  0  0  0  0
   -0.0595   52.9881   17.7610 S   0  0  0  0  0  0
   -0.0277   51.7518   27.3444 C   0  0  0  0  0  0
   -0.3289   51.6974   28.7277 C   0  0  0  0  0  0
    0.4778   52.3241   29.6864 C   0  0  0  0  0  0
    1.6097   52.9909   29.2369 C   0  0  0  0  0  0
    1.9284   53.0467   27.9119 C   0  0  0  0  0  0
    1.1360   52.4484   26.9383 C   0  0  0  0  0  0
    3.0636   53.7760   27.7529 O   0  0  0  0  0  0
    3.5500   54.0224   29.0476 C   0  0  0  0  0  0
    2.5347   53.6805   29.9571 O   0  0  0  0  0  0
   -2.8087   52.1250   26.9690 H   0  0  0  0  0  0
   -3.1423   50.7191   25.9744 H   0  0  0  0  0  0
   -2.6609   50.4968   27.6291 H   0  0  0  0  0  0
   -0.8690   49.0009   26.7474 H   0  0  0  0  0  0
   -1.0578   51.3338   22.2339 H   0  0  0  0  0  0
   -0.3682   49.7210   22.1950 H   0  0  0  0  0  0
    2.3535   51.8736   20.8677 H   0  0  0  0  0  0
    2.7863   49.6368   18.9698 H   0  0  0  0  0  0
    2.7839   47.2765   18.3627 H   0  0  0  0  0  0
   -1.3761   46.9848   19.3700 H   0  0  0  0  0  0
   -1.4091   49.3782   19.9399 H   0  0  0  0  0  0
    3.2698   51.7828   18.5228 H   0  0  0  0  0  0
    3.3230   53.3902   16.5229 H   0  0  0  0  0  0
    0.9117   54.3096   15.9293 H   0  0  0  0  0  0
   -1.1920   51.1548   29.0839 H   0  0  0  0  0  0
    0.2207   52.2737   30.7355 H   0  0  0  0  0  0
    1.4195   52.5245   25.8983 H   0  0  0  0  0  0
    3.8173   55.0796   29.1472 H   0  0  0  0  0  0
    4.4296   53.3911   29.2280 H   0  0  0  0  0  0
  1  2  1  0  0  0
  1 36  1  0  0  0
  1 37  1  0  0  0
  1 38  1  0  0  0
  2  8  1  0  0  0
  2  3  1  0  0  0
  2 27  1  0  0  0
  3  4  2  0  0  0
  3  5  1  0  0  0
  5  6  1  0  0  0
  5  9  1  0  0  0
  6  7  2  0  0  0
  6  8  1  0  0  0
  8 39  1  0  0  0
  9 10  1  0  0  0
  9 40  1  0  0  0
  9 41  1  0  0  0
 10 11  2  0  0  0
 10 12  1  0  0  0
 12 13  1  0  0  0
 12 42  1  0  0  0
 13 14  1  0  0  0
 13 15  1  0  0  0
 13 22  1  0  0  0
 15 20  2  0  0  0
 15 16  1  0  0  0
 16 17  2  0  0  0
 16 43  1  0  0  0
 17 18  1  0  0  0
 17 44  1  0  0  0
 18 19  2  0  0  0
 18 21  1  0  0  0
 19 20  1  0  0  0
 19 45  1  0  0  0
 20 46  1  0  0  0
 22 26  1  0  0  0
 22 23  2  0  0  0
 23 24  1  0  0  0
 23 47  1  0  0  0
 24 25  2  0  0  0
 24 48  1  0  0  0
 25 26  1  0  0  0
 25 49  1  0  0  0
 27 32  2  0  0  0
 27 28  1  0  0  0
 28 29  2  0  0  0
 28 50  1  0  0  0
 29 30  1  0  0  0
 29 51  1  0  0  0
 30 35  1  0  0  0
 30 31  2  0  0  0
 31 32  1  0  0  0
 31 33  1  0  0  0
 32 52  1  0  0  0
 33 34  1  0  0  0
 34 35  1  0  0  0
 34 53  1  0  0  0
 34 54  1  0  0  0
M  END
> <i_i_glide_confnum>
83

> <i_i_glide_lignum>
3203

> <i_i_glide_posenum>
286

> <i_i_glide_rotatable_bonds>
7

> <i_m_Source_File_Index>
60

> <b_m_subgroup_collapsed>
0

> <r_i_docking_score>
-2.22009

> <r_i_glide_ecoul>
-5.29469

> <r_i_glide_eff_state_penalty>
0

> <r_i_glide_einternal>
7.87052

> <r_i_glide_emodel>
-41.3502

> <r_i_glide_energy>
-42.7567

> <r_i_glide_erotb>
0.612524

> <r_i_glide_esite>
-0.150637

> <r_i_glide_evdw>
-37.462

> <r_i_glide_gscore>
-2.22009

> <r_i_glide_hbond>
-0.427695

> <r_i_glide_ligand_efficiency>
-0.0652968

> <r_i_glide_ligand_efficiency_ln>
-0.49048

> <r_i_glide_ligand_efficiency_sa>
-0.211536

> <r_i_glide_lipo>
-0.495529

> <r_i_glide_metal>
0

> <r_i_glide_rewards>
0.90855

> <s_i_glide_gridfile>
wee1_glide-grid

> <s_m_Source_File>
wee1_decoys_glide_SP.sdf

> <s_m_Source_Path>
/Users/zhangxujun/Desktop

> <s_m_entry_id>
335

> <s_m_entry_name>
wee1_decoys_glide_SP.60

> <s_m_subgroup_title>
wee1_decoys_glide_SP

> <s_m_subgroupid>
wee1_decoys_glide_SP


$$$$
