@<TRIPOS>MOLECULE
ZINC12782472_2658
55   57    1
SMALL
USER_CHARGES


@<TRIPOS>ATOM
      1 C1          6.8823   55.3000   24.8477 C.3       1 UNK         0.0000 
      2 C2          5.6427   54.6756   24.2218 C.2       1 UNK         0.0000 
      3 C3          5.4453   54.4967   22.8257 C.ar      1 UNK         0.0000 
      4 C4          6.3036   54.8967   21.6922 C.ar      1 UNK         0.0000 
      5 O5          7.3665   55.5102   21.6810 O.2       1 UNK         0.0000 
      6 N6          5.7570   54.5095   20.5004 N.pl3     1 UNK         0.0000 
      7 H7          6.3224   54.7483   19.7025 H         1 UNK         0.0000 
      8 C8          4.5583   53.8665   20.2882 C.ar      1 UNK         0.0000 
      9 N9          3.7832   53.5678   21.2705 N.2       1 UNK         0.0000 
     10 C10         4.2161   53.9055   22.5181 C.ar      1 UNK         0.0000 
     11 S11         3.2151   53.6967   23.8970 S.3       1 UNK         0.0000 
     12 C12         4.4978   54.2664   24.9457 C.2       1 UNK         0.0000 
     13 C13         4.2734   54.2797   26.4023 C.2       1 UNK         0.0000 
     14 O14         4.9894   54.8962   27.1879 O.2       1 UNK         0.0000 
     15 O15         3.2050   53.5084   26.7568 O.3       1 UNK         0.0000 
     16 C16         2.7354   53.2997   28.1032 C.3       1 UNK         0.0000 
     17 H17         2.2713   54.2241   28.4497 H         1 UNK         0.0000 
     18 C18         3.8439   52.9018   29.1206 C.3       1 UNK         0.0000 
     19 C19         1.5752   52.2623   28.0777 C.2       1 UNK         0.0000 
     20 O20         1.2351   51.6971   29.1169 O.2       1 UNK         0.0000 
     21 N21         0.9693   52.0198   26.8983 N.am      1 UNK         0.0000 
     22 C22        -0.0417   50.9886   26.6129 C.3       1 UNK         0.0000 
     23 H23         0.3713   50.0664   27.0272 H         1 UNK         0.0000 
     24 C24        -1.4353   51.2114   27.2536 C.3       1 UNK         0.0000 
     25 C25        -2.1925   52.3946   26.6190 C.3       1 UNK         0.0000 
     26 C26        -2.2800   52.2589   25.0853 C.3       1 UNK         0.0000 
     27 C27        -0.8974   52.0175   24.4292 C.3       1 UNK         0.0000 
     28 H28        -0.2746   52.8838   24.6637 H         1 UNK         0.0000 
     29 C29        -0.2278   50.7633   25.0798 C.3       1 UNK         0.0000 
     30 H30        -0.9569   49.9547   24.9766 H         1 UNK         0.0000 
     31 C31         1.0496   50.2684   24.3654 C.3       1 UNK         0.0000 
     32 C32        -1.0129   51.9489   22.8930 C.3       1 UNK         0.0000 
     33 C33         4.1687   53.5139   18.8704 C.3       1 UNK         0.0000 
     34 H34         7.5014   55.8588   24.1495 H         1 UNK         0.0000 
     35 H35         6.6209   56.0192   25.6224 H         1 UNK         0.0000 
     36 H36         7.5031   54.5449   25.3269 H         1 UNK         0.0000 
     37 H37         3.4340   52.5770   30.0776 H         1 UNK         0.0000 
     38 H38         4.4644   52.0961   28.7361 H         1 UNK         0.0000 
     39 H39         4.5021   53.7392   29.3492 H         1 UNK         0.0000 
     40 H40         1.3415   52.5040   26.0963 H         1 UNK         0.0000 
     41 H41        -1.3375   51.3579   28.3300 H         1 UNK         0.0000 
     42 H42        -2.0329   50.3054   27.1419 H         1 UNK         0.0000 
     43 H43        -1.6845   53.3180   26.8802 H         1 UNK         0.0000 
     44 H44        -3.1949   52.4702   27.0429 H         1 UNK         0.0000 
     45 H45        -2.7425   53.1514   24.6604 H         1 UNK         0.0000 
     46 H46        -2.9569   51.4436   24.8232 H         1 UNK         0.0000 
     47 H47         1.8060   51.0513   24.3073 H         1 UNK         0.0000 
     48 H48         0.8383   49.9406   23.3483 H         1 UNK         0.0000 
     49 H49         1.4857   49.4121   24.8820 H         1 UNK         0.0000 
     50 H50        -1.5489   51.0553   22.5735 H         1 UNK         0.0000 
     51 H51        -1.5478   52.8145   22.5002 H         1 UNK         0.0000 
     52 H52        -0.0308   51.9414   22.4171 H         1 UNK         0.0000 
     53 H53         3.1748   53.8966   18.6363 H         1 UNK         0.0000 
     54 H54         4.8640   53.9233   18.1353 H         1 UNK         0.0000 
     55 H55         4.1462   52.4309   18.7376 H         1 UNK         0.0000 
@<TRIPOS>BOND
     1    1    2 1    
     2    1   34 1    
     3    1   35 1    
     4    1   36 1    
     5    2   12 2    
     6    2    3 1    
     7    3   10 ar   
     8    3    4 ar   
     9    4    5 2    
    10    4    6 ar   
    11    6    7 1    
    12    6    8 ar   
    13    8    9 ar   
    14    8   33 1    
    15    9   10 ar   
    16   10   11 1    
    17   11   12 1    
    18   12   13 1    
    19   13   14 2    
    20   13   15 1    
    21   15   16 1    
    22   16   17 1    
    23   16   18 1    
    24   16   19 1    
    25   18   37 1    
    26   18   38 1    
    27   18   39 1    
    28   19   20 2    
    29   19   21 am   BACKBONE|DICT|INTERRES
    30   21   22 1    
    31   21   40 1    
    32   22   23 1    
    33   22   29 1    
    34   22   24 1    
    35   24   25 1    
    36   24   41 1    
    37   24   42 1    
    38   25   26 1    
    39   25   43 1    
    40   25   44 1    
    41   26   27 1    
    42   26   45 1    
    43   26   46 1    
    44   27   28 1    
    45   27   29 1    
    46   27   32 1    
    47   29   30 1    
    48   29   31 1    
    49   31   47 1    
    50   31   48 1    
    51   31   49 1    
    52   32   50 1    
    53   32   51 1    
    54   32   52 1    
    55   33   53 1    
    56   33   54 1    
    57   33   55 1    
@<TRIPOS>SUBSTRUCTURE
     1 UNK         1 GROUP             0       ****    0 ROOT    
