ZINC59403776_1340
                    3D
 Schrodinger Suite 2024-2.
 50 53  0  0  1  0            999 V2000
    1.6930   52.8082   28.1331 C   0  0  0  0  0  0
    2.4428   53.2279   27.0339 C   0  0  0  0  0  0
    3.7610   53.6959   27.2235 C   0  0  0  0  0  0
    4.2524   53.7379   28.5723 C   0  0  0  0  0  0
    3.5045   53.3012   29.6703 C   0  0  0  0  0  0
    2.2171   52.8375   29.4199 C   0  0  0  0  0  0
    1.4656   52.3996   30.4540 F   0  0  0  0  0  0
    5.5232   54.2563   28.5220 N   0  0  0  0  0  0
    6.1493   54.4467   29.2933 H   0  0  0  0  0  0
    5.8737   54.4958   27.2255 C   0  0  0  0  0  0
    4.8470   54.1413   26.3607 C   0  0  0  0  0  0
    4.9746   54.2332   24.8939 C   0  0  0  0  0  0
    3.9217   54.0965   24.0532 C   0  0  0  0  0  0
    3.9965   54.1223   22.5266 C   0  0  0  0  0  0
    5.3615   54.6971   22.0819 N   0  3  1  0  0  0
    6.5145   54.0341   22.8634 C   0  0  0  0  0  0
    6.3844   54.4669   24.3337 C   0  0  0  0  0  0
    5.5553   54.6500   20.5424 C   0  0  0  0  0  0
    6.4660   55.8144   20.1075 C   0  0  0  0  0  0
    6.7043   56.7454   20.8821 O   0  0  0  0  0  0
    6.9590   55.7807   18.8580 N   0  0  0  0  0  0
    7.8125   56.8386   18.3132 C   0  0  2  0  0  0
    7.4195   57.8299   18.5639 H   0  0  0  0  0  0
    7.8802   56.7593   16.7733 C   0  0  0  0  0  0
    8.9481   57.7535   16.2858 C   0  0  0  0  0  0
   10.2988   57.6796   17.5854 S   0  0  0  0  0  0
   10.5458   59.0357   18.0864 O   0  0  0  0  0  0
   11.4048   56.8388   17.1205 O   0  0  0  0  0  0
    9.2623   56.7234   18.8153 C   0  0  0  0  0  0
    0.6902   52.4314   27.9870 H   0  0  0  0  0  0
    1.9982   53.1453   26.0578 H   0  0  0  0  0  0
    3.9025   53.2956   30.6715 H   0  0  0  0  0  0
    6.8570   54.8963   27.0299 H   0  0  0  0  0  0
    2.9423   53.9548   24.4681 H   0  0  0  0  0  0
    3.2296   54.7648   22.0882 H   0  0  0  0  0  0
    3.9103   53.1132   22.1183 H   0  0  0  0  0  0
    6.4286   52.9547   22.7252 H   0  0  0  0  0  0
    7.4578   54.4086   22.4602 H   0  0  0  0  0  0
    7.1382   53.9428   24.9211 H   0  0  0  0  0  0
    6.6111   55.5318   24.4039 H   0  0  0  0  0  0
    4.5675   54.8043   20.1046 H   0  0  0  0  0  0
    5.9043   53.6567   20.2604 H   0  0  0  0  0  0
    6.7072   55.0265   18.2349 H   0  0  0  0  0  0
    6.9066   56.9710   16.3267 H   0  0  0  0  0  0
    8.1311   55.7444   16.4576 H   0  0  0  0  0  0
    8.5259   58.7581   16.3226 H   0  0  0  0  0  0
    9.3645   57.6023   15.2910 H   0  0  0  0  0  0
    9.5623   55.6910   18.6335 H   0  0  0  0  0  0
    9.5078   56.8971   19.8613 H   0  0  0  0  0  0
    5.3829   55.6832   22.3132 H   0  0  0  0  0  0
  1  6  2  0  0  0
  1  2  1  0  0  0
  1 30  1  0  0  0
  2  3  2  0  0  0
  2 31  1  0  0  0
  3 11  1  0  0  0
  3  4  1  0  0  0
  4  5  2  0  0  0
  4  8  1  0  0  0
  5  6  1  0  0  0
  5 32  1  0  0  0
  6  7  1  0  0  0
  8  9  1  0  0  0
  8 10  1  0  0  0
 10 11  2  0  0  0
 10 33  1  0  0  0
 11 12  1  0  0  0
 12 17  1  0  0  0
 12 13  2  0  0  0
 13 14  1  0  0  0
 13 34  1  0  0  0
 14 15  1  0  0  0
 14 35  1  0  0  0
 14 36  1  0  0  0
 15 16  1  0  0  0
 15 18  1  0  0  0
 15 50  1  0  0  0
 16 17  1  0  0  0
 16 37  1  0  0  0
 16 38  1  0  0  0
 17 39  1  0  0  0
 17 40  1  0  0  0
 18 19  1  0  0  0
 18 41  1  0  0  0
 18 42  1  0  0  0
 19 20  2  0  0  0
 19 21  1  0  0  0
 21 22  1  0  0  0
 21 43  1  0  0  0
 22 23  1  0  0  0
 22 29  1  0  0  0
 22 24  1  0  0  0
 24 25  1  0  0  0
 24 44  1  0  0  0
 24 45  1  0  0  0
 25 26  1  0  0  0
 25 46  1  0  0  0
 25 47  1  0  0  0
 26 27  2  0  0  0
 26 28  2  0  0  0
 26 29  1  0  0  0
 29 48  1  0  0  0
 29 49  1  0  0  0
M  CHG  1  15   1
M  END
> <i_i_glide_confnum>
4

> <i_i_glide_lignum>
1341

> <i_i_glide_posenum>
362

> <i_i_glide_rotatable_bonds>
5

> <i_m_Source_File_Index>
5844

> <b_m_subgroup_collapsed>
0

> <r_i_docking_score>
-6.51473

> <r_i_glide_ecoul>
-4.69956

> <r_i_glide_eff_state_penalty>
0

> <r_i_glide_einternal>
1.67205

> <r_i_glide_emodel>
-61.7428

> <r_i_glide_energy>
-43.2361

> <r_i_glide_erotb>
0.50704

> <r_i_glide_esite>
-0.0483567

> <r_i_glide_evdw>
-38.5366

> <r_i_glide_gscore>
-6.51473

> <r_i_glide_hbond>
-0.32

> <r_i_glide_ligand_efficiency>
-0.241286

> <r_i_glide_ligand_efficiency_ln>
-1.51652

> <r_i_glide_ligand_efficiency_sa>
-0.723859

> <r_i_glide_lipo>
-3.03777

> <r_i_glide_metal>
0

> <r_i_glide_rewards>
-0.983882

> <s_i_glide_gridfile>
wee1_glide-grid

> <s_m_Source_File>
wee1_decoys_glide_SP.sdf

> <s_m_Source_Path>
/Users/zhangxujun/Desktop

> <s_m_entry_id>
6119

> <s_m_entry_name>
wee1_decoys_glide_SP.5844

> <s_m_subgroup_title>
wee1_decoys_glide_SP

> <s_m_subgroupid>
wee1_decoys_glide_SP


$$$$
