@<TRIPOS>MOLECULE
ZINC15070972_158
68   72    1
SMALL
USER_CHARGES


@<TRIPOS>ATOM
      1 C1          2.2454   53.7520   23.4401 C.3       1 UNK         0.0000 
      2 C2          3.7459   53.9757   23.5764 C.2       1 UNK         0.0000 
      3 C3          4.3940   54.1644   24.8529 C.ar      1 UNK         0.0000 
      4 C4          3.9354   54.0986   26.1980 C.ar      1 UNK         0.0000 
      5 N5          4.7769   54.3774   27.2302 N.ar      1 UNK         0.0000 
      6 C6          6.0574   54.6914   26.9356 C.ar      1 UNK         0.0000 
      7 N7          6.6189   54.7692   25.7073 N.ar      1 UNK         0.0000 
      8 C8          5.7771   54.4980   24.7054 C.ar      1 UNK         0.0000 
      9 S9          6.2919   54.4972   23.0400 S.3       1 UNK         0.0000 
     10 C10         4.6851   54.0012   22.5350 C.2       1 UNK         0.0000 
     11 C11         4.4956   53.7550   21.1260 C.2       1 UNK         0.0000 
     12 O12         5.1043   54.3851   20.2628 O.2       1 UNK         0.0000 
     13 N13         3.7096   52.6965   20.8695 N.am      1 UNK         0.0000 
     14 C14         3.5859   52.0059   19.5815 C.3       1 UNK         0.0000 
     15 C15         2.2879   52.2581   18.7314 C.3       1 UNK         0.0000 
     16 C16         2.1522   51.1985   17.5928 C.3       1 UNK         0.0000 
     17 C17         1.9045   49.7590   18.1116 C.3       1 UNK         0.0000 
     18 C18         0.7235   49.6750   19.1010 C.3       1 UNK         0.0000 
     19 C19         0.8141   50.7326   20.2213 C.3       1 UNK         0.0000 
     20 C20         1.0123   52.1460   19.6307 C.3       1 UNK         0.0000 
     21 C21         1.0865   54.1284   17.2792 C.3       1 UNK         0.0000 
     22 C22         1.1906   55.5955   16.8227 C.3       1 UNK         0.0000 
     23 C23         2.4726   55.8780   16.0330 C.3       1 UNK         0.0000 
     24 C24         3.7043   55.4507   16.8343 C.3       1 UNK         0.0000 
     25 C25         3.6407   53.9696   17.2382 C.3       1 UNK         0.0000 
     26 N26         2.6098   53.6965   26.4732 N.pl3     1 UNK         0.0000 
     27 C27         1.9414   53.7101   27.7835 C.3       1 UNK         0.0000 
     28 H28         0.9526   53.2601   27.6758 H         1 UNK         0.0000 
     29 C29         1.7667   55.1163   28.3475 C.3       1 UNK         0.0000 
     30 C30         2.4918   55.1003   29.6876 C.3       1 UNK         0.0000 
     31 O31         2.4925   53.7358   30.0817 O.3       1 UNK         0.0000 
     32 C32         2.6414   52.9291   28.9166 C.3       1 UNK         0.0000 
     33 H33         1.6734   54.5011   23.9897 H         1 UNK         0.0000 
     34 H34         1.8919   53.8299   22.4132 H         1 UNK         0.0000 
     35 H35         1.9461   52.7710   23.8074 H         1 UNK         0.0000 
     36 H36         6.7041   54.8953   27.7744 H         1 UNK         0.0000 
     37 H37         3.2133   52.2913   21.6480 H         1 UNK         0.0000 
     38 H38         3.6183   50.9575   19.8670 H         1 UNK         0.0000 
     39 H39         4.4966   52.0968   18.9956 H         1 UNK         0.0000 
     40 H40         3.0245   51.2202   16.9392 H         1 UNK         0.0000 
     41 H41         1.3066   51.4280   16.9476 H         1 UNK         0.0000 
     42 H42         2.8063   49.3690   18.5826 H         1 UNK         0.0000 
     43 H43         1.7293   49.0927   17.2652 H         1 UNK         0.0000 
     44 H44         0.6737   48.6756   19.5350 H         1 UNK         0.0000 
     45 H45        -0.2092   49.8126   18.5537 H         1 UNK         0.0000 
     46 H46         1.6270   50.4829   20.9026 H         1 UNK         0.0000 
     47 H47        -0.0927   50.7059   20.8263 H         1 UNK         0.0000 
     48 H48         0.1100   52.3434   19.0570 H         1 UNK         0.0000 
     49 H49         1.0197   52.8963   20.4186 H         1 UNK         0.0000 
     50 H50         0.9662   53.4594   16.4278 H         1 UNK         0.0000 
     51 H51         0.2242   54.0728   17.9399 H         1 UNK         0.0000 
     52 H52         0.3258   55.8424   16.2068 H         1 UNK         0.0000 
     53 H53         1.1332   56.2606   17.6817 H         1 UNK         0.0000 
     54 H54         2.5353   56.9403   15.7880 H         1 UNK         0.0000 
     55 H55         2.4482   55.3481   15.0783 H         1 UNK         0.0000 
     56 H56         3.8036   56.0685   17.7292 H         1 UNK         0.0000 
     57 H57         4.6062   55.6297   16.2456 H         1 UNK         0.0000 
     58 H58         4.5228   53.7924   17.8457 H         1 UNK         0.0000 
     59 H59         3.6399   53.2992   16.3790 H         1 UNK         0.0000 
     60 H60         1.9889   53.7650   25.6789 H         1 UNK         0.0000 
     61 H61         2.1899   55.8979   27.7179 H         1 UNK         0.0000 
     62 H62         0.7060   55.3256   28.5001 H         1 UNK         0.0000 
     63 H63         3.5227   55.4501   29.6216 H         1 UNK         0.0000 
     64 H64         2.0043   55.7235   30.4387 H         1 UNK         0.0000 
     65 H65         2.1838   51.9530   29.0825 H         1 UNK         0.0000 
     66 H66         3.6986   52.7254   28.7527 H         1 UNK         0.0000 
     67 N67         2.3565   53.6967   18.0817 N.4       1 UNK         0.0000 
     68 H68         2.3977   54.3294   18.8753 H         1 UNK         0.0000 
@<TRIPOS>BOND
     1    1    2 1    
     2    1   33 1    
     3    1   34 1    
     4    1   35 1    
     5    2   10 2    
     6    2    3 1    
     7    3    8 ar   
     8    3    4 ar   
     9    4    5 ar   
    10    4   26 1    
    11    5    6 ar   
    12    6    7 ar   
    13    6   36 1    
    14    7    8 ar   
    15    8    9 1    
    16    9   10 1    
    17   10   11 1    
    18   11   12 2    
    19   11   13 am   BACKBONE|DICT|INTERRES
    20   13   14 1    
    21   13   37 1    
    22   14   15 1    
    23   14   38 1    
    24   14   39 1    
    25   15   20 1    
    26   15   16 1    
    27   15   67 1    
    28   16   17 1    
    29   16   40 1    
    30   16   41 1    
    31   17   18 1    
    32   17   42 1    
    33   17   43 1    
    34   18   19 1    
    35   18   44 1    
    36   18   45 1    
    37   19   20 1    
    38   19   46 1    
    39   19   47 1    
    40   20   48 1    
    41   20   49 1    
    42   21   22 1    
    43   21   50 1    
    44   21   51 1    
    45   21   67 1    
    46   22   23 1    
    47   22   52 1    
    48   22   53 1    
    49   23   24 1    
    50   23   54 1    
    51   23   55 1    
    52   24   25 1    
    53   24   56 1    
    54   24   57 1    
    55   25   58 1    
    56   25   59 1    
    57   25   67 1    
    58   26   27 1    
    59   26   60 1    
    60   27   28 1    
    61   27   32 1    
    62   27   29 1    
    63   29   30 1    
    64   29   61 1    
    65   29   62 1    
    66   30   31 1    
    67   30   63 1    
    68   30   64 1    
    69   31   32 1    
    70   32   65 1    
    71   32   66 1    
    72   67   68 1    
@<TRIPOS>SUBSTRUCTURE
     1 UNK         1 GROUP             0       ****    0 ROOT    
