ZINC14740943_112
                    3D
 Schrodinger Suite 2024-2.
 66 70  0  0  1  0            999 V2000
    1.1715   56.0312   30.6249 C   0  0  0  0  0  0
    1.7926   55.0528   29.7449 N   0  0  0  0  0  0
    1.2600   53.8802   29.2820 C   0  0  0  0  0  0
    2.2496   53.3109   28.4862 C   0  0  0  0  0  0
    3.3430   54.2062   28.5646 C   0  0  0  0  0  0
    3.0281   55.2678   29.2815 N   0  0  0  0  0  0
    4.6266   54.0957   27.9011 C   0  0  0  0  0  0
    5.5999   53.7124   28.5488 O   0  0  0  0  0  0
    4.7198   54.5863   26.6361 N   0  0  0  0  0  0
    6.0302   54.9530   26.0699 C   0  0  0  0  0  0
    6.2582   54.2712   24.7064 C   0  0  0  0  0  0
    5.0050   54.0965   23.8496 C   0  0  0  0  0  0
    5.1112   53.6645   22.5243 C   0  0  0  0  0  0
    3.9813   53.4227   21.7486 C   0  0  0  0  0  0
    2.7181   53.6276   22.2943 C   0  0  0  0  0  0
    2.5938   54.0954   23.5969 C   0  0  0  0  0  0
    3.7238   54.3381   24.3880 C   0  0  0  0  0  0
    3.5609   54.8965   25.7935 C   0  0  0  0  0  0
    1.9864   52.0422   27.6926 C   0  0  0  0  0  0
    0.4604   51.9115   27.4441 C   0  0  2  0  0  0
    0.1344   52.6886   26.7500 H   0  0  0  0  0  0
   -0.3194   51.9929   28.7834 C   0  0  0  0  0  0
   -0.1444   53.3411   29.5345 C   0  0  0  0  0  0
   -1.0429   50.3727   25.9375 C   0  0  0  0  0  0
   -0.6870   49.5987   24.6459 C   0  0  0  0  0  0
   -1.9535   49.1974   23.8280 C   0  0  0  0  0  0
   -1.7430   48.8144   22.3473 C   0  0  0  0  0  0
   -0.8327   49.8015   21.6100 C   0  0  0  0  0  0
    0.5318   49.8743   22.3027 C   0  0  0  0  0  0
    0.4204   50.2915   23.7830 C   0  0  0  0  0  0
   -0.0958   48.3319   24.8815 O   0  0  0  0  0  0
    0.7044   55.5111   31.4624 H   0  0  0  0  0  0
    1.9049   56.7380   31.0134 H   0  0  0  0  0  0
    0.4155   56.5894   30.0817 H   0  0  0  0  0  0
    6.0088   56.0268   25.8852 H   0  0  0  0  0  0
    6.8786   54.8256   26.7457 H   0  0  0  0  0  0
    6.6919   53.2972   24.9020 H   0  0  0  0  0  0
    7.0324   54.8022   24.1532 H   0  0  0  0  0  0
    6.0848   53.4915   22.0953 H   0  0  0  0  0  0
    4.0812   53.0770   20.7304 H   0  0  0  0  0  0
    1.8381   53.4501   21.6905 H   0  0  0  0  0  0
    1.6089   54.2842   23.9960 H   0  0  0  0  0  0
    3.5045   55.9775   25.7172 H   0  0  0  0  0  0
    2.6240   54.5217   26.2070 H   0  0  0  0  0  0
    2.5134   52.0968   26.7421 H   0  0  0  0  0  0
    2.3835   51.1739   28.2171 H   0  0  0  0  0  0
    0.0393   51.1949   29.4368 H   0  0  0  0  0  0
   -1.3745   51.7495   28.6458 H   0  0  0  0  0  0
   -0.3190   53.1861   30.6011 H   0  0  0  0  0  0
   -0.8890   54.0608   29.1983 H   0  0  0  0  0  0
   -1.7777   49.8585   26.5573 H   0  0  0  0  0  0
   -1.4097   51.3748   25.7156 H   0  0  0  0  0  0
   -2.5275   48.4220   24.3404 H   0  0  0  0  0  0
   -2.6282   50.0556   23.8361 H   0  0  0  0  0  0
   -1.3046   47.8161   22.2956 H   0  0  0  0  0  0
   -2.7045   48.7432   21.8386 H   0  0  0  0  0  0
   -0.7080   49.4926   20.5703 H   0  0  0  0  0  0
   -1.2943   50.7915   21.5827 H   0  0  0  0  0  0
    1.0202   48.8992   22.2402 H   0  0  0  0  0  0
    1.1814   50.5679   21.7696 H   0  0  0  0  0  0
    0.2161   51.3632   23.7942 H   0  0  0  0  0  0
    1.4004   50.2127   24.2563 H   0  0  0  0  0  0
   -0.6063   47.8527   25.5404 H   0  0  0  0  0  0
    0.2172   50.5255   26.8125 N   0  3  0  0  0  0
    1.0090   50.3009   26.2266 H   0  0  0  0  0  0
    0.2049   49.8110   27.5312 H   0  0  0  0  0  0
  1  2  1  0  0  0
  1 32  1  0  0  0
  1 33  1  0  0  0
  1 34  1  0  0  0
  2  6  1  0  0  0
  2  3  1  0  0  0
  3 23  1  0  0  0
  3  4  2  0  0  0
  4  5  1  0  0  0
  4 19  1  0  0  0
  5  6  2  0  0  0
  5  7  1  0  0  0
  7  8  2  0  0  0
  7  9  1  0  0  0
  9 18  1  0  0  0
  9 10  1  0  0  0
 10 11  1  0  0  0
 10 35  1  0  0  0
 10 36  1  0  0  0
 11 12  1  0  0  0
 11 37  1  0  0  0
 11 38  1  0  0  0
 12 17  2  0  0  0
 12 13  1  0  0  0
 13 14  2  0  0  0
 13 39  1  0  0  0
 14 15  1  0  0  0
 14 40  1  0  0  0
 15 16  2  0  0  0
 15 41  1  0  0  0
 16 17  1  0  0  0
 16 42  1  0  0  0
 17 18  1  0  0  0
 18 43  1  0  0  0
 18 44  1  0  0  0
 19 20  1  0  0  0
 19 45  1  0  0  0
 19 46  1  0  0  0
 20 21  1  0  0  0
 20 22  1  0  0  0
 20 64  1  0  0  0
 22 23  1  0  0  0
 22 47  1  0  0  0
 22 48  1  0  0  0
 23 49  1  0  0  0
 23 50  1  0  0  0
 24 25  1  0  0  0
 24 51  1  0  0  0
 24 52  1  0  0  0
 24 64  1  0  0  0
 25 30  1  0  0  0
 25 26  1  0  0  0
 25 31  1  0  0  0
 26 27  1  0  0  0
 26 53  1  0  0  0
 26 54  1  0  0  0
 27 28  1  0  0  0
 27 55  1  0  0  0
 27 56  1  0  0  0
 28 29  1  0  0  0
 28 57  1  0  0  0
 28 58  1  0  0  0
 29 30  1  0  0  0
 29 59  1  0  0  0
 29 60  1  0  0  0
 30 61  1  0  0  0
 30 62  1  0  0  0
 31 63  1  0  0  0
 64 65  1  0  0  0
 64 66  1  0  0  0
M  CHG  1  64   1
M  END
> <i_i_glide_confnum>
385

> <i_i_glide_lignum>
113

> <i_i_glide_posenum>
284

> <i_i_glide_rotatable_bonds>
6

> <i_m_Source_File_Index>
1481

> <b_m_subgroup_collapsed>
0

> <r_i_docking_score>
-6.31924

> <r_i_glide_ecoul>
-0.366317

> <r_i_glide_eff_state_penalty>
0

> <r_i_glide_einternal>
17.813

> <r_i_glide_emodel>
-53.6128

> <r_i_glide_energy>
-42.8073

> <r_i_glide_erotb>
0.552375

> <r_i_glide_esite>
-0.064517

> <r_i_glide_evdw>
-42.441

> <r_i_glide_gscore>
-6.31924

> <r_i_glide_hbond>
-0.0298899

> <r_i_glide_ligand_efficiency>
-0.203846

> <r_i_glide_ligand_efficiency_ln>
-1.42518

> <r_i_glide_ligand_efficiency_sa>
-0.640359

> <r_i_glide_lipo>
-3.02982

> <r_i_glide_metal>
0

> <r_i_glide_rewards>
-1.57039

> <s_i_glide_gridfile>
wee1_glide-grid

> <s_m_Source_File>
wee1_decoys_glide_SP.sdf

> <s_m_Source_Path>
/Users/zhangxujun/Desktop

> <s_m_entry_id>
1756

> <s_m_entry_name>
wee1_decoys_glide_SP.1481

> <s_m_subgroup_title>
wee1_decoys_glide_SP

> <s_m_subgroupid>
wee1_decoys_glide_SP


$$$$
