ZINC39608998_892
                    3D
 Schrodinger Suite 2024-2.
 77 81  0  0  1  0            999 V2000
   -2.3919   45.9391   21.2266 C   0  0  0  0  0  0
   -2.2261   47.2257   22.0706 C   0  0  2  0  0  0
   -3.1583   47.7917   22.0760 H   0  0  0  0  0  0
   -1.1840   48.2290   21.4977 C   0  0  0  0  0  0
   -0.5172   47.9082   20.5091 O   0  0  0  0  0  0
   -1.0581   49.4568   22.0649 N   0  0  0  0  0  0
   -0.0794   50.4489   21.5970 C   0  0  0  0  0  0
   -0.1477   51.5858   22.6577 C   0  0  1  0  0  0
   -0.8249   52.3631   22.3019 H   0  0  0  0  0  0
   -0.7102   50.8771   23.9285 C   0  0  0  0  0  0
   -1.6971   49.8677   23.3088 C   0  0  0  0  0  0
    0.4240   50.1706   24.7394 C   0  0  0  0  0  0
   -0.0942   49.3130   25.8847 C   0  0  0  0  0  0
   -0.9096   50.2235   26.8234 N   0  3  0  0  0  0
   -2.0228   51.0411   26.1258 C   0  0  0  0  0  0
   -1.4105   51.8233   24.9383 C   0  0  0  0  0  0
    1.2684   52.2057   22.8434 C   0  0  0  0  0  0
    2.2864   51.5724   22.5562 O   0  0  0  0  0  0
    1.3152   53.4520   23.3529 N   0  0  0  0  0  0
    2.5302   54.2138   23.6981 C   0  0  2  0  0  0
    2.2692   55.2281   24.0087 H   0  0  0  0  0  0
    3.5687   54.3306   22.5532 C   0  0  0  0  0  0
    4.9548   54.0964   23.1733 C   0  0  0  0  0  0
    4.7518   54.1561   24.6890 C   0  0  0  0  0  0
    3.3216   53.6546   24.9047 C   0  0  1  0  0  0
    3.2802   52.5658   24.9018 H   0  0  0  0  0  0
    2.8797   54.1084   26.1827 O   0  0  0  0  0  0
    1.9069   53.2965   26.8270 C   0  0  0  0  0  0
    1.5055   53.8422   28.1930 C   0  0  0  0  0  0
    0.7078   53.0532   29.0284 C   0  0  0  0  0  0
    0.3117   53.5323   30.2753 C   0  0  0  0  0  0
    0.7046   54.8053   30.6773 C   0  0  0  0  0  0
    1.5051   55.5987   29.8579 C   0  0  0  0  0  0
    1.9079   55.1144   28.6175 C   0  0  0  0  0  0
   -1.8440   46.8724   23.4103 O   0  0  0  0  0  0
   -2.7992   46.5037   24.3454 C   0  0  0  0  0  0
   -4.1676   46.3378   24.0683 C   0  0  0  0  0  0
   -5.0493   45.9641   25.0810 C   0  0  0  0  0  0
   -4.5752   45.7655   26.3729 C   0  0  0  0  0  0
   -3.2250   45.9323   26.6655 C   0  0  0  0  0  0
   -2.3444   46.2928   25.6471 C   0  0  0  0  0  0
   -2.6487   46.1714   20.1922 H   0  0  0  0  0  0
   -1.4664   45.3587   21.2188 H   0  0  0  0  0  0
   -3.1785   45.2926   21.6142 H   0  0  0  0  0  0
    0.8804   49.9276   21.6280 H   0  0  0  0  0  0
   -0.3098   50.8097   20.5926 H   0  0  0  0  0  0
   -2.5978   50.4255   23.0477 H   0  0  0  0  0  0
   -1.9912   49.0897   24.0072 H   0  0  0  0  0  0
    1.0012   49.5118   24.0862 H   0  0  0  0  0  0
    1.1300   50.8978   25.1319 H   0  0  0  0  0  0
   -0.7480   48.5047   25.5751 H   0  0  0  0  0  0
    0.7093   48.8895   26.4889 H   0  0  0  0  0  0
   -1.2955   49.5744   27.5266 H   0  0  0  0  0  0
   -2.7805   50.3184   25.8236 H   0  0  0  0  0  0
   -2.4437   51.6943   26.8929 H   0  0  0  0  0  0
   -0.7488   52.6127   25.2804 H   0  0  0  0  0  0
   -2.2208   52.3501   24.4300 H   0  0  0  0  0  0
    0.4427   53.8964   23.5922 H   0  0  0  0  0  0
    3.4135   53.6145   21.7468 H   0  0  0  0  0  0
    3.5026   55.3026   22.0819 H   0  0  0  0  0  0
    5.6922   54.8229   22.8307 H   0  0  0  0  0  0
    5.3220   53.1105   22.8878 H   0  0  0  0  0  0
    4.8701   55.1717   25.0685 H   0  0  0  0  0  0
    5.4784   53.5189   25.1947 H   0  0  0  0  0  0
    1.0195   53.2502   26.2056 H   0  0  0  0  0  0
    2.2975   52.2854   26.9589 H   0  0  0  0  0  0
    0.3980   52.0644   28.7235 H   0  0  0  0  0  0
   -0.2982   52.9209   30.9282 H   0  0  0  0  0  0
    0.3999   55.1733   31.6479 H   0  0  0  0  0  0
    1.8095   56.5852   30.1845 H   0  0  0  0  0  0
    2.5314   55.7280   27.9870 H   0  0  0  0  0  0
   -4.5717   46.4872   23.0809 H   0  0  0  0  0  0
   -6.1013   45.8372   24.8648 H   0  0  0  0  0  0
   -5.2575   45.4814   27.1612 H   0  0  0  0  0  0
   -2.8587   45.7817   27.6722 H   0  0  0  0  0  0
   -1.2976   46.4059   25.8825 H   0  0  0  0  0  0
   -0.2818   50.8358   27.3190 H   0  0  0  0  0  0
  1  2  1  0  0  0
  1 42  1  0  0  0
  1 43  1  0  0  0
  1 44  1  0  0  0
  2  3  1  0  0  0
  2  4  1  0  0  0
  2 35  1  0  0  0
  4  5  2  0  0  0
  4  6  1  0  0  0
  6 11  1  0  0  0
  6  7  1  0  0  0
  7  8  1  0  0  0
  7 45  1  0  0  0
  7 46  1  0  0  0
  8  9  1  0  0  0
  8 10  1  0  0  0
  8 17  1  0  0  0
 10 16  1  0  0  0
 10 11  1  0  0  0
 10 12  1  0  0  0
 11 47  1  0  0  0
 11 48  1  0  0  0
 12 13  1  0  0  0
 12 49  1  0  0  0
 12 50  1  0  0  0
 13 14  1  0  0  0
 13 51  1  0  0  0
 13 52  1  0  0  0
 14 15  1  0  0  0
 14 53  1  0  0  0
 14 77  1  0  0  0
 15 16  1  0  0  0
 15 54  1  0  0  0
 15 55  1  0  0  0
 16 56  1  0  0  0
 16 57  1  0  0  0
 17 18  2  0  0  0
 17 19  1  0  0  0
 19 20  1  0  0  0
 19 58  1  0  0  0
 20 21  1  0  0  0
 20 25  1  0  0  0
 20 22  1  0  0  0
 22 23  1  0  0  0
 22 59  1  0  0  0
 22 60  1  0  0  0
 23 24  1  0  0  0
 23 61  1  0  0  0
 23 62  1  0  0  0
 24 25  1  0  0  0
 24 63  1  0  0  0
 24 64  1  0  0  0
 25 26  1  0  0  0
 25 27  1  0  0  0
 27 28  1  0  0  0
 28 29  1  0  0  0
 28 65  1  0  0  0
 28 66  1  0  0  0
 29 34  2  0  0  0
 29 30  1  0  0  0
 30 31  2  0  0  0
 30 67  1  0  0  0
 31 32  1  0  0  0
 31 68  1  0  0  0
 32 33  2  0  0  0
 32 69  1  0  0  0
 33 34  1  0  0  0
 33 70  1  0  0  0
 34 71  1  0  0  0
 35 36  1  0  0  0
 36 41  2  0  0  0
 36 37  1  0  0  0
 37 38  2  0  0  0
 37 72  1  0  0  0
 38 39  1  0  0  0
 38 73  1  0  0  0
 39 40  2  0  0  0
 39 74  1  0  0  0
 40 41  1  0  0  0
 40 75  1  0  0  0
 41 76  1  0  0  0
M  CHG  1  14   1
M  END
> <i_i_glide_confnum>
2

> <i_i_glide_lignum>
893

> <i_i_glide_posenum>
316

> <i_i_glide_rotatable_bonds>
10

> <i_m_Source_File_Index>
2647

> <b_m_subgroup_collapsed>
0

> <r_i_docking_score>
-5.53038

> <r_i_glide_ecoul>
-6.77838

> <r_i_glide_eff_state_penalty>
0

> <r_i_glide_einternal>
5.61064

> <r_i_glide_emodel>
-66.2848

> <r_i_glide_energy>
-49.573

> <r_i_glide_erotb>
0.717385

> <r_i_glide_esite>
-0.1

> <r_i_glide_evdw>
-42.7947

> <r_i_glide_gscore>
-5.53038

> <r_i_glide_hbond>
-0.181573

> <r_i_glide_ligand_efficiency>
-0.14947

> <r_i_glide_ligand_efficiency_ln>
-1.19941

> <r_i_glide_ligand_efficiency_sa>
-0.498066

> <r_i_glide_lipo>
-2.65279

> <r_i_glide_metal>
0

> <r_i_glide_rewards>
-0.156906

> <s_i_glide_gridfile>
wee1_glide-grid

> <s_m_Source_File>
wee1_decoys_glide_SP.sdf

> <s_m_Source_Path>
/Users/zhangxujun/Desktop

> <s_m_entry_id>
2922

> <s_m_entry_name>
wee1_decoys_glide_SP.2647

> <s_m_subgroup_title>
wee1_decoys_glide_SP

> <s_m_subgroupid>
wee1_decoys_glide_SP


$$$$
