@<TRIPOS>MOLECULE
ZINC36188741_3017
62   65    1
SMALL
USER_CHARGES


@<TRIPOS>ATOM
      1 C1          1.6690   50.1820   22.3636 C.3       1 UNK         0.0000 
      2 C2          2.4253   49.8783   21.0643 C.3       1 UNK         0.0000 
      3 O3          2.7557   51.0505   20.3209 O.3       1 UNK         0.0000 
      4 C4          3.7736   51.8748   20.6681 C.2       1 UNK         0.0000 
      5 O5          4.4609   51.7240   21.6815 O.2       1 UNK         0.0000 
      6 C6          3.9790   52.9933   19.7114 C.2       1 UNK         0.0000 
      7 C7          3.4305   53.1091   18.3873 C.2       1 UNK         0.0000 
      8 C8          3.8926   54.2662   17.7278 C.2       1 UNK         0.0000 
      9 S9          4.8551   55.2831   18.7288 S.3       1 UNK         0.0000 
     10 C10         4.7871   54.1165   20.0154 C.2       1 UNK         0.0000 
     11 N11         5.4494   54.3195   21.2275 N.am      1 UNK         0.0000 
     12 C12         6.3082   55.2951   21.5983 C.2       1 UNK         0.0000 
     13 O13         6.7025   56.2154   20.8809 O.2       1 UNK         0.0000 
     14 C14         6.8866   55.1780   23.0133 C.3       1 UNK         0.0000 
     15 O15         5.8809   54.7537   23.9411 O.3       1 UNK         0.0000 
     16 C16         6.0675   54.8708   25.2832 C.2       1 UNK         0.0000 
     17 O17         7.1043   55.3086   25.7821 O.2       1 UNK         0.0000 
     18 C18         4.9239   54.3548   26.1041 C.ar      1 UNK         0.0000 
     19 C19         5.0936   54.2187   27.4896 C.ar      1 UNK         0.0000 
     20 C20         4.1030   53.6987   28.3223 C.ar      1 UNK         0.0000 
     21 C21         2.9155   53.2876   27.7123 C.ar      1 UNK         0.0000 
     22 C22         2.6923   53.4252   26.3100 C.ar      1 UNK         0.0000 
     23 C23         3.7022   53.9919   25.5162 C.ar      1 UNK         0.0000 
     24 C24         1.3823   52.9039   26.0353 C.ar      1 UNK         0.0000 
     25 C25         0.8851   52.4259   27.2398 C.ar      1 UNK         0.0000 
     26 N26         1.7839   52.7007   28.2378 N.pl3     1 UNK         0.0000 
     27 H27         1.6021   52.4610   29.2005 H         1 UNK         0.0000 
     28 C28        -0.4819   51.7976   27.4598 C.3       1 UNK         0.0000 
     29 C29        -1.3636   52.0691   26.2172 C.3       1 UNK         0.0000 
     30 C30        -0.6002   51.8769   24.8877 C.3       1 UNK         0.0000 
     31 C31         0.5926   52.8532   24.7334 C.3       1 UNK         0.0000 
     32 C32         3.6024   54.7487   16.4056 C.2       1 UNK         0.0000 
     33 O33         3.2453   55.9081   16.2022 O.2       1 UNK         0.0000 
     34 N34         3.7948   53.8334   15.4428 N.am      1 UNK         0.0000 
     35 C35         3.5866   54.0659   14.0180 C.3       1 UNK         0.0000 
     36 C36         2.4774   52.1036   17.7400 C.3       1 UNK         0.0000 
     37 H37         1.3464   49.2610   22.8491 H         1 UNK         0.0000 
     38 H38         0.7817   50.7857   22.1748 H         1 UNK         0.0000 
     39 H39         2.3048   50.7122   23.0715 H         1 UNK         0.0000 
     40 H40         3.3184   49.2977   21.2817 H         1 UNK         0.0000 
     41 H41         1.8012   49.2514   20.4271 H         1 UNK         0.0000 
     42 H42         5.2822   53.5897   21.9079 H         1 UNK         0.0000 
     43 H43         7.6311   54.3840   22.9616 H         1 UNK         0.0000 
     44 H44         7.4038   56.0929   23.3109 H         1 UNK         0.0000 
     45 H45         6.0282   54.5134   27.9492 H         1 UNK         0.0000 
     46 H46         4.2684   53.5959   29.3846 H         1 UNK         0.0000 
     47 H47         3.5407   54.0947   24.4525 H         1 UNK         0.0000 
     48 H48        -0.3690   50.7190   27.5880 H         1 UNK         0.0000 
     49 H49        -0.9626   52.1676   28.3654 H         1 UNK         0.0000 
     50 H50        -2.2365   51.4156   26.2444 H         1 UNK         0.0000 
     51 H51        -1.7535   53.0877   26.2645 H         1 UNK         0.0000 
     52 H52        -0.2376   50.8491   24.8312 H         1 UNK         0.0000 
     53 H53        -1.2809   51.9979   24.0446 H         1 UNK         0.0000 
     54 H54         0.2312   53.8499   24.4819 H         1 UNK         0.0000 
     55 H55         1.2258   52.5491   23.9016 H         1 UNK         0.0000 
     56 H56         4.1412   52.9253   15.7151 H         1 UNK         0.0000 
     57 H57         3.0097   53.2452   13.5917 H         1 UNK         0.0000 
     58 H58         3.0490   54.9943   13.8174 H         1 UNK         0.0000 
     59 H59         4.5477   54.1091   13.5050 H         1 UNK         0.0000 
     60 H60         2.1535   52.3492   16.7294 H         1 UNK         0.0000 
     61 H61         2.9240   51.1080   17.7010 H         1 UNK         0.0000 
     62 H62         1.5646   51.9958   18.3260 H         1 UNK         0.0000 
@<TRIPOS>BOND
     1    1    2 1    
     2    1   37 1    
     3    1   38 1    
     4    1   39 1    
     5    2    3 1    
     6    2   40 1    
     7    2   41 1    
     8    3    4 1    
     9    4    5 2    
    10    4    6 1    
    11    6   10 2    
    12    6    7 1    
    13    7    8 2    
    14    7   36 1    
    15    8    9 1    
    16    8   32 1    
    17    9   10 1    
    18   10   11 am   BACKBONE|DICT|INTERRES
    19   11   12 am   BACKBONE|DICT|INTERRES
    20   11   42 1    
    21   12   13 2    
    22   12   14 1    
    23   14   15 1    
    24   14   43 1    
    25   14   44 1    
    26   15   16 1    
    27   16   17 2    
    28   16   18 1    
    29   18   23 ar   
    30   18   19 ar   
    31   19   20 ar   
    32   19   45 1    
    33   20   21 ar   
    34   20   46 1    
    35   21   26 ar   
    36   21   22 ar   
    37   22   23 ar   
    38   22   24 ar   
    39   23   47 1    
    40   24   31 1    
    41   24   25 ar   
    42   25   26 ar   
    43   25   28 1    
    44   26   27 1    
    45   28   29 1    
    46   28   48 1    
    47   28   49 1    
    48   29   30 1    
    49   29   50 1    
    50   29   51 1    
    51   30   31 1    
    52   30   52 1    
    53   30   53 1    
    54   31   54 1    
    55   31   55 1    
    56   32   33 2    
    57   32   34 am   BACKBONE|DICT|INTERRES
    58   34   35 1    
    59   34   56 1    
    60   35   57 1    
    61   35   58 1    
    62   35   59 1    
    63   36   60 1    
    64   36   61 1    
    65   36   62 1    
@<TRIPOS>SUBSTRUCTURE
     1 UNK         1 GROUP             0       ****    0 ROOT    
