ZINC44785803_1691
                    3D
 Schrodinger Suite 2024-2.
 45 46  0  0  1  0            999 V2000
    3.8234   53.5215   27.3705 C   0  0  0  0  0  0
    2.4238   53.4772   28.0526 C   0  0  0  0  0  0
    2.6320   52.6325   29.3568 C   0  0  0  0  0  0
    1.4374   52.3427   30.0724 O   0  0  0  0  0  0
    0.4527   51.6991   29.2819 C   0  0  0  0  0  0
    0.0851   52.5671   28.0754 C   0  0  0  0  0  0
    1.3208   52.7751   27.2812 N   0  0  0  0  0  0
    1.2258   52.8151   25.9068 C   0  0  0  0  0  0
    1.8399   53.6968   25.2999 O   0  0  0  0  0  0
    0.3280   51.8181   25.0382 C   0  0  0  0  0  0
    0.1631   50.3939   25.7253 C   0  0  0  0  0  0
   -0.9133   49.5043   25.0617 C   0  0  0  0  0  0
   -2.2714   50.2237   24.9847 C   0  0  0  0  0  0
   -2.1647   51.5799   24.2635 C   0  0  0  0  0  0
   -1.0946   52.4965   24.9022 C   0  0  0  0  0  0
    0.9874   51.6494   23.5937 C   0  0  0  0  0  0
    0.6758   52.4986   22.6835 N   0  0  0  0  0  0
    1.3239   52.3102   21.4401 O   0  0  0  0  0  0
    1.8602   50.5811   23.4454 N   0  0  0  0  0  0
    2.0176   54.9047   28.5051 C   0  0  0  0  0  0
    4.6054   53.8190   28.0706 H   0  0  0  0  0  0
    4.1054   52.5534   26.9641 H   0  0  0  0  0  0
    3.8687   54.2437   26.5547 H   0  0  0  0  0  0
    3.3316   53.1227   30.0353 H   0  0  0  0  0  0
    3.0905   51.6780   29.0888 H   0  0  0  0  0  0
   -0.4339   51.4783   29.8805 H   0  0  0  0  0  0
    0.8369   50.7473   28.9263 H   0  0  0  0  0  0
   -0.2236   53.5470   28.4397 H   0  0  0  0  0  0
   -0.7763   52.1355   27.5802 H   0  0  0  0  0  0
   -0.1323   50.4453   26.7669 H   0  0  0  0  0  0
    1.1017   49.8392   25.7658 H   0  0  0  0  0  0
   -1.0231   48.5779   25.6293 H   0  0  0  0  0  0
   -0.5947   49.2063   24.0612 H   0  0  0  0  0  0
   -2.6536   50.3773   25.9980 H   0  0  0  0  0  0
   -2.9978   49.5879   24.4758 H   0  0  0  0  0  0
   -3.1342   52.0796   24.2760 H   0  0  0  0  0  0
   -1.9323   51.4119   23.2107 H   0  0  0  0  0  0
   -1.0368   53.4270   24.3343 H   0  0  0  0  0  0
   -1.4919   52.8205   25.8597 H   0  0  0  0  0  0
    1.1045   53.1197   20.9624 H   0  0  0  0  0  0
    2.2830   50.4484   22.5393 H   0  0  0  0  0  0
    1.9292   49.8416   24.1291 H   0  0  0  0  0  0
    2.8656   55.4534   28.9193 H   0  0  0  0  0  0
    1.6232   55.4908   27.6819 H   0  0  0  0  0  0
    1.2494   54.8941   29.2801 H   0  0  0  0  0  0
  1  2  1  0  0  0
  1 21  1  0  0  0
  1 22  1  0  0  0
  1 23  1  0  0  0
  2  7  1  0  0  0
  2  3  1  0  0  0
  2 20  1  0  0  0
  3  4  1  0  0  0
  3 24  1  0  0  0
  3 25  1  0  0  0
  4  5  1  0  0  0
  5  6  1  0  0  0
  5 26  1  0  0  0
  5 27  1  0  0  0
  6  7  1  0  0  0
  6 28  1  0  0  0
  6 29  1  0  0  0
  7  8  1  0  0  0
  8  9  2  0  0  0
  8 10  1  0  0  0
 10 15  1  0  0  0
 10 11  1  0  0  0
 10 16  1  0  0  0
 11 12  1  0  0  0
 11 30  1  0  0  0
 11 31  1  0  0  0
 12 13  1  0  0  0
 12 32  1  0  0  0
 12 33  1  0  0  0
 13 14  1  0  0  0
 13 34  1  0  0  0
 13 35  1  0  0  0
 14 15  1  0  0  0
 14 36  1  0  0  0
 14 37  1  0  0  0
 15 38  1  0  0  0
 15 39  1  0  0  0
 16 17  2  0  0  0
 16 19  1  0  0  0
 17 18  1  0  0  0
 18 40  1  0  0  0
 19 41  1  0  0  0
 19 42  1  0  0  0
 20 43  1  0  0  0
 20 44  1  0  0  0
 20 45  1  0  0  0
M  END
> <i_i_glide_confnum>
35

> <i_i_glide_lignum>
1692

> <i_i_glide_posenum>
144

> <i_i_glide_rotatable_bonds>
4

> <i_m_Source_File_Index>
1443

> <b_m_subgroup_collapsed>
0

> <r_i_docking_score>
-3.37546

> <r_i_glide_ecoul>
-3.58968

> <r_i_glide_eff_state_penalty>
0

> <r_i_glide_einternal>
5.76911

> <r_i_glide_emodel>
-31.5838

> <r_i_glide_energy>
-30.9737

> <r_i_glide_erotb>
0.902118

> <r_i_glide_esite>
-0.00944624

> <r_i_glide_evdw>
-27.3841

> <r_i_glide_gscore>
-3.37546

> <r_i_glide_hbond>
-0.117437

> <r_i_glide_ligand_efficiency>
-0.168773

> <r_i_glide_ligand_efficiency_ln>
-0.844767

> <r_i_glide_ligand_efficiency_sa>
-0.458121

> <r_i_glide_lipo>
-1.02668

> <r_i_glide_metal>
0

> <r_i_glide_rewards>
-1.21637

> <s_i_glide_gridfile>
wee1_glide-grid

> <s_m_Source_File>
wee1_decoys_glide_SP.sdf

> <s_m_Source_Path>
/Users/zhangxujun/Desktop

> <s_m_entry_id>
1718

> <s_m_entry_name>
wee1_decoys_glide_SP.1443

> <s_m_subgroup_title>
wee1_decoys_glide_SP

> <s_m_subgroupid>
wee1_decoys_glide_SP


$$$$
