@<TRIPOS>MOLECULE
ZINC62954207_4816
43   45    1
SMALL
USER_CHARGES


@<TRIPOS>ATOM
      1 C1          3.3357   54.1022   22.5991 C.ar      1 UNK         0.0000 
      2 C2          2.9474   54.1103   23.9368 C.ar      1 UNK         0.0000 
      3 C3          3.8902   54.0933   24.9776 C.ar      1 UNK         0.0000 
      4 C4          5.2580   54.0971   24.6199 C.ar      1 UNK         0.0000 
      5 C5          5.6375   54.1016   23.2750 C.ar      1 UNK         0.0000 
      6 C6          4.6888   54.0962   22.2435 C.ar      1 UNK         0.0000 
      7 C7          5.1048   54.0532   20.8194 C.2       1 UNK         0.0000 
      8 N8          5.8811   54.8961   20.2508 N.2       1 UNK         0.0000 
      9 O9          6.3043   55.9897   21.0418 O.3       1 UNK         0.0000 
     10 N10         4.5738   52.9435   20.2037 N.pl3     1 UNK         0.0000 
     11 Cl11        6.5399   54.0140   25.7860 Cl        1 UNK         0.0000 
     12 N12         3.4639   53.9096   26.2962 N.pl3     1 UNK         0.0000 
     13 C13         2.1768   53.2536   26.6088 C.3       1 UNK         0.0000 
     14 C14         2.2090   52.5330   27.9728 C.3       1 UNK         0.0000 
     15 C15         2.5966   53.4599   29.1454 C.3       1 UNK         0.0000 
     16 C16         2.6868   52.6299   30.4371 C.3       1 UNK         0.0000 
     17 C17         1.2577   52.5783   30.9932 C.3       1 UNK         0.0000 
     18 C18         0.5544   53.8471   30.4836 C.3       1 UNK         0.0000 
     19 C19         1.5145   54.5105   29.4824 C.3       1 UNK         0.0000 
     20 C20         3.9616   54.0518   28.7320 C.3       1 UNK         0.0000 
     21 C21         3.8533   54.8139   27.3917 C.3       1 UNK         0.0000 
     22 H22         2.5714   54.0981   21.8335 H         1 UNK         0.0000 
     23 H23         1.8898   54.1014   24.1548 H         1 UNK         0.0000 
     24 H24         6.6927   54.0738   23.0355 H         1 UNK         0.0000 
     25 H25         5.8591   55.8294   21.8779 H         1 UNK         0.0000 
     26 H26         4.8195   52.7252   19.2468 H         1 UNK         0.0000 
     27 H27         3.9553   52.3189   20.6963 H         1 UNK         0.0000 
     28 H28         1.3748   53.9892   26.5609 H         1 UNK         0.0000 
     29 H29         1.9636   52.4963   25.8523 H         1 UNK         0.0000 
     30 H30         1.2361   52.0758   28.1600 H         1 UNK         0.0000 
     31 H31         2.8968   51.6949   27.9076 H         1 UNK         0.0000 
     32 H32         3.1382   51.6518   30.2775 H         1 UNK         0.0000 
     33 H33         3.3564   53.1129   31.1471 H         1 UNK         0.0000 
     34 H34         0.7430   51.6971   30.6084 H         1 UNK         0.0000 
     35 H35         1.2427   52.5051   32.0814 H         1 UNK         0.0000 
     36 H36        -0.3882   53.5871   29.9994 H         1 UNK         0.0000 
     37 H37         0.3118   54.5246   31.3044 H         1 UNK         0.0000 
     38 H38         1.9833   55.3708   29.9633 H         1 UNK         0.0000 
     39 H39         1.0128   54.9174   28.6046 H         1 UNK         0.0000 
     40 H40         4.7271   53.2759   28.6603 H         1 UNK         0.0000 
     41 H41         4.3228   54.7304   29.5059 H         1 UNK         0.0000 
     42 H42         4.8053   55.2978   27.1884 H         1 UNK         0.0000 
     43 H43         3.1036   55.6021   27.4608 H         1 UNK         0.0000 
@<TRIPOS>BOND
     1    1    6 ar   
     2    1    2 ar   
     3    1   22 1    
     4    2    3 ar   
     5    2   23 1    
     6    3    4 ar   
     7    3   12 1    
     8    4    5 ar   
     9    4   11 1    
    10    5    6 ar   
    11    5   24 1    
    12    6    7 1    
    13    7    8 2    
    14    7   10 1    
    15    8    9 1    
    16    9   25 1    
    17   10   26 1    
    18   10   27 1    
    19   12   21 1    
    20   12   13 1    
    21   13   14 1    
    22   13   28 1    
    23   13   29 1    
    24   14   15 1    
    25   14   30 1    
    26   14   31 1    
    27   15   19 1    
    28   15   16 1    
    29   15   20 1    
    30   16   17 1    
    31   16   32 1    
    32   16   33 1    
    33   17   18 1    
    34   17   34 1    
    35   17   35 1    
    36   18   19 1    
    37   18   36 1    
    38   18   37 1    
    39   19   38 1    
    40   19   39 1    
    41   20   21 1    
    42   20   40 1    
    43   20   41 1    
    44   21   42 1    
    45   21   43 1    
@<TRIPOS>SUBSTRUCTURE
     1 UNK         1 GROUP             0       ****    0 ROOT    
