ZINC65074858_3093
                    3D
 Schrodinger Suite 2024-2.
 71 74  0  0  1  0            999 V2000
    0.0852   52.5558   29.5210 C   0  0  0  0  0  0
    0.4410   53.6632   28.5090 C   0  0  0  0  0  0
    1.1038   54.8550   29.2307 C   0  0  0  0  0  0
    1.3430   53.1692   27.3495 C   0  0  0  0  0  0
    0.7192   52.1353   26.4137 C   0  0  0  0  0  0
    0.2089   52.5227   25.1744 C   0  0  0  0  0  0
   -0.3114   51.5749   24.3024 C   0  0  0  0  0  0
   -0.2711   50.2245   24.6416 C   0  0  0  0  0  0
    0.2230   49.8276   25.8888 C   0  0  0  0  0  0
    0.7040   50.7891   26.7747 C   0  0  0  0  0  0
   -0.8635   49.0216   23.4528 S   0  0  0  0  0  0
   -0.4962   47.6963   23.9700 O   0  0  0  0  0  0
   -2.2629   49.3699   23.1857 O   0  0  0  0  0  0
    0.0797   49.3236   21.9718 N   0  0  0  0  0  0
   -0.4158   50.2565   20.9237 C   0  0  0  0  0  0
    0.5171   51.4719   20.7178 C   0  0  0  0  0  0
    2.0112   51.0887   20.5359 C   0  0  0  0  0  0
    2.4108   50.1981   21.7470 C   0  0  0  0  0  0
    1.5171   48.9662   21.9329 C   0  0  0  0  0  0
    2.8700   52.3592   20.4396 C   0  0  0  0  0  0
    3.1596   52.9457   19.2711 N   0  3  0  0  0  0
    2.9241   52.3629   17.9527 C   0  0  0  0  0  0
    2.0247   51.1228   18.0675 C   0  0  0  0  0  0
    2.3044   50.3671   19.2825 N   0  0  0  0  0  0
    3.3059   52.8780   21.5950 N   0  0  0  0  0  0
    4.0997   54.0880   21.8001 C   0  0  0  0  0  0
    4.7874   54.0965   23.1574 C   0  0  0  0  0  0
    6.1797   54.1015   23.2161 C   0  0  0  0  0  0
    6.8235   54.1050   24.4469 C   0  0  0  0  0  0
    6.0943   54.1188   25.6355 C   0  0  0  0  0  0
    4.6914   54.1225   25.5739 C   0  0  0  0  0  0
    4.0412   54.1053   24.3392 C   0  0  0  0  0  0
    6.8320   54.1372   26.8034 O   0  0  0  0  0  0
    6.1584   54.0937   28.0558 C   0  0  0  0  0  0
    0.9790   52.0934   29.9421 H   0  0  0  0  0  0
   -0.5129   51.7668   29.0637 H   0  0  0  0  0  0
   -0.5010   52.9478   30.3539 H   0  0  0  0  0  0
   -0.4956   54.0291   28.0834 H   0  0  0  0  0  0
    2.0853   54.5879   29.6260 H   0  0  0  0  0  0
    1.2359   55.7018   28.5532 H   0  0  0  0  0  0
    0.4960   55.2025   30.0677 H   0  0  0  0  0  0
    1.6590   54.0229   26.7472 H   0  0  0  0  0  0
    2.2700   52.7550   27.7491 H   0  0  0  0  0  0
    0.2173   53.5610   24.8785 H   0  0  0  0  0  0
   -0.7332   51.8883   23.3613 H   0  0  0  0  0  0
    0.2333   48.7840   26.1781 H   0  0  0  0  0  0
    1.0965   50.4965   27.7351 H   0  0  0  0  0  0
   -0.5389   49.6845   20.0022 H   0  0  0  0  0  0
   -1.4153   50.5980   21.1959 H   0  0  0  0  0  0
    0.1598   52.0742   19.8848 H   0  0  0  0  0  0
    0.4462   52.1406   21.5718 H   0  0  0  0  0  0
    2.3537   50.7618   22.6774 H   0  0  0  0  0  0
    3.4510   49.8915   21.6537 H   0  0  0  0  0  0
    1.7736   48.4967   22.8804 H   0  0  0  0  0  0
    1.6741   48.2252   21.1474 H   0  0  0  0  0  0
    2.4936   53.1166   17.2944 H   0  0  0  0  0  0
    3.9058   52.0864   17.5626 H   0  0  0  0  0  0
    0.9726   51.4050   18.0192 H   0  0  0  0  0  0
    2.2139   50.4817   17.2048 H   0  0  0  0  0  0
    3.2577   50.0240   19.2108 H   0  0  0  0  0  0
    3.0528   52.3734   22.4313 H   0  0  0  0  0  0
    4.8380   54.1303   20.9980 H   0  0  0  0  0  0
    3.4327   54.9415   21.6825 H   0  0  0  0  0  0
    6.7703   54.1025   22.3137 H   0  0  0  0  0  0
    7.9037   54.0967   24.4780 H   0  0  0  0  0  0
    4.0962   54.1306   26.4722 H   0  0  0  0  0  0
    2.9615   54.1087   24.3059 H   0  0  0  0  0  0
    6.8940   54.0886   28.8590 H   0  0  0  0  0  0
    5.5221   54.9672   28.1999 H   0  0  0  0  0  0
    5.5573   53.1873   28.1567 H   0  0  0  0  0  0
    3.6891   53.8048   19.3170 H   0  0  0  0  0  0
  1  2  1  0  0  0
  1 35  1  0  0  0
  1 36  1  0  0  0
  1 37  1  0  0  0
  2  3  1  0  0  0
  2  4  1  0  0  0
  2 38  1  0  0  0
  3 39  1  0  0  0
  3 40  1  0  0  0
  3 41  1  0  0  0
  4  5  1  0  0  0
  4 42  1  0  0  0
  4 43  1  0  0  0
  5 10  2  0  0  0
  5  6  1  0  0  0
  6  7  2  0  0  0
  6 44  1  0  0  0
  7  8  1  0  0  0
  7 45  1  0  0  0
  8  9  2  0  0  0
  8 11  1  0  0  0
  9 10  1  0  0  0
  9 46  1  0  0  0
 10 47  1  0  0  0
 11 12  2  0  0  0
 11 13  2  0  0  0
 11 14  1  0  0  0
 14 19  1  0  0  0
 14 15  1  0  0  0
 15 16  1  0  0  0
 15 48  1  0  0  0
 15 49  1  0  0  0
 16 17  1  0  0  0
 16 50  1  0  0  0
 16 51  1  0  0  0
 17 24  1  0  0  0
 17 18  1  0  0  0
 17 20  1  0  0  0
 18 19  1  0  0  0
 18 52  1  0  0  0
 18 53  1  0  0  0
 19 54  1  0  0  0
 19 55  1  0  0  0
 20 21  2  0  0  0
 20 25  1  0  0  0
 21 22  1  0  0  0
 21 71  1  0  0  0
 22 23  1  0  0  0
 22 56  1  0  0  0
 22 57  1  0  0  0
 23 24  1  0  0  0
 23 58  1  0  0  0
 23 59  1  0  0  0
 24 60  1  0  0  0
 25 26  1  0  0  0
 25 61  1  0  0  0
 26 27  1  0  0  0
 26 62  1  0  0  0
 26 63  1  0  0  0
 27 32  2  0  0  0
 27 28  1  0  0  0
 28 29  2  0  0  0
 28 64  1  0  0  0
 29 30  1  0  0  0
 29 65  1  0  0  0
 30 31  2  0  0  0
 30 33  1  0  0  0
 31 32  1  0  0  0
 31 66  1  0  0  0
 32 67  1  0  0  0
 33 34  1  0  0  0
 34 68  1  0  0  0
 34 69  1  0  0  0
 34 70  1  0  0  0
M  CHG  1  21   1
M  END
> <i_i_glide_confnum>
195

> <i_i_glide_lignum>
3094

> <i_i_glide_posenum>
367

> <i_i_glide_rotatable_bonds>
8

> <i_m_Source_File_Index>
5395

> <b_m_subgroup_collapsed>
0

> <r_i_docking_score>
-4.19887

> <r_i_glide_ecoul>
-2.22083

> <r_i_glide_eff_state_penalty>
0

> <r_i_glide_einternal>
4.57088

> <r_i_glide_emodel>
-50.496

> <r_i_glide_energy>
-41.9006

> <r_i_glide_erotb>
0.516814

> <r_i_glide_esite>
-0.0783473

> <r_i_glide_evdw>
-39.6798

> <r_i_glide_gscore>
-4.19887

> <r_i_glide_hbond>
-0.0206122

> <r_i_glide_ligand_efficiency>
-0.123496

> <r_i_glide_ligand_efficiency_ln>
-0.927647

> <r_i_glide_ligand_efficiency_sa>
-0.400079

> <r_i_glide_lipo>
-3.00963

> <r_i_glide_metal>
0

> <r_i_glide_rewards>
0.710026

> <s_i_glide_gridfile>
wee1_glide-grid

> <s_m_Source_File>
wee1_decoys_glide_SP.sdf

> <s_m_Source_Path>
/Users/zhangxujun/Desktop

> <s_m_entry_id>
5670

> <s_m_entry_name>
wee1_decoys_glide_SP.5395

> <s_m_subgroup_title>
wee1_decoys_glide_SP

> <s_m_subgroupid>
wee1_decoys_glide_SP


$$$$
