@<TRIPOS>MOLECULE
ZINC03011410_4071
53   56    1
SMALL
USER_CHARGES


@<TRIPOS>ATOM
      1 C1          1.0996   42.8944   13.7161 C.3       1 UNK         0.0000 
      2 O2          1.5042   44.2510   13.5498 O.3       1 UNK         0.0000 
      3 C3          1.5016   45.0963   14.6402 C.ar      1 UNK         0.0000 
      4 C4          1.9895   46.3815   14.4259 C.ar      1 UNK         0.0000 
      5 C5          2.0672   47.2975   15.4690 C.ar      1 UNK         0.0000 
      6 C6          1.6230   46.9525   16.7461 C.ar      1 UNK         0.0000 
      7 C7          1.1031   45.6633   16.9918 C.ar      1 UNK         0.0000 
      8 C8          1.0547   44.7465   15.9244 C.ar      1 UNK         0.0000 
      9 O9          0.7046   45.3456   18.2806 O.3       1 UNK         0.0000 
     10 C10         0.1630   44.0618   18.5601 C.3       1 UNK         0.0000 
     11 N11         1.7778   47.9335   17.7431 N.am      1 UNK         0.0000 
     12 C12         0.8008   48.3812   18.5611 C.2       1 UNK         0.0000 
     13 O13        -0.3645   47.9720   18.5378 O.2       1 UNK         0.0000 
     14 C14         1.2093   49.3835   19.5234 C.ar      1 UNK         0.0000 
     15 C15         2.3323   50.2328   19.4615 C.ar      1 UNK         0.0000 
     16 C16         2.2612   51.0618   20.5680 C.ar      1 UNK         0.0000 
     17 N17         1.1318   50.6585   21.2480 N.pl3     1 UNK         0.0000 
     18 N18         0.4840   49.6918   20.5781 N.2       1 UNK         0.0000 
     19 C19         0.5545   51.3178   22.4241 C.3       1 UNK         0.0000 
     20 H20        -0.1063   52.0992   22.0475 H         1 UNK         0.0000 
     21 C21         1.7239   52.0096   23.1583 C.3       1 UNK         0.0000 
     22 C22         2.6541   52.8505   22.2340 C.3       1 UNK         0.0000 
     23 H23         2.0792   53.6840   21.8228 H         1 UNK         0.0000 
     24 N24         3.0795   52.0658   21.0558 N.pl3     1 UNK         0.0000 
     25 C25         3.7943   53.5670   22.9974 C.ar      1 UNK         0.0000 
     26 C26         3.5623   54.1085   24.2714 C.ar      1 UNK         0.0000 
     27 C27         4.5890   54.7198   24.9867 C.ar      1 UNK         0.0000 
     28 C28         5.8543   54.8323   24.4209 C.ar      1 UNK         0.0000 
     29 C29         6.1031   54.3205   23.1510 C.ar      1 UNK         0.0000 
     30 C30         5.0791   53.6942   22.4433 C.ar      1 UNK         0.0000 
     31 Cl31        7.1044   55.6485   25.2828 Cl        1 UNK         0.0000 
     32 C32        -0.3001   50.4046   23.3447 C.3       1 UNK         0.0000 
     33 F33        -0.6947   51.0663   24.4351 F         1 UNK         0.0000 
     34 F34        -1.4055   49.9721   22.7362 F         1 UNK         0.0000 
     35 F35         0.3839   49.3383   23.7627 F         1 UNK         0.0000 
     36 H36         1.1985   42.3680   12.7675 H         1 UNK         0.0000 
     37 H37         0.0550   42.8235   14.0225 H         1 UNK         0.0000 
     38 H38         1.7248   42.3789   14.4467 H         1 UNK         0.0000 
     39 H39         2.3179   46.6725   13.4406 H         1 UNK         0.0000 
     40 H40         2.4755   48.2806   15.2824 H         1 UNK         0.0000 
     41 H41         0.6733   43.7539   16.0926 H         1 UNK         0.0000 
     42 H42        -0.1019   44.0113   19.6168 H         1 UNK         0.0000 
     43 H43        -0.7422   43.8742   17.9818 H         1 UNK         0.0000 
     44 H44         0.8895   43.2726   18.3618 H         1 UNK         0.0000 
     45 H45         2.6663   48.4234   17.7403 H         1 UNK         0.0000 
     46 H46         3.1043   50.2497   18.7016 H         1 UNK         0.0000 
     47 H47         1.2862   52.6267   23.9400 H         1 UNK         0.0000 
     48 H48         2.3037   51.2582   23.6964 H         1 UNK         0.0000 
     49 H49         3.5827   52.6362   20.3910 H         1 UNK         0.0000 
     50 H50         2.5890   54.0696   24.7334 H         1 UNK         0.0000 
     51 H51         4.3945   55.1271   25.9687 H         1 UNK         0.0000 
     52 H52         7.0867   54.4145   22.7153 H         1 UNK         0.0000 
     53 H53         5.3015   53.3031   21.4622 H         1 UNK         0.0000 
@<TRIPOS>BOND
     1    1    2 1    
     2    1   36 1    
     3    1   37 1    
     4    1   38 1    
     5    2    3 1    
     6    3    8 ar   
     7    3    4 ar   
     8    4    5 ar   
     9    4   39 1    
    10    5    6 ar   
    11    5   40 1    
    12    6    7 ar   
    13    6   11 1    
    14    7    8 ar   
    15    7    9 1    
    16    8   41 1    
    17    9   10 1    
    18   10   42 1    
    19   10   43 1    
    20   10   44 1    
    21   11   12 am   BACKBONE|DICT|INTERRES
    22   11   45 1    
    23   12   13 2    
    24   12   14 1    
    25   14   18 ar   
    26   14   15 ar   
    27   15   16 ar   
    28   15   46 1    
    29   16   24 1    
    30   16   17 ar   
    31   17   18 ar   
    32   17   19 1    
    33   19   20 1    
    34   19   21 1    
    35   19   32 1    
    36   21   22 1    
    37   21   47 1    
    38   21   48 1    
    39   22   23 1    
    40   22   24 1    
    41   22   25 1    
    42   24   49 1    
    43   25   30 ar   
    44   25   26 ar   
    45   26   27 ar   
    46   26   50 1    
    47   27   28 ar   
    48   27   51 1    
    49   28   29 ar   
    50   28   31 1    
    51   29   30 ar   
    52   29   52 1    
    53   30   53 1    
    54   32   33 1    
    55   32   34 1    
    56   32   35 1    
@<TRIPOS>SUBSTRUCTURE
     1 UNK         1 GROUP             0       ****    0 ROOT    
