@<TRIPOS>MOLECULE
ZINC34681296_5094
63   66    1
SMALL
USER_CHARGES


@<TRIPOS>ATOM
      1 C1         10.1397   60.1485   14.8618 C.3       1 UNK         0.0000 
      2 C2          9.3031   59.2173   15.7209 C.ar      1 UNK         0.0000 
      3 C3          9.9200   58.2284   16.4880 C.ar      1 UNK         0.0000 
      4 C4          9.1567   57.3857   17.2947 C.ar      1 UNK         0.0000 
      5 C5          7.7585   57.5210   17.3465 C.ar      1 UNK         0.0000 
      6 C6          7.1364   58.5102   16.5628 C.ar      1 UNK         0.0000 
      7 C7          7.9150   59.3558   15.7651 C.ar      1 UNK         0.0000 
      8 C8          5.6253   58.7150   16.5795 C.3       1 UNK         0.0000 
      9 N9          6.9377   56.7031   18.1488 N.am      1 UNK         0.0000 
     10 C10         7.2480   56.0932   19.3073 C.2       1 UNK         0.0000 
     11 O11         8.3659   56.0934   19.8255 O.2       1 UNK         0.0000 
     12 N12         6.1531   55.5391   19.8594 N.am      1 UNK         0.0000 
     13 C13         5.9916   55.0648   21.1753 C.ar      1 UNK         0.0000 
     14 C14         4.7539   54.4966   21.5086 C.ar      1 UNK         0.0000 
     15 C15         4.5057   54.0926   22.8229 C.ar      1 UNK         0.0000 
     16 C16         5.5029   54.2200   23.8071 C.ar      1 UNK         0.0000 
     17 N17         6.6946   54.7325   23.4203 N.pl3     1 UNK         0.0000 
     18 C18         6.9667   55.1688   22.1806 C.ar      1 UNK         0.0000 
     19 N19         5.3126   53.8519   25.1920 N.pl3     1 UNK         0.0000 
     20 C20         6.4793   53.7085   26.0822 C.3       1 UNK         0.0000 
     21 C21         6.6404   54.8823   27.0451 C.3       1 UNK         0.0000 
     22 C22         5.7689   54.7794   28.3091 C.3       1 UNK         0.0000 
     23 N23         4.3235   54.4903   28.1473 N.am      1 UNK         0.0000 
     24 C24         3.6492   54.7205   26.8573 C.3       1 UNK         0.0000 
     25 C25         3.9625   53.6966   25.7603 C.3       1 UNK         0.0000 
     26 C26         3.6545   54.0316   29.2398 C.2       1 UNK         0.0000 
     27 O27         4.1328   54.0294   30.3692 O.2       1 UNK         0.0000 
     28 C28         2.2729   53.4587   29.0927 C.ar      1 UNK         0.0000 
     29 C29         2.1078   52.2310   28.4373 C.ar      1 UNK         0.0000 
     30 C30         0.8472   51.6432   28.3438 C.ar      1 UNK         0.0000 
     31 C31        -0.2492   52.2549   28.9406 C.ar      1 UNK         0.0000 
     32 C32        -0.0897   53.4750   29.5988 C.ar      1 UNK         0.0000 
     33 C33         1.1560   54.0935   29.6637 C.ar      1 UNK         0.0000 
     34 Cl34        1.2563   55.6276   30.4734 Cl        1 UNK         0.0000 
     35 Cl35       -1.7964   51.4943   28.8728 Cl        1 UNK         0.0000 
     36 H36         9.6462   61.1119   14.7296 H         1 UNK         0.0000 
     37 H37        11.0992   60.3523   15.3361 H         1 UNK         0.0000 
     38 H38        10.3220   59.7080   13.8820 H         1 UNK         0.0000 
     39 H39        10.9936   58.1064   16.4593 H         1 UNK         0.0000 
     40 H40         9.6705   56.6271   17.8642 H         1 UNK         0.0000 
     41 H41         7.4357   60.1291   15.1851 H         1 UNK         0.0000 
     42 H42         5.3141   59.5563   15.9561 H         1 UNK         0.0000 
     43 H43         5.1094   57.8212   16.2283 H         1 UNK         0.0000 
     44 H44         5.2863   58.9171   17.5952 H         1 UNK         0.0000 
     45 H45         5.9639   56.7141   17.8872 H         1 UNK         0.0000 
     46 H46         5.3371   55.4734   19.2699 H         1 UNK         0.0000 
     47 H47         3.9742   54.3911   20.7656 H         1 UNK         0.0000 
     48 H48         3.5354   53.6686   23.0365 H         1 UNK         0.0000 
     49 H49         7.9590   55.5848   22.0752 H         1 UNK         0.0000 
     50 H50         7.3721   53.5527   25.4804 H         1 UNK         0.0000 
     51 H51         6.3408   52.7941   26.6534 H         1 UNK         0.0000 
     52 H52         6.4900   55.8301   26.5315 H         1 UNK         0.0000 
     53 H53         7.6727   54.8999   27.3957 H         1 UNK         0.0000 
     54 H54         5.9003   55.6965   28.8786 H         1 UNK         0.0000 
     55 H55         6.1995   53.9793   28.9123 H         1 UNK         0.0000 
     56 H56         2.5700   54.8017   26.9779 H         1 UNK         0.0000 
     57 H57         3.9434   55.6960   26.4812 H         1 UNK         0.0000 
     58 H58         3.9146   52.6991   26.1892 H         1 UNK         0.0000 
     59 H59         3.1774   53.7219   25.0093 H         1 UNK         0.0000 
     60 H60         2.9541   51.7025   28.0222 H         1 UNK         0.0000 
     61 H61         0.7225   50.6959   27.8371 H         1 UNK         0.0000 
     62 H62        -0.9162   53.9549   30.0806 H         1 UNK         0.0000 
     63 H63         7.4261   54.8220   24.1121 H         1 UNK         0.0000 
@<TRIPOS>BOND
     1    1    2 1    
     2    1   36 1    
     3    1   37 1    
     4    1   38 1    
     5    2    7 ar   
     6    2    3 ar   
     7    3    4 ar   
     8    3   39 1    
     9    4    5 ar   
    10    4   40 1    
    11    5    6 ar   
    12    5    9 1    
    13    6    7 ar   
    14    6    8 1    
    15    7   41 1    
    16    8   42 1    
    17    8   43 1    
    18    8   44 1    
    19    9   10 am   BACKBONE|DICT|INTERRES
    20    9   45 1    
    21   10   11 2    
    22   10   12 am   BACKBONE|DICT|INTERRES
    23   12   13 1    
    24   12   46 1    
    25   13   18 ar   
    26   13   14 ar   
    27   14   15 ar   
    28   14   47 1    
    29   15   16 ar   
    30   15   48 1    
    31   16   17 ar   
    32   16   19 1    
    33   17   18 ar   
    34   17   63 1    
    35   18   49 1    
    36   19   25 1    
    37   19   20 1    
    38   20   21 1    
    39   20   50 1    
    40   20   51 1    
    41   21   22 1    
    42   21   52 1    
    43   21   53 1    
    44   22   23 1    
    45   22   54 1    
    46   22   55 1    
    47   23   24 1    
    48   23   26 am   BACKBONE|DICT|INTERRES
    49   24   25 1    
    50   24   56 1    
    51   24   57 1    
    52   25   58 1    
    53   25   59 1    
    54   26   27 2    
    55   26   28 1    
    56   28   33 ar   
    57   28   29 ar   
    58   29   30 ar   
    59   29   60 1    
    60   30   31 ar   
    61   30   61 1    
    62   31   32 ar   
    63   31   35 1    
    64   32   33 ar   
    65   32   62 1    
    66   33   34 1    
@<TRIPOS>SUBSTRUCTURE
     1 UNK         1 GROUP             0       ****    0 ROOT    
