@<TRIPOS>MOLECULE
ZINC38615218_1090
68   71    1
SMALL
USER_CHARGES


@<TRIPOS>ATOM
      1 C1          0.6073   52.4735   32.0797 C.3       1 UNK         0.0000 
      2 O2          1.8719   52.4962   31.4275 O.3       1 UNK         0.0000 
      3 C3          1.8531   52.7548   30.0776 C.ar      1 UNK         0.0000 
      4 C4          0.8836   52.2316   29.2125 C.ar      1 UNK         0.0000 
      5 C5          0.9210   52.5403   27.8597 C.ar      1 UNK         0.0000 
      6 C6          1.9161   53.3792   27.3551 C.ar      1 UNK         0.0000 
      7 C7          2.8783   53.9049   28.2261 C.ar      1 UNK         0.0000 
      8 C8          2.8619   53.5698   29.5715 C.ar      1 UNK         0.0000 
      9 C9          1.9193   53.6272   25.9039 C.2       1 UNK         0.0000 
     10 C10         2.9686   53.9239   25.1049 C.2       1 UNK         0.0000 
     11 C11         2.7759   54.0760   23.6847 C.2       1 UNK         0.0000 
     12 O12         1.6834   54.0977   23.1106 O.2       1 UNK         0.0000 
     13 N13         3.9771   54.1718   23.0584 N.am      1 UNK         0.0000 
     14 C14         5.1106   54.2337   23.8226 C.2       1 UNK         0.0000 
     15 S15         6.7044   54.4324   23.3989 S.2       1 UNK         0.0000 
     16 S16         4.6793   54.0967   25.4974 S.3       1 UNK         0.0000 
     17 C17         4.0352   54.2737   21.5814 C.3       1 UNK         0.0000 
     18 C18         3.9188   52.8782   20.9505 C.2       1 UNK         0.0000 
     19 O19         4.6966   51.9733   21.2570 O.2       1 UNK         0.0000 
     20 N20         2.9136   52.7348   20.0766 N.am      1 UNK         0.0000 
     21 C21         2.5900   51.5040   19.3542 C.3       1 UNK         0.0000 
     22 C22         2.0256   50.3220   20.2116 C.3       1 UNK         0.0000 
     23 H23         2.8747   49.7289   20.5642 H         1 UNK         0.0000 
     24 C24         1.1896   50.7748   21.4164 C.ar      1 UNK         0.0000 
     25 C25         0.0302   51.5284   21.2176 C.ar      1 UNK         0.0000 
     26 C26        -0.7378   51.9255   22.3073 C.ar      1 UNK         0.0000 
     27 C27        -0.3460   51.5871   23.6109 C.ar      1 UNK         0.0000 
     28 C28         0.8062   50.8260   23.8003 C.ar      1 UNK         0.0000 
     29 C29         1.5750   50.4209   22.7129 C.ar      1 UNK         0.0000 
     30 O30        -1.0258   51.9713   24.7491 O.3       1 UNK         0.0000 
     31 C31        -2.1976   52.7677   24.6225 C.3       1 UNK         0.0000 
     32 N32         1.2291   49.3199   19.3161 N.4       1 UNK         0.0000 
     33 C33         0.8003   48.0776   20.1404 C.3       1 UNK         0.0000 
     34 C34        -0.0696   47.1596   19.2643 C.3       1 UNK         0.0000 
     35 C35         0.6725   46.7263   17.9924 C.3       1 UNK         0.0000 
     36 C36         1.1901   47.9380   17.2058 C.3       1 UNK         0.0000 
     37 C37         2.0495   48.8641   18.0820 C.3       1 UNK         0.0000 
     38 H38         0.7044   52.2742   33.1459 H         1 UNK         0.0000 
     39 H39         0.0966   53.4312   31.9818 H         1 UNK         0.0000 
     40 H40        -0.0472   51.6981   31.6812 H         1 UNK         0.0000 
     41 H41         0.1072   51.5676   29.5622 H         1 UNK         0.0000 
     42 H42         0.1748   52.1055   27.2079 H         1 UNK         0.0000 
     43 H43         3.6466   54.5789   27.8822 H         1 UNK         0.0000 
     44 H44         3.6274   53.9612   30.2234 H         1 UNK         0.0000 
     45 H45         0.9405   53.5537   25.4468 H         1 UNK         0.0000 
     46 H46         4.9454   54.7541   21.2236 H         1 UNK         0.0000 
     47 H47         3.2098   54.8965   21.2420 H         1 UNK         0.0000 
     48 H48         2.3036   53.5299   19.9270 H         1 UNK         0.0000 
     49 H49         3.4792   51.1924   18.8069 H         1 UNK         0.0000 
     50 H50         1.8535   51.7922   18.6023 H         1 UNK         0.0000 
     51 H51        -0.2759   51.8063   20.2211 H         1 UNK         0.0000 
     52 H52        -1.6280   52.5025   22.1218 H         1 UNK         0.0000 
     53 H53         1.1053   50.5517   24.8007 H         1 UNK         0.0000 
     54 H54         2.4667   49.8344   22.8847 H         1 UNK         0.0000 
     55 H55        -2.5618   53.0334   25.6165 H         1 UNK         0.0000 
     56 H56        -2.9935   52.2215   24.1132 H         1 UNK         0.0000 
     57 H57        -1.9994   53.6950   24.0814 H         1 UNK         0.0000 
     58 H58         1.7184   47.5958   20.4816 H         1 UNK         0.0000 
     59 H59         0.2133   48.4224   20.9926 H         1 UNK         0.0000 
     60 H60        -0.3658   46.2807   19.8381 H         1 UNK         0.0000 
     61 H61        -0.9944   47.6737   18.9984 H         1 UNK         0.0000 
     62 H62         0.0218   46.1183   17.3613 H         1 UNK         0.0000 
     63 H63         1.5176   46.0932   18.2625 H         1 UNK         0.0000 
     64 H64         0.3534   48.5002   16.7885 H         1 UNK         0.0000 
     65 H65         1.7854   47.6057   16.3547 H         1 UNK         0.0000 
     66 H66         2.3042   49.7467   17.4963 H         1 UNK         0.0000 
     67 H67         2.9610   48.3901   18.4585 H         1 UNK         0.0000 
     68 H68         0.3933   49.7921   18.9988 H         1 UNK         0.0000 
@<TRIPOS>BOND
     1    1    2 1    
     2    1   38 1    
     3    1   39 1    
     4    1   40 1    
     5    2    3 1    
     6    3    8 ar   
     7    3    4 ar   
     8    4    5 ar   
     9    4   41 1    
    10    5    6 ar   
    11    5   42 1    
    12    6    7 ar   
    13    6    9 1    
    14    7    8 ar   
    15    7   43 1    
    16    8   44 1    
    17    9   10 2    
    18    9   45 1    
    19   10   16 1    
    20   10   11 1    
    21   11   12 2    
    22   11   13 am   BACKBONE|DICT|INTERRES
    23   13   14 am   BACKBONE|DICT|INTERRES
    24   13   17 1    
    25   14   15 2    
    26   14   16 1    
    27   17   18 1    
    28   17   46 1    
    29   17   47 1    
    30   18   19 2    
    31   18   20 am   BACKBONE|DICT|INTERRES
    32   20   21 1    
    33   20   48 1    
    34   21   22 1    
    35   21   49 1    
    36   21   50 1    
    37   22   23 1    
    38   22   24 1    
    39   22   32 1    
    40   24   29 ar   
    41   24   25 ar   
    42   25   26 ar   
    43   25   51 1    
    44   26   27 ar   
    45   26   52 1    
    46   27   28 ar   
    47   27   30 1    
    48   28   29 ar   
    49   28   53 1    
    50   29   54 1    
    51   30   31 1    
    52   31   55 1    
    53   31   56 1    
    54   31   57 1    
    55   32   37 1    
    56   32   33 1    
    57   32   68 1    
    58   33   34 1    
    59   33   58 1    
    60   33   59 1    
    61   34   35 1    
    62   34   60 1    
    63   34   61 1    
    64   35   36 1    
    65   35   62 1    
    66   35   63 1    
    67   36   37 1    
    68   36   64 1    
    69   36   65 1    
    70   37   66 1    
    71   37   67 1    
@<TRIPOS>SUBSTRUCTURE
     1 UNK         1 GROUP             0       ****    0 ROOT    
