@<TRIPOS>MOLECULE
ZINC30982458_5438
68   72    1
SMALL
USER_CHARGES


@<TRIPOS>ATOM
      1 C1          3.4786   54.0963   26.5970 C.ar      1 UNK         0.0000 
      2 C2          3.1767   54.0393   27.9532 C.ar      1 UNK         0.0000 
      3 C3          4.1946   54.1726   28.8893 C.ar      1 UNK         0.0000 
      4 C4          5.5070   54.3788   28.4821 C.ar      1 UNK         0.0000 
      5 C5          5.8124   54.4322   27.1249 C.ar      1 UNK         0.0000 
      6 C6          4.8003   54.2844   26.1664 C.ar      1 UNK         0.0000 
      7 C7          5.1162   54.3029   24.6966 C.2       1 UNK         0.0000 
      8 N8          4.1837   54.0957   23.7860 N.2       1 UNK         0.0000 
      9 C9          4.8538   54.1343   22.6695 C.2       1 UNK         0.0000 
     10 O10         6.1744   54.3758   22.8449 O.3       1 UNK         0.0000 
     11 N11         6.3349   54.4939   24.2253 N.2       1 UNK         0.0000 
     12 C12         4.3377   53.9475   21.2545 C.3       1 UNK         0.0000 
     13 N13         3.6569   52.5612   21.1006 N.4       1 UNK         0.0000 
     14 C14         2.2157   52.5553   21.6750 C.3       1 UNK         0.0000 
     15 C15         1.6457   51.1318   21.5639 C.3       1 UNK         0.0000 
     16 C16         1.6592   50.6401   20.0899 C.3       1 UNK         0.0000 
     17 C17         3.0862   50.7290   19.4943 C.3       1 UNK         0.0000 
     18 C18         3.6391   52.1576   19.6080 C.3       1 UNK         0.0000 
     19 C19         1.0733   49.2038   19.9819 C.2       1 UNK         0.0000 
     20 O20         0.3382   48.7949   20.8816 O.2       1 UNK         0.0000 
     21 N21         1.3910   48.4812   18.8794 N.am      1 UNK         0.0000 
     22 C22         1.0016   47.1772   18.5127 C.ar      1 UNK         0.0000 
     23 C23         0.1720   46.3460   19.2820 C.ar      1 UNK         0.0000 
     24 C24        -0.1105   45.0511   18.8613 C.ar      1 UNK         0.0000 
     25 C25         0.4182   44.5793   17.6617 C.ar      1 UNK         0.0000 
     26 C26         1.2013   45.4149   16.8617 C.ar      1 UNK         0.0000 
     27 C27         1.5042   46.7047   17.2955 C.ar      1 UNK         0.0000 
     28 S28         0.0721   42.8965   17.1610 S.o2      1 UNK         0.0000 
     29 O29        -1.0332   42.9840   16.2015 O.2       1 UNK         0.0000 
     30 O30        -0.0749   42.0968   18.3866 O.2       1 UNK         0.0000 
     31 N31         1.5222   42.3367   16.3002 N.pl3     1 UNK         0.0000 
     32 C32         1.2879   41.4844   15.1072 C.3       1 UNK         0.0000 
     33 C33         2.5556   41.4381   14.2302 C.3       1 UNK         0.0000 
     34 C34         3.8146   41.0504   15.0369 C.3       1 UNK         0.0000 
     35 C35         3.9623   41.8770   16.3326 C.3       1 UNK         0.0000 
     36 C36         2.6559   41.9015   17.1536 C.3       1 UNK         0.0000 
     37 F37         3.9033   54.0950   30.2050 F         1 UNK         0.0000 
     38 H38         2.6740   53.9798   25.8859 H         1 UNK         0.0000 
     39 H39         2.1588   53.8826   28.2804 H         1 UNK         0.0000 
     40 H40         6.2912   54.4940   29.2172 H         1 UNK         0.0000 
     41 H41         6.8415   54.5750   26.8270 H         1 UNK         0.0000 
     42 H42         5.1632   53.9713   20.5396 H         1 UNK         0.0000 
     43 H43         3.6006   54.6934   20.9479 H         1 UNK         0.0000 
     44 H44         1.6259   53.2969   21.1335 H         1 UNK         0.0000 
     45 H45         2.2657   52.8364   22.7245 H         1 UNK         0.0000 
     46 H46         0.6263   51.1834   21.9539 H         1 UNK         0.0000 
     47 H47         2.2717   50.4993   22.1994 H         1 UNK         0.0000 
     48 H48         0.9699   51.2391   19.4921 H         1 UNK         0.0000 
     49 H49         3.7860   50.0961   20.0397 H         1 UNK         0.0000 
     50 H50         3.1023   50.5053   18.4267 H         1 UNK         0.0000 
     51 H51         3.0490   52.8931   19.0554 H         1 UNK         0.0000 
     52 H52         4.6733   52.1692   19.2572 H         1 UNK         0.0000 
     53 H53         2.0290   48.9184   18.2281 H         1 UNK         0.0000 
     54 H54        -0.2520   46.6564   20.2226 H         1 UNK         0.0000 
     55 H55        -0.7335   44.4166   19.4734 H         1 UNK         0.0000 
     56 H56         1.6038   45.0605   15.9238 H         1 UNK         0.0000 
     57 H57         2.1418   47.3304   16.6863 H         1 UNK         0.0000 
     58 H58         0.4469   41.8656   14.5256 H         1 UNK         0.0000 
     59 H59         1.1145   40.4610   15.4448 H         1 UNK         0.0000 
     60 H60         2.7012   42.4140   13.7631 H         1 UNK         0.0000 
     61 H61         2.4094   40.7379   13.4073 H         1 UNK         0.0000 
     62 H62         3.7650   39.9900   15.2913 H         1 UNK         0.0000 
     63 H63         4.7043   41.1670   14.4175 H         1 UNK         0.0000 
     64 H64         4.7717   41.4759   16.9427 H         1 UNK         0.0000 
     65 H65         4.2513   42.8967   16.0826 H         1 UNK         0.0000 
     66 H66         2.7497   42.5615   18.0150 H         1 UNK         0.0000 
     67 H67         2.4750   40.8712   17.4671 H         1 UNK         0.0000 
     68 H68         4.2216   51.8855   21.5983 H         1 UNK         0.0000 
@<TRIPOS>BOND
     1    1    6 ar   
     2    1    2 ar   
     3    1   38 1    
     4    2    3 ar   
     5    2   39 1    
     6    3    4 ar   
     7    3   37 1    
     8    4    5 ar   
     9    4   40 1    
    10    5    6 ar   
    11    5   41 1    
    12    6    7 1    
    13    7   11 2    
    14    7    8 1    
    15    8    9 2    
    16    9   10 1    
    17    9   12 1    
    18   10   11 1    
    19   12   13 1    
    20   12   42 1    
    21   12   43 1    
    22   13   18 1    
    23   13   14 1    
    24   13   68 1    
    25   14   15 1    
    26   14   44 1    
    27   14   45 1    
    28   15   16 1    
    29   15   46 1    
    30   15   47 1    
    31   16   17 1    
    32   16   19 1    
    33   16   48 1    
    34   17   18 1    
    35   17   49 1    
    36   17   50 1    
    37   18   51 1    
    38   18   52 1    
    39   19   20 2    
    40   19   21 am   BACKBONE|DICT|INTERRES
    41   21   22 1    
    42   21   53 1    
    43   22   27 ar   
    44   22   23 ar   
    45   23   24 ar   
    46   23   54 1    
    47   24   25 ar   
    48   24   55 1    
    49   25   26 ar   
    50   25   28 1    
    51   26   27 ar   
    52   26   56 1    
    53   27   57 1    
    54   28   29 2    
    55   28   30 2    
    56   28   31 1    
    57   31   36 1    
    58   31   32 1    
    59   32   33 1    
    60   32   58 1    
    61   32   59 1    
    62   33   34 1    
    63   33   60 1    
    64   33   61 1    
    65   34   35 1    
    66   34   62 1    
    67   34   63 1    
    68   35   36 1    
    69   35   64 1    
    70   35   65 1    
    71   36   66 1    
    72   36   67 1    
@<TRIPOS>SUBSTRUCTURE
     1 UNK         1 GROUP             0       ****    0 ROOT    
