ZINC39665179_2205
                    3D
 Schrodinger Suite 2024-2.
 72 75  0  0  1  0            999 V2000
   -6.8472   50.0804   24.9647 C   0  0  0  0  0  0
   -5.3749   50.3791   25.3068 C   0  0  2  0  0  0
   -5.2465   50.2463   26.3809 H   0  0  0  0  0  0
   -4.9998   51.8433   24.9527 C   0  0  0  0  0  0
   -3.5868   52.2108   25.1056 N   0  0  0  0  0  0
   -2.8650   52.1253   26.2380 C   0  0  0  0  0  0
   -3.3551   51.7555   27.3038 O   0  0  0  0  0  0
   -1.3821   52.5734   26.1393 C   0  0  1  0  0  0
   -1.3141   53.2972   25.3440 H   0  0  0  0  0  0
   -0.8932   53.1081   27.5107 C   0  0  0  0  0  0
    0.5688   53.0468   27.4332 N   0  0  0  0  0  0
    0.9533   52.0611   26.4158 C   0  0  0  0  0  0
   -0.3474   51.4895   25.7882 C   0  0  0  0  0  0
   -0.7118   50.1379   26.4301 C   0  0  0  0  0  0
    0.3347   49.0408   26.1985 C   0  0  0  0  0  0
    0.6183   48.8986   24.6860 N   0  3  0  0  0  0
    0.8719   50.2215   23.9288 C   0  0  0  0  0  0
   -0.2669   51.2017   24.2653 C   0  0  0  0  0  0
    1.3830   53.9268   28.1127 C   0  0  0  0  0  0
    0.8881   54.8052   28.8231 O   0  0  0  0  0  0
    2.9584   53.8689   28.0199 C   0  0  0  0  0  0
    3.4210   54.5778   26.7113 C   0  0  0  0  0  0
    4.9514   54.4699   26.4953 C   0  0  0  0  0  0
    5.8029   54.9268   27.7051 C   0  0  0  0  0  0
    5.2027   54.5838   29.0816 C   0  0  0  0  0  0
    3.6493   54.6513   29.1789 C   0  0  0  0  0  0
    3.3681   52.3901   28.1151 C   0  0  0  0  0  0
   -4.5199   49.4655   24.6055 O   0  0  0  0  0  0
   -4.5040   48.1745   25.0911 C   0  0  0  0  0  0
   -3.8557   47.8742   26.2928 C   0  0  0  0  0  0
   -3.8458   46.5683   26.7742 C   0  0  0  0  0  0
   -4.5085   45.5646   26.0642 C   0  0  0  0  0  0
   -5.1590   45.8554   24.8644 C   0  0  0  0  0  0
   -5.1457   47.1600   24.3717 C   0  0  0  0  0  0
   -7.5195   50.8196   25.4064 H   0  0  0  0  0  0
   -6.9996   50.0923   23.8870 H   0  0  0  0  0  0
   -7.1514   49.1017   25.3396 H   0  0  0  0  0  0
   -5.2596   52.0425   23.9144 H   0  0  0  0  0  0
   -5.6098   52.5282   25.5410 H   0  0  0  0  0  0
   -3.1180   52.5208   24.2691 H   0  0  0  0  0  0
   -1.2819   54.1107   27.6818 H   0  0  0  0  0  0
   -1.1900   52.4233   28.3084 H   0  0  0  0  0  0
    1.5294   51.2496   26.8293 H   0  0  0  0  0  0
    1.4992   52.5795   25.6287 H   0  0  0  0  0  0
   -0.8222   50.2706   27.5069 H   0  0  0  0  0  0
   -1.6791   49.7697   26.0858 H   0  0  0  0  0  0
    1.2902   49.1942   26.6986 H   0  0  0  0  0  0
   -0.0966   48.0998   26.5296 H   0  0  0  0  0  0
    1.4094   48.2737   24.5544 H   0  0  0  0  0  0
    1.8587   50.5839   24.2169 H   0  0  0  0  0  0
    0.8934   49.9623   22.8689 H   0  0  0  0  0  0
   -1.2260   50.8446   23.8778 H   0  0  0  0  0  0
   -0.0659   52.1317   23.7295 H   0  0  0  0  0  0
    2.9397   54.1447   25.8344 H   0  0  0  0  0  0
    3.1241   55.6278   26.7354 H   0  0  0  0  0  0
    5.2035   53.4333   26.2684 H   0  0  0  0  0  0
    5.2413   55.0344   25.6088 H   0  0  0  0  0  0
    6.7902   54.4695   27.6274 H   0  0  0  0  0  0
    6.0292   55.9833   27.6777 H   0  0  0  0  0  0
    5.5663   53.5835   29.2830 H   0  0  0  0  0  0
    5.6405   55.2157   29.8536 H   0  0  0  0  0  0
    3.3532   55.7035   29.1670 H   0  0  0  0  0  0
    3.3434   54.2488   30.1438 H   0  0  0  0  0  0
    4.3480   52.1782   28.5209 H   0  0  0  0  0  0
    2.6742   51.7462   28.6606 H   0  0  0  0  0  0
    3.4294   52.0985   27.0888 H   0  0  0  0  0  0
   -3.3669   48.6503   26.8648 H   0  0  0  0  0  0
   -3.3400   46.3429   27.7031 H   0  0  0  0  0  0
   -4.5222   44.5566   26.4600 H   0  0  0  0  0  0
   -5.6860   45.0766   24.3272 H   0  0  0  0  0  0
   -5.6542   47.3942   23.4477 H   0  0  0  0  0  0
   -0.1818   48.4448   24.2683 H   0  0  0  0  0  0
  1  2  1  0  0  0
  1 35  1  0  0  0
  1 36  1  0  0  0
  1 37  1  0  0  0
  2  3  1  0  0  0
  2  4  1  0  0  0
  2 28  1  0  0  0
  4  5  1  0  0  0
  4 38  1  0  0  0
  4 39  1  0  0  0
  5  6  1  0  0  0
  5 40  1  0  0  0
  6  7  2  0  0  0
  6  8  1  0  0  0
  8  9  1  0  0  0
  8 13  1  0  0  0
  8 10  1  0  0  0
 10 11  1  0  0  0
 10 41  1  0  0  0
 10 42  1  0  0  0
 11 12  1  0  0  0
 11 19  1  0  0  0
 12 13  1  0  0  0
 12 43  1  0  0  0
 12 44  1  0  0  0
 13 18  1  0  0  0
 13 14  1  0  0  0
 14 15  1  0  0  0
 14 45  1  0  0  0
 14 46  1  0  0  0
 15 16  1  0  0  0
 15 47  1  0  0  0
 15 48  1  0  0  0
 16 17  1  0  0  0
 16 49  1  0  0  0
 16 72  1  0  0  0
 17 18  1  0  0  0
 17 50  1  0  0  0
 17 51  1  0  0  0
 18 52  1  0  0  0
 18 53  1  0  0  0
 19 20  2  0  0  0
 19 21  1  0  0  0
 21 26  1  0  0  0
 21 22  1  0  0  0
 21 27  1  0  0  0
 22 23  1  0  0  0
 22 54  1  0  0  0
 22 55  1  0  0  0
 23 24  1  0  0  0
 23 56  1  0  0  0
 23 57  1  0  0  0
 24 25  1  0  0  0
 24 58  1  0  0  0
 24 59  1  0  0  0
 25 26  1  0  0  0
 25 60  1  0  0  0
 25 61  1  0  0  0
 26 62  1  0  0  0
 26 63  1  0  0  0
 27 64  1  0  0  0
 27 65  1  0  0  0
 27 66  1  0  0  0
 28 29  1  0  0  0
 29 34  2  0  0  0
 29 30  1  0  0  0
 30 31  2  0  0  0
 30 67  1  0  0  0
 31 32  1  0  0  0
 31 68  1  0  0  0
 32 33  2  0  0  0
 32 69  1  0  0  0
 33 34  1  0  0  0
 33 70  1  0  0  0
 34 71  1  0  0  0
M  CHG  1  16   1
M  END
> <i_i_glide_confnum>
476

> <i_i_glide_lignum>
2206

> <i_i_glide_posenum>
84

> <i_i_glide_rotatable_bonds>
8

> <i_m_Source_File_Index>
1310

> <b_m_subgroup_collapsed>
0

> <r_i_docking_score>
-1.38756

> <r_i_glide_ecoul>
-4.47875

> <r_i_glide_eff_state_penalty>
0

> <r_i_glide_einternal>
12.0766

> <r_i_glide_emodel>
-13.2048

> <r_i_glide_energy>
-22.0448

> <r_i_glide_erotb>
0.714082

> <r_i_glide_esite>
-0.049504

> <r_i_glide_evdw>
-17.566

> <r_i_glide_gscore>
-1.38756

> <r_i_glide_hbond>
0

> <r_i_glide_ligand_efficiency>
-0.0433613

> <r_i_glide_ligand_efficiency_ln>
-0.310713

> <r_i_glide_ligand_efficiency_sa>
-0.137664

> <r_i_glide_lipo>
-1.38233

> <r_i_glide_metal>
0

> <r_i_glide_rewards>
0.880302

> <s_i_glide_gridfile>
wee1_glide-grid

> <s_m_Source_File>
wee1_decoys_glide_SP.sdf

> <s_m_Source_Path>
/Users/zhangxujun/Desktop

> <s_m_entry_id>
1585

> <s_m_entry_name>
wee1_decoys_glide_SP.1310

> <s_m_subgroup_title>
wee1_decoys_glide_SP

> <s_m_subgroupid>
wee1_decoys_glide_SP


$$$$
