@<TRIPOS>MOLECULE
ZINC02315326_4923
59   64    1
SMALL
USER_CHARGES


@<TRIPOS>ATOM
      1 C1         -3.8654   50.5175   19.6339 C.3       1 UNK         0.0000 
      2 O2         -3.5281   49.8460   20.8383 O.3       1 UNK         0.0000 
      3 C3         -2.8537   50.4755   21.8230 C.2       1 UNK         0.0000 
      4 O4         -2.4952   51.6562   21.7709 O.2       1 UNK         0.0000 
      5 C5         -2.5909   49.5852   22.9769 C.2       1 UNK         0.0000 
      6 C6         -3.3544   48.4363   23.3680 C.2       1 UNK         0.0000 
      7 C7         -2.9379   47.8916   24.5966 C.2       1 UNK         0.0000 
      8 S8         -1.5651   48.6957   25.2480 S.3       1 UNK         0.0000 
      9 C9         -1.5414   49.7770   23.9067 C.2       1 UNK         0.0000 
     10 N10        -0.5036   50.6900   23.9665 N.am      1 UNK         0.0000 
     11 C11         0.3376   50.9901   22.9546 C.2       1 UNK         0.0000 
     12 O12         0.2785   50.5058   21.8209 O.2       1 UNK         0.0000 
     13 C13         1.3540   51.9517   23.3299 C.ar      1 UNK         0.0000 
     14 C14         1.6095   52.5901   24.5944 C.ar      1 UNK         0.0000 
     15 C15         2.7495   53.4122   24.4671 C.ar      1 UNK         0.0000 
     16 N16         3.2581   54.0969   25.4985 N.ar      1 UNK         0.0000 
     17 C17         2.6695   53.9684   26.7172 C.ar      1 UNK         0.0000 
     18 C18         3.1912   54.6376   27.8467 C.ar      1 UNK         0.0000 
     19 C19         2.5585   54.5129   29.0819 C.ar      1 UNK         0.0000 
     20 C20         1.4219   53.7195   29.2239 C.ar      1 UNK         0.0000 
     21 C21         0.8915   53.0349   28.1326 C.ar      1 UNK         0.0000 
     22 C22         1.5095   53.1528   26.8650 C.ar      1 UNK         0.0000 
     23 N23         1.0026   52.4955   25.7863 N.ar      1 UNK         0.0000 
     24 N24         3.2130   53.3218   23.1570 N.pl3     1 UNK         0.0000 
     25 C25         2.3727   52.4226   22.4845 C.ar      1 UNK         0.0000 
     26 N26         2.6246   52.0569   21.1840 N.pl3     1 UNK         0.0000 
     27 C27         4.3875   53.9518   22.6412 C.ar      1 UNK         0.0000 
     28 C28         5.5230   54.0967   23.4499 C.ar      1 UNK         0.0000 
     29 C29         6.6426   54.7688   22.9754 C.ar      1 UNK         0.0000 
     30 C30         6.6449   55.2919   21.6860 C.ar      1 UNK         0.0000 
     31 C31         5.5274   55.1475   20.8694 C.ar      1 UNK         0.0000 
     32 C32         4.3939   54.4966   21.3519 C.ar      1 UNK         0.0000 
     33 C33        -3.5593   46.6978   25.3030 C.3       1 UNK         0.0000 
     34 C34        -4.9910   46.4999   24.7721 C.3       1 UNK         0.0000 
     35 C35        -5.0185   46.4955   23.2384 C.3       1 UNK         0.0000 
     36 C36        -4.5601   47.8360   22.6205 C.3       1 UNK         0.0000 
     37 H37        -4.3131   49.8115   18.9339 H         1 UNK         0.0000 
     38 H38        -4.5868   51.3122   19.8232 H         1 UNK         0.0000 
     39 H39        -2.9806   50.9488   19.1640 H         1 UNK         0.0000 
     40 H40        -0.1427   50.8896   24.8863 H         1 UNK         0.0000 
     41 H41         4.0728   55.2533   27.7412 H         1 UNK         0.0000 
     42 H42         2.9529   55.0437   29.9359 H         1 UNK         0.0000 
     43 H43         0.9453   53.6301   30.1889 H         1 UNK         0.0000 
     44 H44         0.0117   52.4152   28.2423 H         1 UNK         0.0000 
     45 H45         2.0020   51.4111   20.7151 H         1 UNK         0.0000 
     46 H46         3.4216   52.3884   20.6614 H         1 UNK         0.0000 
     47 H47         5.5550   53.6876   24.4497 H         1 UNK         0.0000 
     48 H48         7.5042   54.8810   23.6139 H         1 UNK         0.0000 
     49 H49         7.5249   55.8047   21.3169 H         1 UNK         0.0000 
     50 H50         5.5249   55.5623   19.8726 H         1 UNK         0.0000 
     51 H51         3.5108   54.4507   20.7256 H         1 UNK         0.0000 
     52 H52        -3.5773   46.8428   26.3845 H         1 UNK         0.0000 
     53 H53        -2.9640   45.8045   25.1162 H         1 UNK         0.0000 
     54 H54        -5.6418   47.2919   25.1483 H         1 UNK         0.0000 
     55 H55        -5.4005   45.5652   25.1577 H         1 UNK         0.0000 
     56 H56        -6.0258   46.2580   22.8867 H         1 UNK         0.0000 
     57 H57        -4.3783   45.6898   22.8722 H         1 UNK         0.0000 
     58 H58        -4.3284   47.6451   21.5734 H         1 UNK         0.0000 
     59 H59        -5.3873   48.5476   22.6334 H         1 UNK         0.0000 
@<TRIPOS>BOND
     1    1    2 1    
     2    1   37 1    
     3    1   38 1    
     4    1   39 1    
     5    2    3 1    
     6    3    4 2    
     7    3    5 1    
     8    5    9 2    
     9    5    6 1    
    10    6   36 1    
    11    6    7 2    
    12    7    8 1    
    13    7   33 1    
    14    8    9 1    
    15    9   10 am   BACKBONE|DICT|INTERRES
    16   10   11 am   BACKBONE|DICT|INTERRES
    17   10   40 1    
    18   11   12 2    
    19   11   13 1    
    20   13   25 ar   
    21   13   14 ar   
    22   14   23 ar   
    23   14   15 ar   
    24   15   16 ar   
    25   15   24 ar   
    26   16   17 ar   
    27   17   22 ar   
    28   17   18 ar   
    29   18   19 ar   
    30   18   41 1    
    31   19   20 ar   
    32   19   42 1    
    33   20   21 ar   
    34   20   43 1    
    35   21   22 ar   
    36   21   44 1    
    37   22   23 ar   
    38   24   25 ar   
    39   24   27 1    
    40   25   26 1    
    41   26   45 1    
    42   26   46 1    
    43   27   32 ar   
    44   27   28 ar   
    45   28   29 ar   
    46   28   47 1    
    47   29   30 ar   
    48   29   48 1    
    49   30   31 ar   
    50   30   49 1    
    51   31   32 ar   
    52   31   50 1    
    53   32   51 1    
    54   33   34 1    
    55   33   52 1    
    56   33   53 1    
    57   34   35 1    
    58   34   54 1    
    59   34   55 1    
    60   35   36 1    
    61   35   56 1    
    62   35   57 1    
    63   36   58 1    
    64   36   59 1    
@<TRIPOS>SUBSTRUCTURE
     1 UNK         1 GROUP             0       ****    0 ROOT    
