ZINC10891557_3370
                    3D
 Schrodinger Suite 2024-2.
 63 66  0  0  1  0            999 V2000
   11.0368   53.2971   16.6482 C   0  0  0  0  0  0
   10.2090   54.6001   16.5406 C   0  0  0  0  0  0
   11.1039   55.7661   17.0301 C   0  0  0  0  0  0
    9.8802   54.8695   15.0518 C   0  0  0  0  0  0
    8.8989   54.4498   17.3509 C   0  0  0  0  0  0
    8.6027   55.2528   18.4626 C   0  0  0  0  0  0
    7.4157   55.0804   19.1710 C   0  0  0  0  0  0
    6.4920   54.0952   18.7992 C   0  0  0  0  0  0
    6.7846   53.2968   17.6815 C   0  0  0  0  0  0
    7.9693   53.4729   16.9744 C   0  0  0  0  0  0
    5.2306   53.8895   19.6149 C   0  0  0  0  0  0
    5.0591   54.5180   20.6640 O   0  0  0  0  0  0
    4.3383   53.0029   19.1135 N   0  0  0  0  0  0
    3.1395   52.7461   19.7855 N   0  0  0  0  0  0
    3.1102   51.9429   20.8725 C   0  0  0  0  0  0
    4.0827   51.2981   21.2808 O   0  0  0  0  0  0
    1.7268   51.7659   21.5347 C   0  0  1  0  0  0
    1.0546   52.5248   21.1306 H   0  0  0  0  0  0
    1.1678   50.3421   21.3253 C   0  0  0  0  0  0
    0.5353   49.9748   22.6530 C   0  0  0  0  0  0
    1.4820   50.5961   23.6679 C   0  0  0  0  0  0
    1.8450   51.8834   23.0194 N   0  0  0  0  0  0
    1.3492   53.4031   23.7739 S   0  0  0  0  0  0
    1.7777   54.4951   22.8945 O   0  0  0  0  0  0
   -0.0601   53.2709   24.1622 O   0  0  0  0  0  0
    2.3401   53.5251   25.2548 C   0  0  0  0  0  0
    1.8692   53.0345   26.4792 C   0  0  0  0  0  0
    2.6920   53.0661   27.6097 C   0  0  0  0  0  0
    3.9843   53.5838   27.5122 C   0  0  0  0  0  0
    4.4457   54.0979   26.2902 C   0  0  0  0  0  0
    3.6190   54.0850   25.1692 C   0  0  0  0  0  0
    5.6960   54.6676   26.1565 O   0  0  0  0  0  0
    6.6290   54.2340   27.1453 C   0  0  0  0  0  0
    5.9867   54.2725   28.5490 C   0  0  0  0  0  0
    4.8003   53.4766   28.6202 O   0  0  0  0  0  0
   11.9724   53.3669   16.0907 H   0  0  0  0  0  0
   10.4989   52.4318   16.2577 H   0  0  0  0  0  0
   11.2945   53.0726   17.6833 H   0  0  0  0  0  0
   10.5893   56.7255   16.9747 H   0  0  0  0  0  0
   11.4249   55.6177   18.0605 H   0  0  0  0  0  0
   12.0100   55.8576   16.4300 H   0  0  0  0  0  0
    9.2701   55.7670   14.9362 H   0  0  0  0  0  0
   10.7847   55.0141   14.4599 H   0  0  0  0  0  0
    9.3352   54.0451   14.5916 H   0  0  0  0  0  0
    9.2844   56.0163   18.8034 H   0  0  0  0  0  0
    7.2301   55.7142   20.0293 H   0  0  0  0  0  0
    6.1166   52.5112   17.3537 H   0  0  0  0  0  0
    8.1621   52.8267   16.1298 H   0  0  0  0  0  0
    4.6081   52.2304   18.5159 H   0  0  0  0  0  0
    2.3793   53.3463   19.4913 H   0  0  0  0  0  0
    0.4327   50.3190   20.5216 H   0  0  0  0  0  0
    1.9448   49.6190   21.0632 H   0  0  0  0  0  0
   -0.4603   50.4124   22.7480 H   0  0  0  0  0  0
    0.4400   48.8969   22.7880 H   0  0  0  0  0  0
    1.1315   50.6967   24.6975 H   0  0  0  0  0  0
    2.3725   49.9654   23.7256 H   0  0  0  0  0  0
    0.8827   52.5992   26.5522 H   0  0  0  0  0  0
    2.3460   52.6519   28.5448 H   0  0  0  0  0  0
    3.9871   54.4736   24.2293 H   0  0  0  0  0  0
    7.5039   54.8827   27.1210 H   0  0  0  0  0  0
    6.9550   53.2176   26.9207 H   0  0  0  0  0  0
    5.7335   55.2992   28.8088 H   0  0  0  0  0  0
    6.7105   53.9207   29.2812 H   0  0  0  0  0  0
  1  2  1  0  0  0
  1 36  1  0  0  0
  1 37  1  0  0  0
  1 38  1  0  0  0
  2  3  1  0  0  0
  2  4  1  0  0  0
  2  5  1  0  0  0
  3 39  1  0  0  0
  3 40  1  0  0  0
  3 41  1  0  0  0
  4 42  1  0  0  0
  4 43  1  0  0  0
  4 44  1  0  0  0
  5 10  2  0  0  0
  5  6  1  0  0  0
  6  7  2  0  0  0
  6 45  1  0  0  0
  7  8  1  0  0  0
  7 46  1  0  0  0
  8  9  2  0  0  0
  8 11  1  0  0  0
  9 10  1  0  0  0
  9 47  1  0  0  0
 10 48  1  0  0  0
 11 12  2  0  0  0
 11 13  1  0  0  0
 13 14  1  0  0  0
 13 49  1  0  0  0
 14 15  1  0  0  0
 14 50  1  0  0  0
 15 16  2  0  0  0
 15 17  1  0  0  0
 17 18  1  0  0  0
 17 22  1  0  0  0
 17 19  1  0  0  0
 19 20  1  0  0  0
 19 51  1  0  0  0
 19 52  1  0  0  0
 20 21  1  0  0  0
 20 53  1  0  0  0
 20 54  1  0  0  0
 21 22  1  0  0  0
 21 55  1  0  0  0
 21 56  1  0  0  0
 22 23  1  0  0  0
 23 24  2  0  0  0
 23 25  2  0  0  0
 23 26  1  0  0  0
 26 31  2  0  0  0
 26 27  1  0  0  0
 27 28  2  0  0  0
 27 57  1  0  0  0
 28 29  1  0  0  0
 28 58  1  0  0  0
 29 35  1  0  0  0
 29 30  2  0  0  0
 30 31  1  0  0  0
 30 32  1  0  0  0
 31 59  1  0  0  0
 32 33  1  0  0  0
 33 34  1  0  0  0
 33 60  1  0  0  0
 33 61  1  0  0  0
 34 35  1  0  0  0
 34 62  1  0  0  0
 34 63  1  0  0  0
M  END
> <i_i_glide_confnum>
41

> <i_i_glide_lignum>
3371

> <i_i_glide_posenum>
371

> <i_i_glide_rotatable_bonds>
8

> <i_m_Source_File_Index>
2425

> <b_m_subgroup_collapsed>
0

> <r_i_docking_score>
-4.89533

> <r_i_glide_ecoul>
-7.0972

> <r_i_glide_eff_state_penalty>
0

> <r_i_glide_einternal>
2.93098

> <r_i_glide_emodel>
-61.0985

> <r_i_glide_energy>
-50.2871

> <r_i_glide_erotb>
0.598643

> <r_i_glide_esite>
-0.106089

> <r_i_glide_evdw>
-43.1899

> <r_i_glide_gscore>
-4.89533

> <r_i_glide_hbond>
-0.289205

> <r_i_glide_ligand_efficiency>
-0.14398

> <r_i_glide_ligand_efficiency_ln>
-1.08152

> <r_i_glide_ligand_efficiency_sa>
-0.46644

> <r_i_glide_lipo>
-2.18927

> <r_i_glide_metal>
0

> <r_i_glide_rewards>
0.314665

> <s_i_glide_gridfile>
wee1_glide-grid

> <s_m_Source_File>
wee1_decoys_glide_SP.sdf

> <s_m_Source_Path>
/Users/zhangxujun/Desktop

> <s_m_entry_id>
2700

> <s_m_entry_name>
wee1_decoys_glide_SP.2425

> <s_m_subgroup_title>
wee1_decoys_glide_SP

> <s_m_subgroupid>
wee1_decoys_glide_SP


$$$$
