@<TRIPOS>MOLECULE
ZINC36053751_5962
66   68    1
SMALL
USER_CHARGES


@<TRIPOS>ATOM
      1 C1         -4.8344   49.5935   24.9060 C.3       1 UNK         0.0000 
      2 C2         -4.1846   50.3454   23.7339 C.3       1 UNK         0.0000 
      3 N3         -3.0218   51.1470   24.1500 N.am      1 UNK         0.0000 
      4 C4         -3.3775   52.4989   24.6169 C.3       1 UNK         0.0000 
      5 C5         -2.8906   53.6149   23.6830 C.3       1 UNK         0.0000 
      6 C6         -1.7683   50.6064   24.1307 C.2       1 UNK         0.0000 
      7 O7         -1.5415   49.4964   23.6445 O.2       1 UNK         0.0000 
      8 C8         -0.6740   51.3720   24.7027 C.2       1 UNK         0.0000 
      9 C9         -0.5269   51.5302   26.0526 C.2       1 UNK         0.0000 
     10 N10         0.4868   52.2399   26.6248 N.2       1 UNK         0.0000 
     11 C11         1.3703   52.7647   25.8723 C.2       1 UNK         0.0000 
     12 N12         1.4255   52.7307   24.4787 N.pl3     1 UNK         0.0000 
     13 C13         0.3344   52.0429   23.7146 C.3       1 UNK         0.0000 
     14 H14        -0.1764   52.8552   23.2042 H         1 UNK         0.0000 
     15 C15         0.8511   51.1084   22.6063 C.ar      1 UNK         0.0000 
     16 C16         1.8229   50.1522   22.9160 C.ar      1 UNK         0.0000 
     17 C17         2.3039   49.2957   21.9344 C.ar      1 UNK         0.0000 
     18 C18         1.8409   49.3871   20.6291 C.ar      1 UNK         0.0000 
     19 C19         0.8601   50.3202   20.3119 C.ar      1 UNK         0.0000 
     20 C20         0.3370   51.1815   21.2946 C.ar      1 UNK         0.0000 
     21 O21        -0.6732   52.0926   21.0301 O.3       1 UNK         0.0000 
     22 C22        -1.2729   52.0965   19.7372 C.3       1 UNK         0.0000 
     23 C23         2.4385   53.5056   23.9265 C.2       1 UNK         0.0000 
     24 C24         3.2204   54.0693   24.8668 C.2       1 UNK         0.0000 
     25 S25         2.7346   53.6961   26.5111 S.3       1 UNK         0.0000 
     26 C26         2.6730   53.6878   22.5027 C.2       1 UNK         0.0000 
     27 C27         3.8634   53.8324   21.8897 C.2       1 UNK         0.0000 
     28 O28         5.0577   53.8175   22.3697 O.co2     1 UNK         0.0000 
     29 N29         3.9052   54.0631   20.5361 N.pl3     1 UNK         0.0000 
     30 C30         4.7168   53.3687   19.5399 C.3       1 UNK         0.0000 
     31 C31         4.8047   54.1336   18.2024 C.3       1 UNK         0.0000 
     32 C32         5.8513   53.5007   17.2699 C.3       1 UNK         0.0000 
     33 C33         3.4406   54.2398   17.4931 C.3       1 UNK         0.0000 
     34 C34        -1.3997   50.9142   27.1427 C.3       1 UNK         0.0000 
     35 H35        -5.6905   49.0135   24.5614 H         1 UNK         0.0000 
     36 H36        -4.1328   48.8972   25.3678 H         1 UNK         0.0000 
     37 H37        -5.1908   50.2804   25.6741 H         1 UNK         0.0000 
     38 H38        -4.9263   50.9917   23.2615 H         1 UNK         0.0000 
     39 H39        -3.8980   49.6217   22.9680 H         1 UNK         0.0000 
     40 H40        -4.4600   52.5877   24.7248 H         1 UNK         0.0000 
     41 H41        -2.9781   52.6548   25.6193 H         1 UNK         0.0000 
     42 H42        -3.4928   54.5170   23.7928 H         1 UNK         0.0000 
     43 H43        -1.8661   53.8896   23.9146 H         1 UNK         0.0000 
     44 H44        -2.9150   53.2965   22.6424 H         1 UNK         0.0000 
     45 H45         2.2004   50.0620   23.9236 H         1 UNK         0.0000 
     46 H46         3.0543   48.5597   22.1826 H         1 UNK         0.0000 
     47 H47         2.2383   48.7325   19.8663 H         1 UNK         0.0000 
     48 H48         0.5181   50.3526   19.2893 H         1 UNK         0.0000 
     49 H49        -2.0863   52.8198   19.7091 H         1 UNK         0.0000 
     50 H50        -0.5533   52.3864   18.9691 H         1 UNK         0.0000 
     51 H51        -1.6975   51.1230   19.4865 H         1 UNK         0.0000 
     52 H52         4.0773   54.6999   24.6828 H         1 UNK         0.0000 
     53 H53         1.7927   53.7191   21.8781 H         1 UNK         0.0000 
     54 H54         3.0030   54.3049   20.1447 H         1 UNK         0.0000 
     55 H55         4.3150   52.3659   19.3850 H         1 UNK         0.0000 
     56 H56         5.7220   53.2372   19.9392 H         1 UNK         0.0000 
     57 H57         5.1461   55.1468   18.4226 H         1 UNK         0.0000 
     58 H58         5.5589   52.4961   16.9681 H         1 UNK         0.0000 
     59 H59         6.8245   53.4286   17.7557 H         1 UNK         0.0000 
     60 H60         5.9830   54.0903   16.3627 H         1 UNK         0.0000 
     61 H61         3.0261   53.2535   17.2850 H         1 UNK         0.0000 
     62 H62         2.7176   54.7828   18.0982 H         1 UNK         0.0000 
     63 H63         3.5267   54.7699   16.5446 H         1 UNK         0.0000 
     64 H64        -2.0390   50.1098   26.7790 H         1 UNK         0.0000 
     65 H65        -0.7831   50.4967   27.9391 H         1 UNK         0.0000 
     66 H66        -2.0373   51.6771   27.5888 H         1 UNK         0.0000 
@<TRIPOS>BOND
     1    1    2 1    
     2    1   35 1    
     3    1   36 1    
     4    1   37 1    
     5    2    3 1    
     6    2   38 1    
     7    2   39 1    
     8    3    4 1    
     9    3    6 am   BACKBONE|DICT|INTERRES
    10    4    5 1    
    11    4   40 1    
    12    4   41 1    
    13    5   42 1    
    14    5   43 1    
    15    5   44 1    
    16    6    7 2    
    17    6    8 1    
    18    8   13 1    
    19    8    9 2    
    20    9   10 1    
    21    9   34 1    
    22   10   11 2    
    23   11   25 1    
    24   11   12 1    
    25   12   13 1    
    26   12   23 1    
    27   13   14 1    
    28   13   15 1    
    29   15   20 ar   
    30   15   16 ar   
    31   16   17 ar   
    32   16   45 1    
    33   17   18 ar   
    34   17   46 1    
    35   18   19 ar   
    36   18   47 1    
    37   19   20 ar   
    38   19   48 1    
    39   20   21 1    
    40   21   22 1    
    41   22   49 1    
    42   22   50 1    
    43   22   51 1    
    44   23   24 2    
    45   23   26 1    
    46   24   25 1    
    47   24   52 1    
    48   26   27 2    
    49   26   53 1    
    50   27   28 1    
    51   27   29 1    
    52   29   30 1    
    53   29   54 1    
    54   30   31 1    
    55   30   55 1    
    56   30   56 1    
    57   31   32 1    
    58   31   33 1    
    59   31   57 1    
    60   32   58 1    
    61   32   59 1    
    62   32   60 1    
    63   33   61 1    
    64   33   62 1    
    65   33   63 1    
    66   34   64 1    
    67   34   65 1    
    68   34   66 1    
@<TRIPOS>SUBSTRUCTURE
     1 UNK         1 GROUP             0       ****    0 ROOT    
