@<TRIPOS>MOLECULE
ZINC03012150_2328
59   62    1
SMALL
USER_CHARGES


@<TRIPOS>ATOM
      1 C1          8.1401   56.1973   19.6369 C.3       1 UNK         0.0000 
      2 C2          6.9918   55.5127   20.3566 C.ar      1 UNK         0.0000 
      3 C3          5.8976   55.0486   19.6291 C.ar      1 UNK         0.0000 
      4 C4          4.8579   54.3843   20.2751 C.ar      1 UNK         0.0000 
      5 C5          4.8976   54.1715   21.6567 C.ar      1 UNK         0.0000 
      6 C6          6.0207   54.6069   22.3970 C.ar      1 UNK         0.0000 
      7 C7          7.0441   55.2978   21.7371 C.ar      1 UNK         0.0000 
      8 C8          6.2061   54.2998   23.8773 C.3       1 UNK         0.0000 
      9 N9          3.8084   53.4705   22.2002 N.am      1 UNK         0.0000 
     10 C10         3.0377   53.8485   23.2412 C.2       1 UNK         0.0000 
     11 O11         3.1803   54.8932   23.8769 O.2       1 UNK         0.0000 
     12 C12         2.0066   52.9024   23.6035 C.ar      1 UNK         0.0000 
     13 C13         1.9043   51.5612   23.1782 C.ar      1 UNK         0.0000 
     14 C14         0.8878   51.0015   23.9135 C.ar      1 UNK         0.0000 
     15 N15         0.3726   52.0321   24.6740 N.pl3     1 UNK         0.0000 
     16 N16         1.0617   53.1665   24.4865 N.2       1 UNK         0.0000 
     17 C17        -0.6667   51.9189   25.6950 C.3       1 UNK         0.0000 
     18 H18        -1.2744   52.8255   25.6583 H         1 UNK         0.0000 
     19 C19        -1.5359   50.7040   25.2867 C.3       1 UNK         0.0000 
     20 C20        -0.7190   49.4393   24.9089 C.3       1 UNK         0.0000 
     21 H21        -0.2242   49.0561   25.8033 H         1 UNK         0.0000 
     22 N22         0.3523   49.7311   23.9457 N.pl3     1 UNK         0.0000 
     23 C23        -1.6502   48.3152   24.4706 C.ar      1 UNK         0.0000 
     24 C24        -1.9649   48.1074   23.1219 C.ar      1 UNK         0.0000 
     25 C25        -2.8459   47.0936   22.7561 C.ar      1 UNK         0.0000 
     26 C26        -3.4326   46.2875   23.7328 C.ar      1 UNK         0.0000 
     27 C27        -3.1233   46.4753   25.0911 C.ar      1 UNK         0.0000 
     28 C28        -2.2297   47.4958   25.4406 C.ar      1 UNK         0.0000 
     29 O29        -3.7049   45.6180   26.0097 O.3       1 UNK         0.0000 
     30 C30        -3.4916   45.8479   27.4018 C.3       1 UNK         0.0000 
     31 O31        -4.2849   45.2884   23.3309 O.3       1 UNK         0.0000 
     32 C32        -5.6656   45.5825   23.5246 C.3       1 UNK         0.0000 
     33 C33        -0.1001   51.8170   27.1341 C.3       1 UNK         0.0000 
     34 F34         0.5997   52.8993   27.4680 F         1 UNK         0.0000 
     35 F35        -1.0819   51.6957   28.0280 F         1 UNK         0.0000 
     36 F36         0.7056   50.7676   27.2818 F         1 UNK         0.0000 
     37 H37         8.3914   55.6447   18.7301 H         1 UNK         0.0000 
     38 H38         9.0444   56.2337   20.2458 H         1 UNK         0.0000 
     39 H39         7.8577   57.2071   19.3370 H         1 UNK         0.0000 
     40 H40         5.8509   55.1967   18.5589 H         1 UNK         0.0000 
     41 H41         4.0159   54.0398   19.6912 H         1 UNK         0.0000 
     42 H42         7.9030   55.6378   22.2942 H         1 UNK         0.0000 
     43 H43         5.8403   53.2970   24.1114 H         1 UNK         0.0000 
     44 H44         7.2612   54.3178   24.1663 H         1 UNK         0.0000 
     45 H45         5.6597   55.0192   24.4931 H         1 UNK         0.0000 
     46 H46         3.4980   52.6679   21.6739 H         1 UNK         0.0000 
     47 H47         2.5280   51.0382   22.4681 H         1 UNK         0.0000 
     48 H48        -2.2216   50.4515   26.0988 H         1 UNK         0.0000 
     49 H49        -2.1945   50.9923   24.4626 H         1 UNK         0.0000 
     50 H50         0.9653   48.9346   23.8192 H         1 UNK         0.0000 
     51 H51        -1.5349   48.7345   22.3543 H         1 UNK         0.0000 
     52 H52        -3.0828   46.9344   21.7145 H         1 UNK         0.0000 
     53 H53        -1.9722   47.6675   26.4751 H         1 UNK         0.0000 
     54 H54        -4.0959   45.1459   27.9748 H         1 UNK         0.0000 
     55 H55        -2.4465   45.6988   27.6798 H         1 UNK         0.0000 
     56 H56        -3.7950   46.8528   27.7010 H         1 UNK         0.0000 
     57 H57        -6.2674   44.7678   23.1257 H         1 UNK         0.0000 
     58 H58        -5.9155   45.6935   24.5814 H         1 UNK         0.0000 
     59 H59        -5.9565   46.4946   23.0008 H         1 UNK         0.0000 
@<TRIPOS>BOND
     1    1    2 1    
     2    1   37 1    
     3    1   38 1    
     4    1   39 1    
     5    2    7 ar   
     6    2    3 ar   
     7    3    4 ar   
     8    3   40 1    
     9    4    5 ar   
    10    4   41 1    
    11    5    6 ar   
    12    5    9 1    
    13    6    7 ar   
    14    6    8 1    
    15    7   42 1    
    16    8   43 1    
    17    8   44 1    
    18    8   45 1    
    19    9   10 am   BACKBONE|DICT|INTERRES
    20    9   46 1    
    21   10   11 2    
    22   10   12 1    
    23   12   16 ar   
    24   12   13 ar   
    25   13   14 ar   
    26   13   47 1    
    27   14   22 1    
    28   14   15 ar   
    29   15   16 ar   
    30   15   17 1    
    31   17   18 1    
    32   17   19 1    
    33   17   33 1    
    34   19   20 1    
    35   19   48 1    
    36   19   49 1    
    37   20   21 1    
    38   20   22 1    
    39   20   23 1    
    40   22   50 1    
    41   23   28 ar   
    42   23   24 ar   
    43   24   25 ar   
    44   24   51 1    
    45   25   26 ar   
    46   25   52 1    
    47   26   27 ar   
    48   26   31 1    
    49   27   28 ar   
    50   27   29 1    
    51   28   53 1    
    52   29   30 1    
    53   30   54 1    
    54   30   55 1    
    55   30   56 1    
    56   31   32 1    
    57   32   57 1    
    58   32   58 1    
    59   32   59 1    
    60   33   34 1    
    61   33   35 1    
    62   33   36 1    
@<TRIPOS>SUBSTRUCTURE
     1 UNK         1 GROUP             0       ****    0 ROOT    
