@<TRIPOS>MOLECULE
ZINC22668050_2467
64   67    1
SMALL
USER_CHARGES


@<TRIPOS>ATOM
      1 C1          2.5823   55.4153   28.6985 C.3       1 UNK         0.0000 
      2 C2          3.4333   54.1430   28.5039 C.3       1 UNK         0.0000 
      3 H3          3.6590   53.7756   29.5060 H         1 UNK         0.0000 
      4 C4          2.6742   52.9970   27.8040 C.3       1 UNK         0.0000 
      5 C5          2.2787   53.3601   26.3548 C.3       1 UNK         0.0000 
      6 C6          3.5020   53.8994   25.6084 C.2       1 UNK         0.0000 
      7 C7          4.6410   54.3641   26.2956 C.2       1 UNK         0.0000 
      8 S8          5.9236   54.8198   25.2135 S.3       1 UNK         0.0000 
      9 C9          4.9703   54.3356   23.8516 C.ar      1 UNK         0.0000 
     10 C10         3.7075   53.8770   24.2090 C.ar      1 UNK         0.0000 
     11 C11         2.7933   53.4383   23.1493 C.ar      1 UNK         0.0000 
     12 O12         1.6257   53.0764   23.3261 O.2       1 UNK         0.0000 
     13 N13         3.4146   53.4574   21.8989 N.pl3     1 UNK         0.0000 
     14 C14         4.6948   53.9629   21.6268 C.ar      1 UNK         0.0000 
     15 N15         5.4496   54.3907   22.5815 N.2       1 UNK         0.0000 
     16 S16         5.3388   54.0475   19.9194 S.3       1 UNK         0.0000 
     17 C17         6.9051   54.9794   20.0580 C.3       1 UNK         0.0000 
     18 C18         6.7811   56.4399   19.5983 C.2       1 UNK         0.0000 
     19 O19         6.7042   57.2969   20.4808 O.2       1 UNK         0.0000 
     20 N20         6.9291   56.7529   18.2797 N.am      1 UNK         0.0000 
     21 C21         7.0736   58.1533   17.8303 C.3       1 UNK         0.0000 
     22 C22         5.8369   58.5627   16.9948 C.3       1 UNK         0.0000 
     23 C23         5.5048   57.5465   15.8762 C.3       1 UNK         0.0000 
     24 C24         5.4702   56.0963   16.4304 C.3       1 UNK         0.0000 
     25 C25         6.7774   55.7693   17.1878 C.3       1 UNK         0.0000 
     26 C26         4.1967   57.8950   15.1163 C.2       1 UNK         0.0000 
     27 O27         3.6217   57.0433   14.4443 O.2       1 UNK         0.0000 
     28 N28         3.7049   59.1358   15.1689 N.am      1 UNK         0.0000 
     29 C29         2.6204   52.8490   20.7961 C.3       1 UNK         0.0000 
     30 C30         2.9954   51.3835   20.4449 C.3       1 UNK         0.0000 
     31 C31         2.5924   50.3835   21.5445 C.3       1 UNK         0.0000 
     32 C32         2.3692   50.9763   19.1011 C.3       1 UNK         0.0000 
     33 C33         4.8059   54.3750   27.8152 C.3       1 UNK         0.0000 
     34 H34         2.3046   55.8674   27.7484 H         1 UNK         0.0000 
     35 H35         1.6574   55.1872   29.2283 H         1 UNK         0.0000 
     36 H36         3.1077   56.1701   29.2819 H         1 UNK         0.0000 
     37 H37         1.7658   52.7566   28.3585 H         1 UNK         0.0000 
     38 H38         3.2883   52.0964   27.8029 H         1 UNK         0.0000 
     39 H39         1.8670   52.4806   25.8611 H         1 UNK         0.0000 
     40 H40         1.4793   54.0965   26.3434 H         1 UNK         0.0000 
     41 H41         7.3376   54.9485   21.0576 H         1 UNK         0.0000 
     42 H42         7.6618   54.4961   19.4409 H         1 UNK         0.0000 
     43 H43         7.2760   58.8479   18.6471 H         1 UNK         0.0000 
     44 H44         7.9592   58.1848   17.1956 H         1 UNK         0.0000 
     45 H45         4.9999   58.6377   17.6826 H         1 UNK         0.0000 
     46 H46         6.0692   59.5413   16.5698 H         1 UNK         0.0000 
     47 H47         6.2765   57.6049   15.1049 H         1 UNK         0.0000 
     48 H48         5.4000   55.3694   15.6199 H         1 UNK         0.0000 
     49 H49         4.6547   55.9550   17.1413 H         1 UNK         0.0000 
     50 H50         7.6300   55.9072   16.5198 H         1 UNK         0.0000 
     51 H51         6.8472   54.7263   17.4944 H         1 UNK         0.0000 
     52 H52         2.8594   59.3412   14.6619 H         1 UNK         0.0000 
     53 H53         4.1276   59.8735   15.7291 H         1 UNK         0.0000 
     54 H54         1.5477   52.9034   20.9865 H         1 UNK         0.0000 
     55 H55         2.7347   53.4625   19.9014 H         1 UNK         0.0000 
     56 H56         4.0782   51.3219   20.3137 H         1 UNK         0.0000 
     57 H57         1.5192   50.4171   21.7418 H         1 UNK         0.0000 
     58 H58         2.8459   49.3606   21.2639 H         1 UNK         0.0000 
     59 H59         3.1043   50.5937   22.4814 H         1 UNK         0.0000 
     60 H60         1.2796   51.0054   19.1364 H         1 UNK         0.0000 
     61 H61         2.6976   51.6372   18.2980 H         1 UNK         0.0000 
     62 H62         2.6686   49.9666   18.8161 H         1 UNK         0.0000 
     63 H63         5.2663   55.2964   28.1644 H         1 UNK         0.0000 
     64 H64         5.4873   53.5761   28.1125 H         1 UNK         0.0000 
@<TRIPOS>BOND
     1    1    2 1    
     2    1   34 1    
     3    1   35 1    
     4    1   36 1    
     5    2    3 1    
     6    2   33 1    
     7    2    4 1    
     8    4    5 1    
     9    4   37 1    
    10    4   38 1    
    11    5    6 1    
    12    5   39 1    
    13    5   40 1    
    14    6   10 1    
    15    6    7 2    
    16    7    8 1    
    17    7   33 1    
    18    8    9 1    
    19    9   15 ar   
    20    9   10 ar   
    21   10   11 ar   
    22   11   12 2    
    23   11   13 ar   
    24   13   14 ar   
    25   13   29 1    
    26   14   15 ar   
    27   14   16 1    
    28   16   17 1    
    29   17   18 1    
    30   17   41 1    
    31   17   42 1    
    32   18   19 2    
    33   18   20 am   BACKBONE|DICT|INTERRES
    34   20   25 1    
    35   20   21 1    
    36   21   22 1    
    37   21   43 1    
    38   21   44 1    
    39   22   23 1    
    40   22   45 1    
    41   22   46 1    
    42   23   24 1    
    43   23   26 1    
    44   23   47 1    
    45   24   25 1    
    46   24   48 1    
    47   24   49 1    
    48   25   50 1    
    49   25   51 1    
    50   26   27 2    
    51   26   28 am   BACKBONE|DICT|INTERRES
    52   28   52 1    
    53   28   53 1    
    54   29   30 1    
    55   29   54 1    
    56   29   55 1    
    57   30   31 1    
    58   30   32 1    
    59   30   56 1    
    60   31   57 1    
    61   31   58 1    
    62   31   59 1    
    63   32   60 1    
    64   32   61 1    
    65   32   62 1    
    66   33   63 1    
    67   33   64 1    
@<TRIPOS>SUBSTRUCTURE
     1 UNK         1 GROUP             0       ****    0 ROOT    
