ZINC40378555_1681
                    3D
 Schrodinger Suite 2024-2.
 33 34  0  0  1  0            999 V2000
    3.0832   52.8337   30.4638 C   0  0  0  0  0  0
    1.8171   52.6341   29.6383 C   0  0  0  0  0  0
    0.6583   52.2225   30.3024 C   0  0  0  0  0  0
   -0.4962   51.9151   29.5916 C   0  0  0  0  0  0
   -0.5122   52.0375   28.2032 C   0  0  0  0  0  0
    0.6212   52.4964   27.5340 C   0  0  0  0  0  0
    1.7962   52.8138   28.2397 C   0  0  0  0  0  0
    2.9654   53.2965   27.6123 N   0  0  0  0  0  0
    3.1699   53.6968   26.3400 C   0  0  0  0  0  0
    2.3220   53.6969   25.4474 O   0  0  0  0  0  0
    4.5204   54.1347   26.0754 C   0  0  0  0  0  0
    5.6132   54.3824   26.9300 C   0  0  0  0  0  0
    6.7046   54.8194   26.3305 N   0  0  0  0  0  0
    6.5655   54.9208   25.0361 C   0  0  0  0  0  0
    5.0083   54.4936   24.4358 S   0  0  0  0  0  0
    5.7269   54.2159   28.4324 C   0  0  0  0  0  0
   -1.9637   51.5842   27.2617 S   0  0  0  0  0  0
   -3.0523   51.2965   28.2006 O   0  0  0  0  0  0
   -2.1347   52.5852   26.2045 O   0  0  0  0  0  0
   -1.5276   50.0967   26.4816 N   0  0  0  0  0  0
    2.9610   52.4970   31.4945 H   0  0  0  0  0  0
    3.8996   52.2508   30.0376 H   0  0  0  0  0  0
    3.3832   53.8807   30.4605 H   0  0  0  0  0  0
    0.6497   52.0975   31.3762 H   0  0  0  0  0  0
   -1.3605   51.5465   30.1281 H   0  0  0  0  0  0
    0.5607   52.5698   26.4610 H   0  0  0  0  0  0
    3.7681   53.3746   28.2147 H   0  0  0  0  0  0
    7.3532   55.2424   24.3690 H   0  0  0  0  0  0
    5.0000   54.8333   28.9604 H   0  0  0  0  0  0
    5.5756   53.1780   28.7275 H   0  0  0  0  0  0
    6.7048   54.4912   28.8255 H   0  0  0  0  0  0
   -1.5288   49.3244   27.1785 H   0  0  0  0  0  0
   -2.1742   49.8692   25.7271 H   0  0  0  0  0  0
  1  2  1  0  0  0
  1 21  1  0  0  0
  1 22  1  0  0  0
  1 23  1  0  0  0
  2  7  2  0  0  0
  2  3  1  0  0  0
  3  4  2  0  0  0
  3 24  1  0  0  0
  4  5  1  0  0  0
  4 25  1  0  0  0
  5  6  2  0  0  0
  5 17  1  0  0  0
  6  7  1  0  0  0
  6 26  1  0  0  0
  7  8  1  0  0  0
  8  9  1  0  0  0
  8 27  1  0  0  0
  9 10  2  0  0  0
  9 11  1  0  0  0
 11 15  1  0  0  0
 11 12  2  0  0  0
 12 13  1  0  0  0
 12 16  1  0  0  0
 13 14  2  0  0  0
 14 15  1  0  0  0
 14 28  1  0  0  0
 16 29  1  0  0  0
 16 30  1  0  0  0
 16 31  1  0  0  0
 17 18  2  0  0  0
 17 19  2  0  0  0
 17 20  1  0  0  0
 20 32  1  0  0  0
 20 33  1  0  0  0
M  END
> <i_i_glide_confnum>
2

> <i_i_glide_lignum>
1682

> <i_i_glide_posenum>
310

> <i_i_glide_rotatable_bonds>
4

> <i_m_Source_File_Index>
4341

> <b_m_subgroup_collapsed>
0

> <r_i_docking_score>
-6.53882

> <r_i_glide_ecoul>
-6.00964

> <r_i_glide_eff_state_penalty>
0

> <r_i_glide_einternal>
1.16689

> <r_i_glide_emodel>
-57.6685

> <r_i_glide_energy>
-40.0584

> <r_i_glide_erotb>
0.573784

> <r_i_glide_esite>
-0.237602

> <r_i_glide_evdw>
-34.0488

> <r_i_glide_gscore>
-6.53882

> <r_i_glide_hbond>
-0.371126

> <r_i_glide_ligand_efficiency>
-0.326941

> <r_i_glide_ligand_efficiency_ln>
-1.63645

> <r_i_glide_ligand_efficiency_sa>
-0.887454

> <r_i_glide_lipo>
-1.76676

> <r_i_glide_metal>
0

> <r_i_glide_rewards>
-2.13324

> <s_i_glide_gridfile>
wee1_glide-grid

> <s_m_Source_File>
wee1_decoys_glide_SP.sdf

> <s_m_Source_Path>
/Users/zhangxujun/Desktop

> <s_m_entry_id>
4616

> <s_m_entry_name>
wee1_decoys_glide_SP.4341

> <s_m_subgroup_title>
wee1_decoys_glide_SP

> <s_m_subgroupid>
wee1_decoys_glide_SP


$$$$
