@<TRIPOS>MOLECULE
ZINC40684222_3942
59   62    1
SMALL
USER_CHARGES


@<TRIPOS>ATOM
      1 C1          6.5091   54.2486   25.4229 C.3       1 UNK         0.0000 
      2 C2          5.5095   54.1728   26.5599 C.ar      1 UNK         0.0000 
      3 C3          5.8778   54.5241   27.8571 C.ar      1 UNK         0.0000 
      4 C4          4.9345   54.5001   28.8819 C.ar      1 UNK         0.0000 
      5 C5          3.6199   54.1108   28.6281 C.ar      1 UNK         0.0000 
      6 C6          3.2532   53.6909   27.3373 C.ar      1 UNK         0.0000 
      7 C7          4.2083   53.7386   26.3117 C.ar      1 UNK         0.0000 
      8 N8          1.9541   53.1891   27.1338 N.pl3     1 UNK         0.0000 
      9 C9          1.1956   52.8974   25.9828 C.ar      1 UNK         0.0000 
     10 C10         0.0530   52.0655   26.0734 C.ar      1 UNK         0.0000 
     11 C11        -0.7055   51.8947   24.8816 C.ar      1 UNK         0.0000 
     12 N12        -0.3143   52.4857   23.7163 N.ar      1 UNK         0.0000 
     13 C13         0.8017   53.2432   23.7329 C.ar      1 UNK         0.0000 
     14 N14         1.5661   53.4855   24.8168 N.ar      1 UNK         0.0000 
     15 N15        -1.8989   51.1436   24.7615 N.pl3     1 UNK         0.0000 
     16 C16        -2.7239   51.0529   23.5447 C.3       1 UNK         0.0000 
     17 C17        -4.0376   50.3379   23.9031 C.3       1 UNK         0.0000 
     18 C18        -3.5327   49.4253   25.0107 C.3       1 UNK         0.0000 
     19 C19        -2.6621   50.4106   25.7845 C.3       1 UNK         0.0000 
     20 H20        -2.0091   49.8397   26.4433 H         1 UNK         0.0000 
     21 C21        -3.5579   51.3761   26.6081 C.3       1 UNK         0.0000 
     22 C22        -4.7254   52.0749   25.8251 C.3       1 UNK         0.0000 
     23 C23        -5.0877   51.3394   24.4814 C.3       1 UNK         0.0000 
     24 C24        -5.9812   52.1336   26.7277 C.3       1 UNK         0.0000 
     25 C25        -4.2522   53.5067   25.4649 C.3       1 UNK         0.0000 
     26 C26        -4.6045   49.5499   22.7072 C.3       1 UNK         0.0000 
     27 N27        -0.2846   51.4488   27.2953 N.pl3     1 UNK         0.0000 
     28 O28         2.7255   54.1273   29.6724 O.3       1 UNK         0.0000 
     29 C29         1.8843   55.2783   29.6887 C.3       1 UNK         0.0000 
     30 H30         6.5614   53.2969   24.8913 H         1 UNK         0.0000 
     31 H31         6.2026   55.0101   24.7046 H         1 UNK         0.0000 
     32 H32         7.5046   54.4934   25.7863 H         1 UNK         0.0000 
     33 H33         6.8830   54.8470   28.0785 H         1 UNK         0.0000 
     34 H34         5.2196   54.8200   29.8730 H         1 UNK         0.0000 
     35 H35         3.9658   53.4147   25.3132 H         1 UNK         0.0000 
     36 H36         1.5528   52.8155   27.9774 H         1 UNK         0.0000 
     37 H37         1.1069   53.6994   22.7999 H         1 UNK         0.0000 
     38 H38        -2.1662   50.4855   22.7942 H         1 UNK         0.0000 
     39 H39        -2.9412   52.0383   23.1299 H         1 UNK         0.0000 
     40 H40        -4.3266   48.9826   25.6146 H         1 UNK         0.0000 
     41 H41        -2.9243   48.6060   24.6164 H         1 UNK         0.0000 
     42 H42        -4.0180   50.6701   27.3056 H         1 UNK         0.0000 
     43 H43        -3.0143   52.0583   27.2620 H         1 UNK         0.0000 
     44 H44        -5.5339   52.0023   23.7369 H         1 UNK         0.0000 
     45 H45        -5.9054   50.6577   24.7259 H         1 UNK         0.0000 
     46 H46        -6.8088   52.6332   26.2243 H         1 UNK         0.0000 
     47 H47        -6.3242   51.1375   27.0082 H         1 UNK         0.0000 
     48 H48        -5.7825   52.6780   27.6510 H         1 UNK         0.0000 
     49 H49        -5.0159   54.0479   24.9045 H         1 UNK         0.0000 
     50 H50        -4.0378   54.0916   26.3610 H         1 UNK         0.0000 
     51 H51        -3.3472   53.5083   24.8595 H         1 UNK         0.0000 
     52 H52        -4.9027   50.2198   21.9011 H         1 UNK         0.0000 
     53 H53        -5.4816   48.9681   22.9913 H         1 UNK         0.0000 
     54 H54        -3.8704   48.8525   22.2965 H         1 UNK         0.0000 
     55 H55         0.3579   51.4868   28.0757 H         1 UNK         0.0000 
     56 H56        -0.9801   50.7144   27.2921 H         1 UNK         0.0000 
     57 H57         1.2529   55.2557   30.5784 H         1 UNK         0.0000 
     58 H58         2.4660   56.2018   29.7191 H         1 UNK         0.0000 
     59 H59         1.2238   55.3155   28.8196 H         1 UNK         0.0000 
@<TRIPOS>BOND
     1    1    2 1    
     2    1   30 1    
     3    1   31 1    
     4    1   32 1    
     5    2    7 ar   
     6    2    3 ar   
     7    3    4 ar   
     8    3   33 1    
     9    4    5 ar   
    10    4   34 1    
    11    5    6 ar   
    12    5   28 1    
    13    6    7 ar   
    14    6    8 1    
    15    7   35 1    
    16    8    9 1    
    17    8   36 1    
    18    9   14 ar   
    19    9   10 ar   
    20   10   11 ar   
    21   10   27 1    
    22   11   12 ar   
    23   11   15 1    
    24   12   13 ar   
    25   13   14 ar   
    26   13   37 1    
    27   15   19 1    
    28   15   16 1    
    29   16   17 1    
    30   16   38 1    
    31   16   39 1    
    32   17   23 1    
    33   17   18 1    
    34   17   26 1    
    35   18   19 1    
    36   18   40 1    
    37   18   41 1    
    38   19   20 1    
    39   19   21 1    
    40   21   22 1    
    41   21   42 1    
    42   21   43 1    
    43   22   23 1    
    44   22   24 1    
    45   22   25 1    
    46   23   44 1    
    47   23   45 1    
    48   24   46 1    
    49   24   47 1    
    50   24   48 1    
    51   25   49 1    
    52   25   50 1    
    53   25   51 1    
    54   26   52 1    
    55   26   53 1    
    56   26   54 1    
    57   27   55 1    
    58   27   56 1    
    59   28   29 1    
    60   29   57 1    
    61   29   58 1    
    62   29   59 1    
@<TRIPOS>SUBSTRUCTURE
     1 UNK         1 GROUP             0       ****    0 ROOT    
