ZINC03011938_578
                    3D
 Schrodinger Suite 2024-2.
 49 52  0  0  1  0            999 V2000
    0.4019   52.9578   31.6905 C   0  0  0  0  0  0
    1.6794   52.4967   31.2806 O   0  0  0  0  0  0
    2.1913   52.9049   30.0651 C   0  0  0  0  0  0
    1.4648   53.6052   29.0901 C   0  0  0  0  0  0
    2.0744   53.9854   27.8948 C   0  0  0  0  0  0
    3.4224   53.7052   27.6623 C   0  0  0  0  0  0
    4.1540   53.0062   28.6329 C   0  0  0  0  0  0
    3.5310   52.5998   29.8132 C   0  0  0  0  0  0
    4.4257   51.6968   30.9819 Cl  0  0  0  0  0  0
    3.9406   54.0752   26.4114 N   0  0  0  0  0  0
    5.2231   54.3051   26.0493 C   0  0  0  0  0  0
    6.1760   54.3870   26.8283 O   0  0  0  0  0  0
    5.4045   54.4537   24.6177 C   0  0  0  0  0  0
    6.5605   54.9386   23.9848 C   0  0  0  0  0  0
    6.3130   54.8970   22.6264 C   0  0  0  0  0  0
    5.0843   54.2793   22.4974 N   0  0  0  0  0  0
    4.5215   54.0931   23.7026 N   0  0  0  0  0  0
    4.3466   54.0577   21.2505 C   0  0  1  0  0  0
    3.6619   54.8962   21.1353 H   0  0  0  0  0  0
    5.3721   54.1057   20.0945 C   0  0  0  0  0  0
    6.4307   55.2426   20.1907 C   0  0  1  0  0  0
    5.9024   56.1891   20.0644 H   0  0  0  0  0  0
    7.0504   55.2965   21.5294 N   0  0  0  0  0  0
    7.4375   55.2675   19.0200 C   0  0  0  0  0  0
    8.6381   55.9855   19.1403 C   0  0  0  0  0  0
    9.5409   56.0458   18.0826 C   0  0  0  0  0  0
    9.2599   55.3858   16.8904 C   0  0  0  0  0  0
    8.0757   54.6705   16.7477 C   0  0  0  0  0  0
    7.1687   54.6150   17.8039 C   0  0  0  0  0  0
   10.3888   55.4515   15.5847 Cl  0  0  0  0  0  0
    3.4777   52.7713   21.2316 C   0  0  0  0  0  0
    2.9183   52.5796   20.0363 F   0  0  0  0  0  0
    4.2106   51.6863   21.4889 F   0  0  0  0  0  0
    2.4846   52.8141   22.1212 F   0  0  0  0  0  0
    0.3047   52.7347   32.7521 H   0  0  0  0  0  0
   -0.4001   52.4556   31.1490 H   0  0  0  0  0  0
    0.2982   54.0387   31.5815 H   0  0  0  0  0  0
    0.4230   53.8487   29.2371 H   0  0  0  0  0  0
    1.4893   54.4968   27.1443 H   0  0  0  0  0  0
    5.1876   52.7417   28.4625 H   0  0  0  0  0  0
    3.2623   54.1266   25.6657 H   0  0  0  0  0  0
    7.4599   55.3023   24.4619 H   0  0  0  0  0  0
    5.8803   53.1423   20.0193 H   0  0  0  0  0  0
    4.7997   54.1927   19.1710 H   0  0  0  0  0  0
    7.7062   56.0574   21.6287 H   0  0  0  0  0  0
    8.8923   56.4962   20.0560 H   0  0  0  0  0  0
   10.4683   56.5903   18.1937 H   0  0  0  0  0  0
    7.8603   54.1527   15.8236 H   0  0  0  0  0  0
    6.2657   54.0453   17.6433 H   0  0  0  0  0  0
  1  2  1  0  0  0
  1 35  1  0  0  0
  1 36  1  0  0  0
  1 37  1  0  0  0
  2  3  1  0  0  0
  3  8  2  0  0  0
  3  4  1  0  0  0
  4  5  2  0  0  0
  4 38  1  0  0  0
  5  6  1  0  0  0
  5 39  1  0  0  0
  6  7  2  0  0  0
  6 10  1  0  0  0
  7  8  1  0  0  0
  7 40  1  0  0  0
  8  9  1  0  0  0
 10 11  1  0  0  0
 10 41  1  0  0  0
 11 12  2  0  0  0
 11 13  1  0  0  0
 13 17  2  0  0  0
 13 14  1  0  0  0
 14 15  2  0  0  0
 14 42  1  0  0  0
 15 23  1  0  0  0
 15 16  1  0  0  0
 16 17  1  0  0  0
 16 18  1  0  0  0
 18 19  1  0  0  0
 18 20  1  0  0  0
 18 31  1  0  0  0
 20 21  1  0  0  0
 20 43  1  0  0  0
 20 44  1  0  0  0
 21 22  1  0  0  0
 21 23  1  0  0  0
 21 24  1  0  0  0
 23 45  1  0  0  0
 24 29  2  0  0  0
 24 25  1  0  0  0
 25 26  2  0  0  0
 25 46  1  0  0  0
 26 27  1  0  0  0
 26 47  1  0  0  0
 27 28  2  0  0  0
 27 30  1  0  0  0
 28 29  1  0  0  0
 28 48  1  0  0  0
 29 49  1  0  0  0
 31 32  1  0  0  0
 31 33  1  0  0  0
 31 34  1  0  0  0
M  END
> <i_i_glide_confnum>
32

> <i_i_glide_lignum>
579

> <i_i_glide_posenum>
357

> <i_i_glide_rotatable_bonds>
6

> <i_m_Source_File_Index>
5955

> <b_m_subgroup_collapsed>
0

> <r_i_docking_score>
-6.2216

> <r_i_glide_ecoul>
-4.01491

> <r_i_glide_eff_state_penalty>
0

> <r_i_glide_einternal>
6.63911

> <r_i_glide_emodel>
-66.2442

> <r_i_glide_energy>
-50.6291

> <r_i_glide_erotb>
0.345033

> <r_i_glide_esite>
-0.0188126

> <r_i_glide_evdw>
-46.6142

> <r_i_glide_gscore>
-6.2216

> <r_i_glide_hbond>
-0.003555

> <r_i_glide_ligand_efficiency>
-0.194425

> <r_i_glide_ligand_efficiency_ln>
-1.39319

> <r_i_glide_ligand_efficiency_sa>
-0.617261

> <r_i_glide_lipo>
-2.76235

> <r_i_glide_metal>
0

> <r_i_glide_rewards>
-0.848975

> <s_i_glide_gridfile>
wee1_glide-grid

> <s_m_Source_File>
wee1_decoys_glide_SP.sdf

> <s_m_Source_Path>
/Users/zhangxujun/Desktop

> <s_m_entry_id>
6230

> <s_m_entry_name>
wee1_decoys_glide_SP.5955

> <s_m_subgroup_title>
wee1_decoys_glide_SP

> <s_m_subgroupid>
wee1_decoys_glide_SP


$$$$
