@<TRIPOS>MOLECULE
ZINC53007031_1755
39   40    1
SMALL
USER_CHARGES


@<TRIPOS>ATOM
      1 C1         -0.7775   51.5608   25.1209 C.3       1 UNK         0.0000 
      2 C2         -0.5247   51.7131   26.6097 C.ar      1 UNK         0.0000 
      3 C3         -1.5623   51.5599   27.5203 C.ar      1 UNK         0.0000 
      4 C4         -1.3138   51.6945   28.8821 C.ar      1 UNK         0.0000 
      5 C5         -0.0448   52.0043   29.3739 C.ar      1 UNK         0.0000 
      6 C6          1.0190   52.1740   28.4493 C.ar      1 UNK         0.0000 
      7 C7          0.7535   52.0047   27.0783 C.ar      1 UNK         0.0000 
      8 C8          2.4551   52.4037   28.8878 C.2       1 UNK         0.0000 
      9 O9          2.9119   51.7012   29.7968 O.2       1 UNK         0.0000 
     10 N10         3.2168   53.3375   28.2417 N.am      1 UNK         0.0000 
     11 C11         2.6755   54.3533   27.3068 C.3       1 UNK         0.0000 
     12 C12         3.4803   54.2541   25.9955 C.3       1 UNK         0.0000 
     13 C13         4.9730   54.5079   26.2417 C.3       1 UNK         0.0000 
     14 C14         5.5080   53.5860   27.3495 C.3       1 UNK         0.0000 
     15 C15         4.6341   53.5259   28.6324 C.3       1 UNK         0.0000 
     16 H16         4.9861   52.6352   29.1594 H         1 UNK         0.0000 
     17 C17         4.8439   54.6930   29.6083 C.3       1 UNK         0.0000 
     18 N18         0.0535   52.0974   30.7755 N.pl3     1 UNK         0.0000 
     19 N19         0.7042   53.2354   31.3846 N.3       1 UNK         0.0000 
     20 H20        -1.8264   51.7305   24.8748 H         1 UNK         0.0000 
     21 H21        -0.4880   50.5650   24.7880 H         1 UNK         0.0000 
     22 H22        -0.1963   52.2924   24.5583 H         1 UNK         0.0000 
     23 H23        -2.5555   51.3016   27.1853 H         1 UNK         0.0000 
     24 H24        -2.1201   51.5055   29.5709 H         1 UNK         0.0000 
     25 H25         1.5531   52.0755   26.3553 H         1 UNK         0.0000 
     26 H26         1.5990   54.3107   27.1507 H         1 UNK         0.0000 
     27 H27         2.8457   55.3326   27.7528 H         1 UNK         0.0000 
     28 H28         3.3344   53.2779   25.5317 H         1 UNK         0.0000 
     29 H29         3.1053   54.9776   25.2734 H         1 UNK         0.0000 
     30 H30         5.5386   54.3575   25.3213 H         1 UNK         0.0000 
     31 H31         5.1283   55.5483   26.5268 H         1 UNK         0.0000 
     32 H32         5.5449   52.5748   26.9380 H         1 UNK         0.0000 
     33 H33         6.5408   53.8347   27.5962 H         1 UNK         0.0000 
     34 H34         5.9047   54.8971   29.7336 H         1 UNK         0.0000 
     35 H35         4.3708   55.6122   29.2778 H         1 UNK         0.0000 
     36 H36         4.4393   54.4416   30.5865 H         1 UNK         0.0000 
     37 H37        -0.7371   51.8074   31.3621 H         1 UNK         0.0000 
     38 H38        -0.0125   53.8809   31.6891 H         1 UNK         0.0000 
     39 H39         1.2153   52.8859   32.1870 H         1 UNK         0.0000 
@<TRIPOS>BOND
     1    1    2 1    
     2    1   20 1    
     3    1   21 1    
     4    1   22 1    
     5    2    7 ar   
     6    2    3 ar   
     7    3    4 ar   
     8    3   23 1    
     9    4    5 ar   
    10    4   24 1    
    11    5    6 ar   
    12    5   18 1    
    13    6    7 ar   
    14    6    8 1    
    15    7   25 1    
    16    8    9 2    
    17    8   10 am   BACKBONE|DICT|INTERRES
    18   10   15 1    
    19   10   11 1    
    20   11   12 1    
    21   11   26 1    
    22   11   27 1    
    23   12   13 1    
    24   12   28 1    
    25   12   29 1    
    26   13   14 1    
    27   13   30 1    
    28   13   31 1    
    29   14   15 1    
    30   14   32 1    
    31   14   33 1    
    32   15   16 1    
    33   15   17 1    
    34   17   34 1    
    35   17   35 1    
    36   17   36 1    
    37   18   19 1    
    38   18   37 1    
    39   19   38 1    
    40   19   39 1    
@<TRIPOS>SUBSTRUCTURE
     1 UNK         1 GROUP             0       ****    0 ROOT    
