@<TRIPOS>MOLECULE
ZINC36027282_5264
63   66    1
SMALL
USER_CHARGES


@<TRIPOS>ATOM
      1 C1          5.0239   53.8493   24.4209 C.3       1 UNK         0.0000 
      2 C2          4.9682   53.4253   22.9412 C.3       1 UNK         0.0000 
      3 C3          3.5387   53.2388   22.3447 C.3       1 UNK         0.0000 
      4 H4          3.1043   52.4025   22.8896 H         1 UNK         0.0000 
      5 C5          2.6230   54.4398   22.6331 C.3       1 UNK         0.0000 
      6 N6          3.5057   52.8631   20.9053 N.am      1 UNK         0.0000 
      7 C7          4.1953   53.5235   19.9400 C.2       1 UNK         0.0000 
      8 O8          4.9793   54.4611   20.0768 O.2       1 UNK         0.0000 
      9 C9          3.8623   52.9167   18.5690 C.3       1 UNK         0.0000 
     10 H10         4.7731   52.4988   18.1311 H         1 UNK         0.0000 
     11 N11         3.1047   51.6878   18.9324 N.4       1 UNK         0.0000 
     12 C12         2.5887   51.8499   20.3628 C.3       1 UNK         0.0000 
     13 C13         2.6582   50.4580   21.0554 C.3       1 UNK         0.0000 
     14 C14         1.7218   49.4014   20.4188 C.3       1 UNK         0.0000 
     15 N15         0.3384   49.9278   20.2981 N.pl3     1 UNK         0.0000 
     16 C16         0.1890   51.2359   19.6144 C.3       1 UNK         0.0000 
     17 C17         1.1053   52.3050   20.2394 C.3       1 UNK         0.0000 
     18 S18        -0.9482   49.3257   21.3670 S.o2      1 UNK         0.0000 
     19 O19        -2.1883   50.0416   21.0454 O.2       1 UNK         0.0000 
     20 O20        -0.8964   47.8600   21.3419 O.2       1 UNK         0.0000 
     21 C21        -0.4839   49.8387   23.0237 C.ar      1 UNK         0.0000 
     22 C22        -0.0404   48.8964   23.9558 C.ar      1 UNK         0.0000 
     23 C23         0.3046   49.3004   25.2427 C.ar      1 UNK         0.0000 
     24 C24         0.2185   50.6475   25.5905 C.ar      1 UNK         0.0000 
     25 C25        -0.2249   51.5906   24.6646 C.ar      1 UNK         0.0000 
     26 C26        -0.5856   51.1850   23.3821 C.ar      1 UNK         0.0000 
     27 Cl27        0.6714   51.1514   27.1776 Cl        1 UNK         0.0000 
     28 C28         3.1687   53.8721   17.5700 C.3       1 UNK         0.0000 
     29 C29         4.0612   54.9703   17.0064 C.ar      1 UNK         0.0000 
     30 C30         4.9531   54.6849   15.9500 C.ar      1 UNK         0.0000 
     31 C31         5.8309   55.6606   15.4974 C.ar      1 UNK         0.0000 
     32 C32         5.8575   56.9128   16.0989 C.ar      1 UNK         0.0000 
     33 C33         5.0154   57.1967   17.1663 C.ar      1 UNK         0.0000 
     34 C34         4.1312   56.2340   17.6310 C.ar      1 UNK         0.0000 
     35 H35         6.0222   53.6973   24.8292 H         1 UNK         0.0000 
     36 H36         4.7889   54.9082   24.5361 H         1 UNK         0.0000 
     37 H37         4.3216   53.2969   25.0439 H         1 UNK         0.0000 
     38 H38         5.5207   52.4969   22.8140 H         1 UNK         0.0000 
     39 H39         5.5372   54.1733   22.3928 H         1 UNK         0.0000 
     40 H40         2.6261   54.7182   23.6866 H         1 UNK         0.0000 
     41 H41         2.9826   55.2967   22.0800 H         1 UNK         0.0000 
     42 H42         1.5846   54.2473   22.3743 H         1 UNK         0.0000 
     43 H43         2.3547   51.4834   18.2892 H         1 UNK         0.0000 
     44 H44         3.6834   50.0967   21.0788 H         1 UNK         0.0000 
     45 H45         2.3710   50.5532   22.1033 H         1 UNK         0.0000 
     46 H46         2.0621   49.0814   19.4324 H         1 UNK         0.0000 
     47 H47         1.7024   48.5036   21.0385 H         1 UNK         0.0000 
     48 H48         0.3789   51.0895   18.5492 H         1 UNK         0.0000 
     49 H49        -0.8495   51.5581   19.6854 H         1 UNK         0.0000 
     50 H50         0.7223   52.5468   21.2275 H         1 UNK         0.0000 
     51 H51         1.0158   53.2234   19.6626 H         1 UNK         0.0000 
     52 H52         0.0283   47.8492   23.6981 H         1 UNK         0.0000 
     53 H53         0.6332   48.5675   25.9693 H         1 UNK         0.0000 
     54 H54        -0.2970   52.6314   24.9439 H         1 UNK         0.0000 
     55 H55        -0.9509   51.9133   22.6723 H         1 UNK         0.0000 
     56 H56         2.2906   54.3358   18.0236 H         1 UNK         0.0000 
     57 H57         2.7949   53.2950   16.7206 H         1 UNK         0.0000 
     58 H58         4.9539   53.7062   15.4893 H         1 UNK         0.0000 
     59 H59         6.5046   55.4416   14.6820 H         1 UNK         0.0000 
     60 H60         6.5450   57.6677   15.7451 H         1 UNK         0.0000 
     61 H61         5.0559   58.1693   17.6362 H         1 UNK         0.0000 
     62 H62         3.5078   56.4550   18.4826 H         1 UNK         0.0000 
     63 H63         3.7438   50.8970   18.8666 H         1 UNK         0.0000 
@<TRIPOS>BOND
     1    1    2 1    
     2    1   35 1    
     3    1   36 1    
     4    1   37 1    
     5    2    3 1    
     6    2   38 1    
     7    2   39 1    
     8    3    4 1    
     9    3    5 1    
    10    3    6 1    
    11    5   40 1    
    12    5   41 1    
    13    5   42 1    
    14    6   12 1    
    15    6    7 am   BACKBONE|DICT|INTERRES
    16    7    8 2    
    17    7    9 1    
    18    9   10 1    
    19    9   11 1    
    20    9   28 1    
    21   11   12 1    
    22   11   43 1    
    23   11   63 1    
    24   12   17 1    
    25   12   13 1    
    26   13   14 1    
    27   13   44 1    
    28   13   45 1    
    29   14   15 1    
    30   14   46 1    
    31   14   47 1    
    32   15   16 1    
    33   15   18 1    
    34   16   17 1    
    35   16   48 1    
    36   16   49 1    
    37   17   50 1    
    38   17   51 1    
    39   18   19 2    
    40   18   20 2    
    41   18   21 1    
    42   21   26 ar   
    43   21   22 ar   
    44   22   23 ar   
    45   22   52 1    
    46   23   24 ar   
    47   23   53 1    
    48   24   25 ar   
    49   24   27 1    
    50   25   26 ar   
    51   25   54 1    
    52   26   55 1    
    53   28   29 1    
    54   28   56 1    
    55   28   57 1    
    56   29   34 ar   
    57   29   30 ar   
    58   30   31 ar   
    59   30   58 1    
    60   31   32 ar   
    61   31   59 1    
    62   32   33 ar   
    63   32   60 1    
    64   33   34 ar   
    65   33   61 1    
    66   34   62 1    
@<TRIPOS>SUBSTRUCTURE
     1 UNK         1 GROUP             0       ****    0 ROOT    
