@<TRIPOS>MOLECULE
ZINC21812628_1668
32   33    1
SMALL
USER_CHARGES


@<TRIPOS>ATOM
      1 C1          6.7514   55.1272   23.5703 C.3       1 UNK         0.0000 
      2 C2          6.2289   54.7083   24.9217 C.ar      1 UNK         0.0000 
      3 C3          5.0172   54.0946   25.2315 C.ar      1 UNK         0.0000 
      4 C4          5.0402   53.8027   26.5833 C.ar      1 UNK         0.0000 
      5 N5          6.2734   54.2499   26.9862 N.pl3     1 UNK         0.0000 
      6 N6          6.9659   54.8381   25.9992 N.2       1 UNK         0.0000 
      7 C7          6.9041   54.0549   28.2808 C.3       1 UNK         0.0000 
      8 N8          4.2163   53.0840   27.4091 N.pl3     1 UNK         0.0000 
      9 S9          2.5593   53.4828   27.8585 S.o2      1 UNK         0.0000 
     10 O10         2.2916   52.7197   29.0825 O.2       1 UNK         0.0000 
     11 O11         2.4328   54.9420   27.8441 O.2       1 UNK         0.0000 
     12 C12         1.5121   52.8088   26.5587 C.ar      1 UNK         0.0000 
     13 C13         0.6961   51.6980   26.8190 C.ar      1 UNK         0.0000 
     14 C14        -0.1201   51.1683   25.8134 C.ar      1 UNK         0.0000 
     15 C15        -0.1044   51.7380   24.5347 C.ar      1 UNK         0.0000 
     16 C16         0.7078   52.8366   24.2732 C.ar      1 UNK         0.0000 
     17 C17         1.5006   53.3767   25.2802 C.ar      1 UNK         0.0000 
     18 F18         2.2005   54.4924   25.0009 F         1 UNK         0.0000 
     19 F19        -0.8813   51.2400   23.5425 F         1 UNK         0.0000 
     20 N20        -0.9531   50.0812   26.0824 N.pl3     1 UNK         0.0000 
     21 H21         5.9620   55.1816   22.8201 H         1 UNK         0.0000 
     22 H22         7.5003   54.4259   23.1992 H         1 UNK         0.0000 
     23 H23         7.2360   56.0977   23.6026 H         1 UNK         0.0000 
     24 H24         4.2702   53.8107   24.5120 H         1 UNK         0.0000 
     25 H25         6.2860   54.4973   29.0621 H         1 UNK         0.0000 
     26 H26         7.0020   52.9862   28.4656 H         1 UNK         0.0000 
     27 H27         7.9007   54.4927   28.2957 H         1 UNK         0.0000 
     28 H28         4.4625   52.1364   27.6520 H         1 UNK         0.0000 
     29 H29         0.6845   51.2483   27.8023 H         1 UNK         0.0000 
     30 H30         0.7072   53.2845   23.2910 H         1 UNK         0.0000 
     31 H31        -1.4945   49.6830   25.3304 H         1 UNK         0.0000 
     32 H32        -0.9472   49.6142   26.9914 H         1 UNK         0.0000 
@<TRIPOS>BOND
     1    1    2 1    
     2    1   21 1    
     3    1   22 1    
     4    1   23 1    
     5    2    6 ar   
     6    2    3 ar   
     7    3    4 ar   
     8    3   24 1    
     9    4    5 ar   
    10    4    8 1    
    11    5    6 ar   
    12    5    7 1    
    13    7   25 1    
    14    7   26 1    
    15    7   27 1    
    16    8    9 1    
    17    8   28 1    
    18    9   10 2    
    19    9   11 2    
    20    9   12 1    
    21   12   17 ar   
    22   12   13 ar   
    23   13   14 ar   
    24   13   29 1    
    25   14   15 ar   
    26   14   20 1    
    27   15   16 ar   
    28   15   19 1    
    29   16   17 ar   
    30   16   30 1    
    31   17   18 1    
    32   20   31 1    
    33   20   32 1    
@<TRIPOS>SUBSTRUCTURE
     1 UNK         1 GROUP             0       ****    0 ROOT    
