@<TRIPOS>MOLECULE
ZINC12487491_2383
50   52    1
SMALL
USER_CHARGES


@<TRIPOS>ATOM
      1 C1          6.4717   54.8341   23.3218 C.ar      1 UNK         0.0000 
      2 C2          5.8232   54.4967   24.5062 C.ar      1 UNK         0.0000 
      3 C3          4.4785   54.0967   24.4859 C.ar      1 UNK         0.0000 
      4 C4          3.7993   54.0475   23.2675 C.ar      1 UNK         0.0000 
      5 C5          4.4488   54.3827   22.0819 C.ar      1 UNK         0.0000 
      6 C6          5.7918   54.7960   22.0967 C.ar      1 UNK         0.0000 
      7 C7          6.4795   55.2975   20.8462 C.2       1 UNK         0.0000 
      8 O8          7.4857   56.0061   20.9455 O.2       1 UNK         0.0000 
      9 N9          5.9074   54.9357   19.6632 N.am      1 UNK         0.0000 
     10 N10         6.1040   55.4121   18.3804 N.2       1 UNK         0.0000 
     11 C11         6.5633   56.5901   18.1677 C.2       1 UNK         0.0000 
     12 C12         6.8023   57.1659   16.8315 C.ar      1 UNK         0.0000 
     13 C13         6.5739   56.4020   15.6748 C.ar      1 UNK         0.0000 
     14 C14         6.7755   56.9384   14.4049 C.ar      1 UNK         0.0000 
     15 C15         7.2117   58.2522   14.2666 C.ar      1 UNK         0.0000 
     16 C16         7.4502   59.0321   15.3959 C.ar      1 UNK         0.0000 
     17 C17         7.2466   58.4980   16.6767 C.ar      1 UNK         0.0000 
     18 O18         7.4996   59.2967   17.7689 O.3       1 UNK         0.0000 
     19 Cl19        8.0010   60.6589   15.1775 Cl        1 UNK         0.0000 
     20 Cl20        6.4832   55.9749   13.0042 Cl        1 UNK         0.0000 
     21 N21         3.7377   53.7238   25.6278 N.am      1 UNK         0.0000 
     22 C22         4.1854   53.3686   26.8542 C.2       1 UNK         0.0000 
     23 O23         5.3814   53.3060   27.1463 O.2       1 UNK         0.0000 
     24 C24         3.1235   52.8966   27.8961 C.3       1 UNK         0.0000 
     25 C25         3.6881   53.0151   29.3343 C.3       1 UNK         0.0000 
     26 C26         3.8880   54.4794   29.7614 C.3       1 UNK         0.0000 
     27 C27         2.5548   55.2589   29.6816 C.3       1 UNK         0.0000 
     28 C28         1.9269   55.1587   28.2858 C.3       1 UNK         0.0000 
     29 C29         1.7922   53.6964   27.8181 C.3       1 UNK         0.0000 
     30 H30         7.5040   55.1566   23.3702 H         1 UNK         0.0000 
     31 H31         6.3835   54.5682   25.4242 H         1 UNK         0.0000 
     32 H32         2.7616   53.7486   23.2266 H         1 UNK         0.0000 
     33 H33         3.8710   54.3588   21.1680 H         1 UNK         0.0000 
     34 H34         5.3409   54.1004   19.6788 H         1 UNK         0.0000 
     35 H35         6.7884   57.2700   18.9837 H         1 UNK         0.0000 
     36 H36         6.2318   55.3792   15.7529 H         1 UNK         0.0000 
     37 H37         7.3667   58.6683   13.2819 H         1 UNK         0.0000 
     38 H38         7.0517   60.1651   17.6819 H         1 UNK         0.0000 
     39 H39         2.7473   53.6219   25.4754 H         1 UNK         0.0000 
     40 H40         2.9355   51.8514   27.6605 H         1 UNK         0.0000 
     41 H41         2.9948   52.5187   30.0154 H         1 UNK         0.0000 
     42 H42         4.5824   52.4011   29.4598 H         1 UNK         0.0000 
     43 H43         4.3023   54.4967   30.7678 H         1 UNK         0.0000 
     44 H44         4.6397   54.9651   29.1377 H         1 UNK         0.0000 
     45 H45         1.8540   54.8688   30.4213 H         1 UNK         0.0000 
     46 H46         2.7045   56.3091   29.9325 H         1 UNK         0.0000 
     47 H47         0.9580   55.6584   28.2647 H         1 UNK         0.0000 
     48 H48         2.5718   55.6966   27.5950 H         1 UNK         0.0000 
     49 H49         1.3176   53.5943   26.8415 H         1 UNK         0.0000 
     50 H50         1.0628   53.1837   28.4479 H         1 UNK         0.0000 
@<TRIPOS>BOND
     1    1    6 ar   
     2    1    2 ar   
     3    1   30 1    
     4    2    3 ar   
     5    2   31 1    
     6    3    4 ar   
     7    3   21 1    
     8    4    5 ar   
     9    4   32 1    
    10    5    6 ar   
    11    5   33 1    
    12    6    7 1    
    13    7    8 2    
    14    7    9 am   BACKBONE|DICT|INTERRES
    15    9   10 1    
    16    9   34 1    
    17   10   11 2    
    18   11   12 1    
    19   11   35 1    
    20   12   17 ar   
    21   12   13 ar   
    22   13   14 ar   
    23   13   36 1    
    24   14   15 ar   
    25   14   20 1    
    26   15   16 ar   
    27   15   37 1    
    28   16   17 ar   
    29   16   19 1    
    30   17   18 1    
    31   18   38 1    
    32   21   22 am   BACKBONE|DICT|INTERRES
    33   21   39 1    
    34   22   23 2    
    35   22   24 1    
    36   24   29 1    
    37   24   25 1    
    38   24   40 1    
    39   25   26 1    
    40   25   41 1    
    41   25   42 1    
    42   26   27 1    
    43   26   43 1    
    44   26   44 1    
    45   27   28 1    
    46   27   45 1    
    47   27   46 1    
    48   28   29 1    
    49   28   47 1    
    50   28   48 1    
    51   29   49 1    
    52   29   50 1    
@<TRIPOS>SUBSTRUCTURE
     1 UNK         1 GROUP             0       ****    0 ROOT    
