ZINC52607219_797
                    3D
 Schrodinger Suite 2024-2.
 66 71  0  0  1  0            999 V2000
    5.6761   54.6236   24.2936 C   0  0  0  0  0  0
    5.2713   53.6821   23.1482 C   0  0  0  0  0  0
    4.8387   54.3971   21.8515 C   0  0  1  0  0  0
    3.9597   55.0219   22.0012 H   0  0  0  0  0  0
    5.9066   55.2030   21.2582 N   0  0  0  0  0  0
    6.2482   54.7157   20.0004 C   0  0  0  0  0  0
    7.2176   55.1372   19.0812 C   0  0  0  0  0  0
    7.3467   54.4162   17.8857 C   0  0  0  0  0  0
    6.5406   53.2912   17.6563 C   0  0  0  0  0  0
    5.6464   52.8968   18.5951 N   0  3  0  0  0  0
    5.4703   53.6073   19.7298 C   0  0  0  0  0  0
    4.5674   53.3942   20.7888 N   0  0  0  0  0  0
    3.2780   52.6921   20.5915 C   0  0  0  0  0  0
    2.3941   52.4309   21.8098 C   0  0  0  0  0  0
    1.7896   53.4909   22.4947 C   0  0  0  0  0  0
    0.9223   53.2585   23.5605 C   0  0  0  0  0  0
    0.6360   51.9500   23.9416 C   0  0  0  0  0  0
    1.2187   50.8812   23.2531 C   0  0  0  0  0  0
    2.0973   51.1185   22.1923 C   0  0  0  0  0  0
    0.7024   49.5765   23.7834 C   0  0  0  0  0  0
   -0.0182   50.0239   25.0379 C   0  0  0  0  0  0
   -0.3301   51.4296   24.8115 N   0  0  0  0  0  0
   -0.8505   52.0821   26.0249 C   0  0  1  0  0  0
   -1.0420   53.0931   25.6692 H   0  0  0  0  0  0
   -2.2787   51.6201   26.3914 C   0  0  0  0  0  0
   -2.6629   51.2967   27.7012 C   0  0  0  0  0  0
   -3.9656   50.8953   27.9814 C   0  0  0  0  0  0
   -4.9042   50.8358   26.9564 C   0  0  0  0  0  0
   -4.5505   51.1761   25.6547 C   0  0  0  0  0  0
   -3.2443   51.5679   25.3768 C   0  0  0  0  0  0
    0.2093   52.2112   27.1280 C   0  0  0  0  0  0
    1.1045   53.1699   27.1997 N   0  0  0  0  0  0
    1.8958   52.8767   28.3060 N   0  0  0  0  0  0
    1.4808   51.6960   28.8835 N   0  0  0  0  0  0
    0.4592   51.2978   28.1218 N   0  0  0  0  0  0
    6.6666   52.4571   16.3974 C   0  0  0  0  0  0
    8.1439   56.3071   19.3601 C   0  0  0  0  0  0
    5.9369   54.0518   25.1852 H   0  0  0  0  0  0
    6.5419   55.2328   24.0294 H   0  0  0  0  0  0
    4.8597   55.2923   24.5622 H   0  0  0  0  0  0
    4.4477   53.0651   23.4985 H   0  0  0  0  0  0
    6.0965   52.9995   22.9383 H   0  0  0  0  0  0
    6.3408   55.8767   21.8705 H   0  0  0  0  0  0
    8.0812   54.7104   17.1491 H   0  0  0  0  0  0
    2.7123   53.2963   19.8810 H   0  0  0  0  0  0
    3.5138   51.7527   20.0869 H   0  0  0  0  0  0
    1.9502   54.5054   22.1751 H   0  0  0  0  0  0
    0.4392   54.0946   24.0435 H   0  0  0  0  0  0
    2.5291   50.2900   21.6481 H   0  0  0  0  0  0
    0.0183   49.0894   23.0878 H   0  0  0  0  0  0
    1.5043   48.8968   24.0356 H   0  0  0  0  0  0
    0.6148   49.8738   25.9143 H   0  0  0  0  0  0
   -0.9280   49.4479   25.2153 H   0  0  0  0  0  0
   -1.9778   51.3460   28.5294 H   0  0  0  0  0  0
   -4.2417   50.6279   28.9920 H   0  0  0  0  0  0
   -5.9162   50.5250   27.1716 H   0  0  0  0  0  0
   -5.2834   51.1325   24.8623 H   0  0  0  0  0  0
   -2.9806   51.8269   24.3616 H   0  0  0  0  0  0
    7.2987   52.9397   15.6521 H   0  0  0  0  0  0
    7.1050   51.4869   16.6295 H   0  0  0  0  0  0
    5.6856   52.2861   15.9481 H   0  0  0  0  0  0
    7.6028   57.2493   19.2735 H   0  0  0  0  0  0
    9.0024   56.3203   18.6875 H   0  0  0  0  0  0
    8.5395   56.2341   20.3733 H   0  0  0  0  0  0
    5.1657   52.0049   18.4395 H   0  0  0  0  0  0
   -0.0575   50.4413   28.2852 H   0  0  0  0  0  0
  1  2  1  0  0  0
  1 38  1  0  0  0
  1 39  1  0  0  0
  1 40  1  0  0  0
  2  3  1  0  0  0
  2 41  1  0  0  0
  2 42  1  0  0  0
  3  4  1  0  0  0
  3 12  1  0  0  0
  3  5  1  0  0  0
  5  6  1  0  0  0
  5 43  1  0  0  0
  6 11  2  0  0  0
  6  7  1  0  0  0
  7  8  2  0  0  0
  7 37  1  0  0  0
  8  9  1  0  0  0
  8 44  1  0  0  0
  9 10  2  0  0  0
  9 36  1  0  0  0
 10 11  1  0  0  0
 10 65  1  0  0  0
 11 12  1  0  0  0
 12 13  1  0  0  0
 13 14  1  0  0  0
 13 45  1  0  0  0
 13 46  1  0  0  0
 14 19  2  0  0  0
 14 15  1  0  0  0
 15 16  2  0  0  0
 15 47  1  0  0  0
 16 17  1  0  0  0
 16 48  1  0  0  0
 17 22  1  0  0  0
 17 18  2  0  0  0
 18 19  1  0  0  0
 18 20  1  0  0  0
 19 49  1  0  0  0
 20 21  1  0  0  0
 20 50  1  0  0  0
 20 51  1  0  0  0
 21 22  1  0  0  0
 21 52  1  0  0  0
 21 53  1  0  0  0
 22 23  1  0  0  0
 23 24  1  0  0  0
 23 25  1  0  0  0
 23 31  1  0  0  0
 25 30  2  0  0  0
 25 26  1  0  0  0
 26 27  2  0  0  0
 26 54  1  0  0  0
 27 28  1  0  0  0
 27 55  1  0  0  0
 28 29  2  0  0  0
 28 56  1  0  0  0
 29 30  1  0  0  0
 29 57  1  0  0  0
 30 58  1  0  0  0
 31 32  2  0  0  0
 31 35  1  0  0  0
 32 33  1  0  0  0
 33 34  2  0  0  0
 34 35  1  0  0  0
 35 66  1  0  0  0
 36 59  1  0  0  0
 36 60  1  0  0  0
 36 61  1  0  0  0
 37 62  1  0  0  0
 37 63  1  0  0  0
 37 64  1  0  0  0
M  CHG  1  10   1
M  END
> <i_i_glide_confnum>
48

> <i_i_glide_lignum>
798

> <i_i_glide_posenum>
102

> <i_i_glide_rotatable_bonds>
6

> <i_m_Source_File_Index>
1137

> <b_m_subgroup_collapsed>
0

> <r_i_docking_score>
-4.40861

> <r_i_glide_ecoul>
-5.39491

> <r_i_glide_eff_state_penalty>
0

> <r_i_glide_einternal>
4.46209

> <r_i_glide_emodel>
-54.5498

> <r_i_glide_energy>
-42.7422

> <r_i_glide_erotb>
0.461571

> <r_i_glide_esite>
-0.124275

> <r_i_glide_evdw>
-37.3473

> <r_i_glide_gscore>
-4.40861

> <r_i_glide_hbond>
-0.173659

> <r_i_glide_ligand_efficiency>
-0.12596

> <r_i_glide_ligand_efficiency_ln>
-0.967789

> <r_i_glide_ligand_efficiency_sa>
-0.412025

> <r_i_glide_lipo>
-1.38671

> <r_i_glide_metal>
0

> <r_i_glide_rewards>
-0.508944

> <s_i_glide_gridfile>
wee1_glide-grid

> <s_m_Source_File>
wee1_decoys_glide_SP.sdf

> <s_m_Source_Path>
/Users/zhangxujun/Desktop

> <s_m_entry_id>
1412

> <s_m_entry_name>
wee1_decoys_glide_SP.1137

> <s_m_subgroup_title>
wee1_decoys_glide_SP

> <s_m_subgroupid>
wee1_decoys_glide_SP


$$$$
