@<TRIPOS>MOLECULE
ZINC17098090_2610
61   63    1
SMALL
USER_CHARGES


@<TRIPOS>ATOM
      1 C1          4.9121   54.0721   20.4110 C.3       1 UNK         0.0000 
      2 C2          5.0557   54.1243   21.9282 C.2       1 UNK         0.0000 
      3 C3          6.2061   54.6436   22.5488 C.2       1 UNK         0.0000 
      4 S4          6.0606   54.6276   24.2724 S.3       1 UNK         0.0000 
      5 C5          4.4085   54.0968   24.1888 C.2       1 UNK         0.0000 
      6 C6          4.0307   53.7904   22.8696 C.2       1 UNK         0.0000 
      7 C7          2.6932   53.3076   22.5380 C.2       1 UNK         0.0000 
      8 O8          1.7149   53.5918   23.2343 O.2       1 UNK         0.0000 
      9 N9          2.6192   52.4959   21.4683 N.am      1 UNK         0.0000 
     10 C10         1.3976   51.8761   20.9427 C.3       1 UNK         0.0000 
     11 C11         1.6883   51.1179   19.6243 C.3       1 UNK         0.0000 
     12 C12         2.5997   49.8871   19.8323 C.3       1 UNK         0.0000 
     13 C13         2.0082   48.9169   20.8779 C.3       1 UNK         0.0000 
     14 C14         1.6417   49.6338   22.1934 C.3       1 UNK         0.0000 
     15 C15         0.7431   50.8612   21.9231 C.3       1 UNK         0.0000 
     16 N16         3.5991   53.9456   25.3164 N.am      1 UNK         0.0000 
     17 C17         3.8272   54.3227   26.5917 C.2       1 UNK         0.0000 
     18 O18         4.8492   54.8959   26.9666 O.2       1 UNK         0.0000 
     19 C19         2.6548   54.0799   27.5830 C.3       1 UNK         0.0000 
     20 H20         1.7803   54.1214   26.9303 H         1 UNK         0.0000 
     21 C21         2.4824   55.2232   28.6101 C.3       1 UNK         0.0000 
     22 C22         1.4303   54.8974   29.6778 C.2       1 UNK         0.0000 
     23 C23         0.9277   53.6409   29.8665 C.2       1 UNK         0.0000 
     24 C24         1.2503   52.4879   28.9080 C.3       1 UNK         0.0000 
     25 C25         2.6375   52.6609   28.2382 C.3       1 UNK         0.0000 
     26 H26         2.7695   51.8826   27.4909 H         1 UNK         0.0000 
     27 C27         3.7752   52.4195   29.2821 C.2       1 UNK         0.0000 
     28 O28         3.5297   51.6967   30.2772 O.co2     1 UNK         0.0000 
     29 C29        -0.0699   53.2413   30.9476 C.3       1 UNK         0.0000 
     30 C30         1.0867   56.0976   30.5414 C.3       1 UNK         0.0000 
     31 C31         7.4818   55.1874   21.9406 C.3       1 UNK         0.0000 
     32 H32         5.5609   54.7736   19.8897 H         1 UNK         0.0000 
     33 H33         5.1125   53.0758   20.0149 H         1 UNK         0.0000 
     34 H34         3.9089   54.3505   20.0865 H         1 UNK         0.0000 
     35 H35         3.4253   52.4499   20.8636 H         1 UNK         0.0000 
     36 H36         0.6893   52.6862   20.7523 H         1 UNK         0.0000 
     37 H37         2.1471   51.7936   18.9005 H         1 UNK         0.0000 
     38 H38         0.7487   50.7997   19.1704 H         1 UNK         0.0000 
     39 H39         3.5881   50.2160   20.1539 H         1 UNK         0.0000 
     40 H40         2.7529   49.3693   18.8838 H         1 UNK         0.0000 
     41 H41         2.7044   48.1029   21.0776 H         1 UNK         0.0000 
     42 H42         1.1142   48.4488   20.4634 H         1 UNK         0.0000 
     43 H43         2.5520   49.9459   22.7083 H         1 UNK         0.0000 
     44 H44         1.1378   48.9411   22.8690 H         1 UNK         0.0000 
     45 H45        -0.2109   50.5258   21.5135 H         1 UNK         0.0000 
     46 H46         0.4914   51.3447   22.8673 H         1 UNK         0.0000 
     47 H47         2.6846   53.5686   25.1066 H         1 UNK         0.0000 
     48 H48         3.4182   55.3768   29.1518 H         1 UNK         0.0000 
     49 H49         2.2915   56.1806   28.1257 H         1 UNK         0.0000 
     50 H50         0.4800   52.4634   28.1361 H         1 UNK         0.0000 
     51 H51         1.1658   51.5238   29.4144 H         1 UNK         0.0000 
     52 H52         0.4154   52.5652   31.6526 H         1 UNK         0.0000 
     53 H53        -0.4951   54.0503   31.5303 H         1 UNK         0.0000 
     54 H54        -0.8956   52.6928   30.4987 H         1 UNK         0.0000 
     55 H55         0.7043   56.8967   29.9100 H         1 UNK         0.0000 
     56 H56         0.3314   55.8856   31.2816 H         1 UNK         0.0000 
     57 H57         1.9610   56.4829   31.0601 H         1 UNK         0.0000 
     58 H58         8.3044   54.4962   22.0816 H         1 UNK         0.0000 
     59 H59         7.4161   55.3872   20.8726 H         1 UNK         0.0000 
     60 H60         7.7967   56.1144   22.4170 H         1 UNK         0.0000 
     61 O61         4.9208   52.8268   29.0033 O.co2     1 UNK         0.0000 
@<TRIPOS>BOND
     1    1    2 1    
     2    1   32 1    
     3    1   33 1    
     4    1   34 1    
     5    2    6 1    
     6    2    3 2    
     7    3    4 1    
     8    3   31 1    
     9    4    5 1    
    10    5    6 2    
    11    5   16 am   BACKBONE|DICT|INTERRES
    12    6    7 1    
    13    7    8 2    
    14    7    9 am   BACKBONE|DICT|INTERRES
    15    9   10 1    
    16    9   35 1    
    17   10   15 1    
    18   10   11 1    
    19   10   36 1    
    20   11   12 1    
    21   11   37 1    
    22   11   38 1    
    23   12   13 1    
    24   12   39 1    
    25   12   40 1    
    26   13   14 1    
    27   13   41 1    
    28   13   42 1    
    29   14   15 1    
    30   14   43 1    
    31   14   44 1    
    32   15   45 1    
    33   15   46 1    
    34   16   17 am   BACKBONE|DICT|INTERRES
    35   16   47 1    
    36   17   18 2    
    37   17   19 1    
    38   19   20 1    
    39   19   25 1    
    40   19   21 1    
    41   21   22 1    
    42   21   48 1    
    43   21   49 1    
    44   22   23 2    
    45   22   30 1    
    46   23   24 1    
    47   23   29 1    
    48   24   25 1    
    49   24   50 1    
    50   24   51 1    
    51   25   26 1    
    52   25   27 1    
    53   27   28 2    
    54   27   61 1    
    55   29   52 1    
    56   29   53 1    
    57   29   54 1    
    58   30   55 1    
    59   30   56 1    
    60   30   57 1    
    61   31   58 1    
    62   31   59 1    
    63   31   60 1    
@<TRIPOS>SUBSTRUCTURE
     1 UNK         1 GROUP             0       ****    0 ROOT    
