@<TRIPOS>MOLECULE
ZINC35778885_4847
75   77    1
SMALL
USER_CHARGES


@<TRIPOS>ATOM
      1 C1         -0.4904   48.5650   24.0981 C.3       1 UNK         0.0000 
      2 C2         -0.6318   48.6636   25.6290 C.3       1 UNK         0.0000 
      3 N3         -1.7339   49.6716   26.0817 N.4       1 UNK         0.0000 
      4 C4         -3.1509   49.1602   25.6983 C.3       1 UNK         0.0000 
      5 C5         -4.2726   49.7086   26.6122 C.3       1 UNK         0.0000 
      6 H6         -4.3705   50.7905   26.5135 H         1 UNK         0.0000 
      7 C7         -4.1555   49.3102   28.1010 C.3       1 UNK         0.0000 
      8 O8         -5.3334   49.7319   28.7960 O.3       1 UNK         0.0000 
      9 C9         -5.4648   49.4175   30.1892 C.3       1 UNK         0.0000 
     10 C10        -4.4680   50.2486   31.0194 C.3       1 UNK         0.0000 
     11 C11        -5.2964   47.9057   30.4614 C.3       1 UNK         0.0000 
     12 C12        -6.9035   49.8429   30.5281 C.3       1 UNK         0.0000 
     13 O13        -5.4712   49.1463   26.1175 O.3       1 UNK         0.0000 
     14 C14        -1.5284   51.1050   25.6326 C.3       1 UNK         0.0000 
     15 C15        -0.1071   51.6117   25.9795 C.2       1 UNK         0.0000 
     16 O16         0.7046   51.6011   25.0526 O.2       1 UNK         0.0000 
     17 N17         0.2320   52.0286   27.2338 N.am      1 UNK         0.0000 
     18 C18        -0.7951   52.4547   28.2125 C.3       1 UNK         0.0000 
     19 C19        -0.4392   51.9496   29.6302 C.3       1 UNK         0.0000 
     20 C20         1.0261   52.1628   29.9322 C.2       1 UNK         0.0000 
     21 C21         1.9939   52.3410   28.9514 C.2       1 UNK         0.0000 
     22 C22         3.2862   52.3993   29.5000 C.2       1 UNK         0.0000 
     23 C23         3.3024   52.2784   30.8816 C.2       1 UNK         0.0000 
     24 S24         1.7048   52.0967   31.5292 S.3       1 UNK         0.0000 
     25 C25         1.6391   52.4674   27.4706 C.3       1 UNK         0.0000 
     26 H26         2.2904   51.7611   26.9528 H         1 UNK         0.0000 
     27 C27         1.9578   53.8949   26.9601 C.3       1 UNK         0.0000 
     28 O28         3.3652   54.1441   27.0251 O.3       1 UNK         0.0000 
     29 C29         4.1553   54.2105   25.8890 C.ar      1 UNK         0.0000 
     30 C30         3.6927   53.9771   24.5806 C.ar      1 UNK         0.0000 
     31 C31         4.5515   54.0984   23.4876 C.ar      1 UNK         0.0000 
     32 C32         5.8796   54.4854   23.6790 C.ar      1 UNK         0.0000 
     33 C33         6.3586   54.6778   24.9726 C.ar      1 UNK         0.0000 
     34 C34         5.5126   54.5275   26.0757 C.ar      1 UNK         0.0000 
     35 C35         6.0832   54.7335   27.4719 C.3       1 UNK         0.0000 
     36 C36         6.8030   54.7151   22.4974 C.3       1 UNK         0.0000 
     37 H37         0.2839   47.8404   23.8497 H         1 UNK         0.0000 
     38 H38        -1.4123   48.2352   23.6190 H         1 UNK         0.0000 
     39 H39        -0.1881   49.5108   23.6475 H         1 UNK         0.0000 
     40 H40         0.2963   48.9678   26.1169 H         1 UNK         0.0000 
     41 H41        -0.9030   47.7057   26.0783 H         1 UNK         0.0000 
     42 H42        -3.1046   48.0748   25.8014 H         1 UNK         0.0000 
     43 H43        -3.2957   49.4082   24.6457 H         1 UNK         0.0000 
     44 H44        -3.2862   49.7842   28.5441 H         1 UNK         0.0000 
     45 H45        -4.0230   48.2306   28.1761 H         1 UNK         0.0000 
     46 H46        -4.6070   50.0958   32.0902 H         1 UNK         0.0000 
     47 H47        -4.5953   51.3078   30.8191 H         1 UNK         0.0000 
     48 H48        -3.4303   50.0057   30.7960 H         1 UNK         0.0000 
     49 H49        -5.8857   47.3134   29.7614 H         1 UNK         0.0000 
     50 H50        -4.2549   47.5932   30.3694 H         1 UNK         0.0000 
     51 H51        -5.6306   47.6433   31.4652 H         1 UNK         0.0000 
     52 H52        -7.6316   49.2869   29.9363 H         1 UNK         0.0000 
     53 H53        -7.1357   49.6757   31.5802 H         1 UNK         0.0000 
     54 H54        -7.0656   50.9006   30.3178 H         1 UNK         0.0000 
     55 H55        -6.1503   49.2968   26.7825 H         1 UNK         0.0000 
     56 H56        -1.6680   51.0953   24.5508 H         1 UNK         0.0000 
     57 H57        -2.3228   51.7067   26.0697 H         1 UNK         0.0000 
     58 H58        -0.8611   53.5432   28.2088 H         1 UNK         0.0000 
     59 H59        -1.7793   52.0414   28.0058 H         1 UNK         0.0000 
     60 H60        -1.0596   52.4326   30.3827 H         1 UNK         0.0000 
     61 H61        -0.6871   50.8964   29.6954 H         1 UNK         0.0000 
     62 H62         4.1773   52.5292   28.9005 H         1 UNK         0.0000 
     63 H63         4.1608   52.2986   31.5393 H         1 UNK         0.0000 
     64 H64         1.5063   54.0946   25.9920 H         1 UNK         0.0000 
     65 H65         1.4794   54.6191   27.6218 H         1 UNK         0.0000 
     66 H66         2.6768   53.6811   24.3731 H         1 UNK         0.0000 
     67 H67         4.1705   53.9266   22.4911 H         1 UNK         0.0000 
     68 H68         7.3941   54.9517   25.1122 H         1 UNK         0.0000 
     69 H69         7.0141   55.2968   27.4521 H         1 UNK         0.0000 
     70 H70         5.3920   55.2966   28.0985 H         1 UNK         0.0000 
     71 H71         6.2614   53.7711   27.9510 H         1 UNK         0.0000 
     72 H72         7.6936   54.0967   22.5910 H         1 UNK         0.0000 
     73 H73         6.3244   54.4966   21.5428 H         1 UNK         0.0000 
     74 H74         7.1417   55.7513   22.4850 H         1 UNK         0.0000 
     75 H75        -1.6848   49.5735   27.0997 H         1 UNK         0.0000 
@<TRIPOS>BOND
     1    1    2 1    
     2    1   37 1    
     3    1   38 1    
     4    1   39 1    
     5    2    3 1    
     6    2   40 1    
     7    2   41 1    
     8    3    4 1    
     9    3   14 1    
    10    3   75 1    
    11    4    5 1    
    12    4   42 1    
    13    4   43 1    
    14    5    6 1    
    15    5    7 1    
    16    5   13 1    
    17    7    8 1    
    18    7   44 1    
    19    7   45 1    
    20    8    9 1    
    21    9   10 1    
    22    9   11 1    
    23    9   12 1    
    24   10   46 1    
    25   10   47 1    
    26   10   48 1    
    27   11   49 1    
    28   11   50 1    
    29   11   51 1    
    30   12   52 1    
    31   12   53 1    
    32   12   54 1    
    33   13   55 1    
    34   14   15 1    
    35   14   56 1    
    36   14   57 1    
    37   15   16 2    
    38   15   17 am   BACKBONE|DICT|INTERRES
    39   17   25 1    
    40   17   18 1    
    41   18   19 1    
    42   18   58 1    
    43   18   59 1    
    44   19   20 1    
    45   19   60 1    
    46   19   61 1    
    47   20   24 1    
    48   20   21 2    
    49   21   22 1    
    50   21   25 1    
    51   22   23 2    
    52   22   62 1    
    53   23   24 1    
    54   23   63 1    
    55   25   26 1    
    56   25   27 1    
    57   27   28 1    
    58   27   64 1    
    59   27   65 1    
    60   28   29 1    
    61   29   34 ar   
    62   29   30 ar   
    63   30   31 ar   
    64   30   66 1    
    65   31   32 ar   
    66   31   67 1    
    67   32   33 ar   
    68   32   36 1    
    69   33   34 ar   
    70   33   68 1    
    71   34   35 1    
    72   35   69 1    
    73   35   70 1    
    74   35   71 1    
    75   36   72 1    
    76   36   73 1    
    77   36   74 1    
@<TRIPOS>SUBSTRUCTURE
     1 UNK         1 GROUP             0       ****    0 ROOT    
