@<TRIPOS>MOLECULE
ZINC59021812_2888
58   61    1
SMALL
USER_CHARGES


@<TRIPOS>ATOM
      1 C1         -6.4864   51.7515   26.5415 C.3       1 UNK         0.0000 
      2 C2         -5.1599   51.5243   27.2579 C.2       1 UNK         0.0000 
      3 N3         -4.0881   51.7658   26.6030 N.2       1 UNK         0.0000 
      4 N4         -2.8304   51.6967   27.2233 N.pl3     1 UNK         0.0000 
      5 C5         -1.6926   51.4426   26.4961 C.ar      1 UNK         0.0000 
      6 N6         -1.3415   51.9302   25.3329 N.2       1 UNK         0.0000 
      7 C7         -0.2711   51.1997   25.0310 C.ar      1 UNK         0.0000 
      8 N8          0.1258   50.3367   25.9419 N.2       1 UNK         0.0000 
      9 N9         -0.8000   50.4967   26.8817 N.pl3     1 UNK         0.0000 
     10 S10         0.4880   51.2305   23.4484 S.3       1 UNK         0.0000 
     11 C11         0.7590   53.0132   23.2541 C.3       1 UNK         0.0000 
     12 C12         2.2468   53.3186   23.1508 C.2       1 UNK         0.0000 
     13 O13         2.8133   53.0984   22.0820 O.2       1 UNK         0.0000 
     14 N14         2.8398   53.7842   24.2698 N.am      1 UNK         0.0000 
     15 C15         4.1949   54.0976   24.5003 C.ar      1 UNK         0.0000 
     16 C16         5.1718   54.0967   23.4868 C.ar      1 UNK         0.0000 
     17 C17         6.4984   54.3878   23.7787 C.ar      1 UNK         0.0000 
     18 C18         6.8683   54.6914   25.0807 C.ar      1 UNK         0.0000 
     19 C19         5.9203   54.7177   26.0986 C.ar      1 UNK         0.0000 
     20 C20         4.5886   54.4112   25.8198 C.ar      1 UNK         0.0000 
     21 S21         3.4322   54.4967   27.1650 S.3       1 UNK         0.0000 
     22 C22         3.0432   52.7845   27.5931 C.3       1 UNK         0.0000 
     23 C23         2.2721   52.6995   28.8950 C.ar      1 UNK         0.0000 
     24 C24         2.9486   52.4283   30.0865 C.ar      1 UNK         0.0000 
     25 C25         2.2350   52.3139   31.2762 C.ar      1 UNK         0.0000 
     26 C26         0.8554   52.4968   31.2754 C.ar      1 UNK         0.0000 
     27 C27         0.1766   52.7631   30.0884 C.ar      1 UNK         0.0000 
     28 C28         0.8842   52.8619   28.8941 C.ar      1 UNK         0.0000 
     29 C29        -5.2774   51.0688   28.6652 C.ar      1 UNK         0.0000 
     30 C30        -6.2029   51.6740   29.5309 C.ar      1 UNK         0.0000 
     31 C31        -6.3569   51.2215   30.8382 C.ar      1 UNK         0.0000 
     32 C32        -5.5868   50.1575   31.2987 C.ar      1 UNK         0.0000 
     33 C33        -4.6589   49.5523   30.4584 C.ar      1 UNK         0.0000 
     34 C34        -4.5045   50.0023   29.1499 C.ar      1 UNK         0.0000 
     35 F35        -5.7532   49.7020   32.5606 F         1 UNK         0.0000 
     36 H36        -7.1761   50.9210   26.7048 H         1 UNK         0.0000 
     37 H37        -6.9621   52.6711   26.8865 H         1 UNK         0.0000 
     38 H38        -6.3519   51.8665   25.4640 H         1 UNK         0.0000 
     39 H39        -2.9079   51.3131   28.1557 H         1 UNK         0.0000 
     40 H40         0.3067   53.2940   22.3080 H         1 UNK         0.0000 
     41 H41         0.2807   53.6069   24.0326 H         1 UNK         0.0000 
     42 H42         2.2544   53.8941   25.0838 H         1 UNK         0.0000 
     43 H43         4.9460   53.8766   22.4577 H         1 UNK         0.0000 
     44 H44         7.2444   54.3769   22.9955 H         1 UNK         0.0000 
     45 H45         7.9042   54.8975   25.2819 H         1 UNK         0.0000 
     46 H46         6.2224   54.9641   27.1063 H         1 UNK         0.0000 
     47 H47         2.4602   52.3275   26.7921 H         1 UNK         0.0000 
     48 H48         3.9724   52.2248   27.6822 H         1 UNK         0.0000 
     49 H49         4.0216   52.2984   30.0921 H         1 UNK         0.0000 
     50 H50         2.7473   52.0958   32.2023 H         1 UNK         0.0000 
     51 H51         0.3050   52.4142   32.2021 H         1 UNK         0.0000 
     52 H52        -0.8957   52.8843   30.0960 H         1 UNK         0.0000 
     53 H53         0.3582   53.0647   27.9717 H         1 UNK         0.0000 
     54 H54        -6.8219   52.4939   29.1955 H         1 UNK         0.0000 
     55 H55        -7.0829   51.6795   31.4948 H         1 UNK         0.0000 
     56 H56        -4.0648   48.7251   30.8166 H         1 UNK         0.0000 
     57 H57        -3.7922   49.4892   28.5154 H         1 UNK         0.0000 
     58 H58        -0.8961   49.8675   27.6774 H         1 UNK         0.0000 
@<TRIPOS>BOND
     1    1    2 1    
     2    1   36 1    
     3    1   37 1    
     4    1   38 1    
     5    2    3 2    
     6    2   29 1    
     7    3    4 1    
     8    4    5 1    
     9    4   39 1    
    10    5    9 ar   
    11    5    6 ar   
    12    6    7 ar   
    13    7    8 ar   
    14    7   10 1    
    15    8    9 ar   
    16    9   58 1    
    17   10   11 1    
    18   11   12 1    
    19   11   40 1    
    20   11   41 1    
    21   12   13 2    
    22   12   14 am   BACKBONE|DICT|INTERRES
    23   14   15 1    
    24   14   42 1    
    25   15   20 ar   
    26   15   16 ar   
    27   16   17 ar   
    28   16   43 1    
    29   17   18 ar   
    30   17   44 1    
    31   18   19 ar   
    32   18   45 1    
    33   19   20 ar   
    34   19   46 1    
    35   20   21 1    
    36   21   22 1    
    37   22   23 1    
    38   22   47 1    
    39   22   48 1    
    40   23   28 ar   
    41   23   24 ar   
    42   24   25 ar   
    43   24   49 1    
    44   25   26 ar   
    45   25   50 1    
    46   26   27 ar   
    47   26   51 1    
    48   27   28 ar   
    49   27   52 1    
    50   28   53 1    
    51   29   34 ar   
    52   29   30 ar   
    53   30   31 ar   
    54   30   54 1    
    55   31   32 ar   
    56   31   55 1    
    57   32   33 ar   
    58   32   35 1    
    59   33   34 ar   
    60   33   56 1    
    61   34   57 1    
@<TRIPOS>SUBSTRUCTURE
     1 UNK         1 GROUP             0       ****    0 ROOT    
