ZINC08861256_411
                    3D
 Schrodinger Suite 2024-2.
 56 59  0  0  1  0            999 V2000
    2.3026   49.4187   19.8862 C   0  0  0  0  0  0
    2.3041   49.1233   21.2497 C   0  0  0  0  0  0
    1.8581   50.0709   22.1643 C   0  0  0  0  0  0
    1.3847   51.3111   21.7161 C   0  0  0  0  0  0
    1.3728   51.5895   20.3414 C   0  0  0  0  0  0
    1.8372   50.6473   19.4297 C   0  0  0  0  0  0
    0.8864   52.3926   22.6893 C   0  0  1  0  0  0
    0.6585   53.2946   22.1214 H   0  0  0  0  0  0
   -0.4185   51.9501   23.3921 C   0  0  0  0  0  0
   -1.4769   52.4969   23.0745 O   0  0  0  0  0  0
   -0.2931   50.9943   24.3448 N   0  0  0  0  0  0
   -1.2348   50.5266   25.1844 C   0  0  0  0  0  0
   -2.4318   50.8096   25.1824 O   0  0  0  0  0  0
   -0.7102   49.6960   26.0812 N   0  0  0  0  0  0
    2.1202   52.9134   23.9443 S   0  0  0  0  0  0
    3.5603   53.4577   23.0482 C   0  0  0  0  0  0
    3.6804   53.2448   21.7662 N   0  0  0  0  0  0
    4.8726   53.7829   21.3462 N   0  0  0  0  0  0
    5.4126   54.3823   22.3728 C   0  0  0  0  0  0
    4.6904   54.1300   23.5454 N   0  0  0  0  0  0
    5.0177   54.6146   24.9379 C   0  0  0  0  0  0
    4.1034   53.9763   26.0297 C   0  0  0  0  0  0
    4.4989   54.2541   27.4921 C   0  0  0  0  0  0
    5.9737   53.9348   27.7632 C   0  0  0  0  0  0
    6.8576   54.6824   26.7612 C   0  0  0  0  0  0
    6.5076   54.3213   25.3015 C   0  0  0  0  0  0
    6.7039   55.1964   22.2425 C   0  0  0  0  0  0
    7.0669   55.6664   20.8325 C   0  0  0  0  0  0
    8.3325   55.6965   20.2475 C   0  0  0  0  0  0
    8.3750   56.2142   18.9503 C   0  0  0  0  0  0
    7.1309   56.6140   18.5039 C   0  0  0  0  0  0
    5.9104   56.3272   19.6935 S   0  0  0  0  0  0
    2.6849   48.6972   19.1762 H   0  0  0  0  0  0
    2.6952   48.1776   21.5953 H   0  0  0  0  0  0
    1.9070   49.8385   23.2167 H   0  0  0  0  0  0
    1.0297   52.5479   19.9773 H   0  0  0  0  0  0
    1.8596   50.8722   18.3718 H   0  0  0  0  0  0
    0.6384   50.6501   24.4999 H   0  0  0  0  0  0
    0.2353   49.3568   26.0098 H   0  0  0  0  0  0
   -1.2938   49.3068   26.8222 H   0  0  0  0  0  0
    4.8579   55.6912   24.8922 H   0  0  0  0  0  0
    3.1073   54.4067   25.9351 H   0  0  0  0  0  0
    4.0056   52.9005   25.8825 H   0  0  0  0  0  0
    4.3036   55.2967   27.7345 H   0  0  0  0  0  0
    3.8705   53.6663   28.1610 H   0  0  0  0  0  0
    6.2405   54.2172   28.7824 H   0  0  0  0  0  0
    6.1490   52.8616   27.6852 H   0  0  0  0  0  0
    6.7227   55.7514   26.9140 H   0  0  0  0  0  0
    7.9037   54.4796   26.9783 H   0  0  0  0  0  0
    6.7927   53.3016   25.0430 H   0  0  0  0  0  0
    7.1680   54.9642   24.7293 H   0  0  0  0  0  0
    6.6706   56.0794   22.8788 H   0  0  0  0  0  0
    7.5298   54.5945   22.6161 H   0  0  0  0  0  0
    9.2160   55.3464   20.7593 H   0  0  0  0  0  0
    9.2839   56.2955   18.3701 H   0  0  0  0  0  0
    6.8745   57.0516   17.5503 H   0  0  0  0  0  0
  1  6  2  0  0  0
  1  2  1  0  0  0
  1 33  1  0  0  0
  2  3  2  0  0  0
  2 34  1  0  0  0
  3  4  1  0  0  0
  3 35  1  0  0  0
  4  5  2  0  0  0
  4  7  1  0  0  0
  5  6  1  0  0  0
  5 36  1  0  0  0
  6 37  1  0  0  0
  7  8  1  0  0  0
  7  9  1  0  0  0
  7 15  1  0  0  0
  9 10  2  0  0  0
  9 11  1  0  0  0
 11 12  1  0  0  0
 11 38  1  0  0  0
 12 13  2  0  0  0
 12 14  1  0  0  0
 14 39  1  0  0  0
 14 40  1  0  0  0
 15 16  1  0  0  0
 16 20  1  0  0  0
 16 17  2  0  0  0
 17 18  1  0  0  0
 18 19  2  0  0  0
 19 20  1  0  0  0
 19 27  1  0  0  0
 20 21  1  0  0  0
 21 26  1  0  0  0
 21 22  1  0  0  0
 21 41  1  0  0  0
 22 23  1  0  0  0
 22 42  1  0  0  0
 22 43  1  0  0  0
 23 24  1  0  0  0
 23 44  1  0  0  0
 23 45  1  0  0  0
 24 25  1  0  0  0
 24 46  1  0  0  0
 24 47  1  0  0  0
 25 26  1  0  0  0
 25 48  1  0  0  0
 25 49  1  0  0  0
 26 50  1  0  0  0
 26 51  1  0  0  0
 27 28  1  0  0  0
 27 52  1  0  0  0
 27 53  1  0  0  0
 28 32  1  0  0  0
 28 29  2  0  0  0
 29 30  1  0  0  0
 29 54  1  0  0  0
 30 31  2  0  0  0
 30 55  1  0  0  0
 31 32  1  0  0  0
 31 56  1  0  0  0
M  END
> <i_i_glide_confnum>
210

> <i_i_glide_lignum>
412

> <i_i_glide_posenum>
174

> <i_i_glide_rotatable_bonds>
9

> <i_m_Source_File_Index>
4648

> <b_m_subgroup_collapsed>
0

> <r_i_docking_score>
-6.46182

> <r_i_glide_ecoul>
-6.23627

> <r_i_glide_eff_state_penalty>
0

> <r_i_glide_einternal>
21.7317

> <r_i_glide_emodel>
-59.3629

> <r_i_glide_energy>
-49.9972

> <r_i_glide_erotb>
0.774307

> <r_i_glide_esite>
-0.127432

> <r_i_glide_evdw>
-43.761

> <r_i_glide_gscore>
-6.46182

> <r_i_glide_hbond>
-0.159827

> <r_i_glide_ligand_efficiency>
-0.208446

> <r_i_glide_ligand_efficiency_ln>
-1.45734

> <r_i_glide_ligand_efficiency_sa>
-0.654808

> <r_i_glide_lipo>
-2.74943

> <r_i_glide_metal>
0

> <r_i_glide_rewards>
-1.07595

> <s_i_glide_gridfile>
wee1_glide-grid

> <s_m_Source_File>
wee1_decoys_glide_SP.sdf

> <s_m_Source_Path>
/Users/zhangxujun/Desktop

> <s_m_entry_id>
4923

> <s_m_entry_name>
wee1_decoys_glide_SP.4648

> <s_m_subgroup_title>
wee1_decoys_glide_SP

> <s_m_subgroupid>
wee1_decoys_glide_SP


$$$$
