@<TRIPOS>MOLECULE
ZINC08951253_5225
45   47    1
SMALL
USER_CHARGES


@<TRIPOS>ATOM
      1 C1          5.1497   54.5128   28.6215 C.3       1 UNK         0.0000 
      2 C2          5.8110   54.6673   27.2491 C.3       1 UNK         0.0000 
      3 O3          4.8689   54.3046   26.2525 O.3       1 UNK         0.0000 
      4 C4          5.1211   54.4968   24.9380 C.2       1 UNK         0.0000 
      5 O5          6.1522   55.0211   24.5075 O.2       1 UNK         0.0000 
      6 C6          4.0260   53.9892   24.0749 C.2       1 UNK         0.0000 
      7 C7          4.1513   53.7979   22.6630 C.2       1 UNK         0.0000 
      8 C8          3.0153   53.2296   22.0736 C.2       1 UNK         0.0000 
      9 S9          1.7243   53.0571   23.1826 S.3       1 UNK         0.0000 
     10 C10         2.7246   53.6114   24.5064 C.2       1 UNK         0.0000 
     11 N11         2.1897   53.6968   25.7618 N.2       1 UNK         0.0000 
     12 C12         1.5036   52.7282   26.2391 C.2       1 UNK         0.0000 
     13 C13         0.8981   52.7346   27.5807 C.ar      1 UNK         0.0000 
     14 C14         1.0883   53.8351   28.4359 C.ar      1 UNK         0.0000 
     15 C15         0.5192   53.8647   29.7059 C.ar      1 UNK         0.0000 
     16 C16        -0.2186   52.7810   30.1627 C.ar      1 UNK         0.0000 
     17 C17        -0.4446   51.6968   29.3229 C.ar      1 UNK         0.0000 
     18 C18         0.1113   51.6558   28.0429 C.ar      1 UNK         0.0000 
     19 O19        -0.1439   50.5498   27.2611 O.3       1 UNK         0.0000 
     20 I20         0.7134   55.5734   30.8817 I         1 UNK         0.0000 
     21 C21         2.9095   52.7449   20.6378 C.3       1 UNK         0.0000 
     22 C22         5.3232   53.4195   20.4082 C.3       1 UNK         0.0000 
     23 C23         5.3966   54.0818   21.8092 C.3       1 UNK         0.0000 
     24 C24         3.8642   53.1629   18.3542 C.3       1 UNK         0.0000 
     25 H25         5.8178   54.8606   29.4110 H         1 UNK         0.0000 
     26 H26         4.2322   55.0994   28.6845 H         1 UNK         0.0000 
     27 H27         4.8978   53.4730   28.8238 H         1 UNK         0.0000 
     28 H28         6.6936   54.0267   27.1805 H         1 UNK         0.0000 
     29 H29         6.1422   55.6961   27.1078 H         1 UNK         0.0000 
     30 H30         1.3321   51.8169   25.6693 H         1 UNK         0.0000 
     31 H31         1.6620   54.6919   28.1110 H         1 UNK         0.0000 
     32 H32        -0.6575   52.7914   31.1515 H         1 UNK         0.0000 
     33 H33        -1.0671   50.8958   29.6857 H         1 UNK         0.0000 
     34 H34        -0.6763   49.8544   27.6838 H         1 UNK         0.0000 
     35 H35         1.9235   52.8993   20.1940 H         1 UNK         0.0000 
     36 H36         3.1810   51.6925   20.5265 H         1 UNK         0.0000 
     37 H37         6.0241   53.8977   19.7180 H         1 UNK         0.0000 
     38 H38         5.5046   52.3423   20.4257 H         1 UNK         0.0000 
     39 H39         6.3035   53.7517   22.3138 H         1 UNK         0.0000 
     40 H40         5.4952   55.1634   21.6919 H         1 UNK         0.0000 
     41 H41         4.1014   52.0985   18.3018 H         1 UNK         0.0000 
     42 H42         2.8579   53.3595   17.9825 H         1 UNK         0.0000 
     43 H43         4.5971   53.7570   17.8058 H         1 UNK         0.0000 
     44 N44         3.9040   53.6074   19.8333 N.4       1 UNK         0.0000 
     45 H45         3.6308   54.5815   19.8778 H         1 UNK         0.0000 
@<TRIPOS>BOND
     1    1    2 1    
     2    1   25 1    
     3    1   26 1    
     4    1   27 1    
     5    2    3 1    
     6    2   28 1    
     7    2   29 1    
     8    3    4 1    
     9    4    5 2    
    10    4    6 1    
    11    6   10 2    
    12    6    7 1    
    13    7   23 1    
    14    7    8 2    
    15    8    9 1    
    16    8   21 1    
    17    9   10 1    
    18   10   11 1    
    19   11   12 2    
    20   12   13 1    
    21   12   30 1    
    22   13   18 ar   
    23   13   14 ar   
    24   14   15 ar   
    25   14   31 1    
    26   15   16 ar   
    27   15   20 1    
    28   16   17 ar   
    29   16   32 1    
    30   17   18 ar   
    31   17   33 1    
    32   18   19 1    
    33   19   34 1    
    34   21   35 1    
    35   21   36 1    
    36   21   44 1    
    37   22   23 1    
    38   22   37 1    
    39   22   38 1    
    40   22   44 1    
    41   23   39 1    
    42   23   40 1    
    43   24   41 1    
    44   24   42 1    
    45   24   43 1    
    46   24   44 1    
    47   44   45 1    
@<TRIPOS>SUBSTRUCTURE
     1 UNK         1 GROUP             0       ****    0 ROOT    
