@<TRIPOS>MOLECULE
ZINC36290584_6145
36   39    1
SMALL
USER_CHARGES


@<TRIPOS>ATOM
      1 C1          4.8468   52.9453   20.0638 C.3       1 UNK         0.0000 
      2 C2          4.4649   52.9091   21.5528 C.3       1 UNK         0.0000 
      3 H3          4.7659   51.9321   21.9376 H         1 UNK         0.0000 
      4 C4          2.9413   53.1040   21.6818 C.3       1 UNK         0.0000 
      5 C5          2.4038   52.9041   23.1111 C.3       1 UNK         0.0000 
      6 C6          3.3546   53.5973   24.0777 C.2       1 UNK         0.0000 
      7 C7          4.6106   54.0956   23.7523 C.2       1 UNK         0.0000 
      8 S8          5.4141   54.8170   25.1481 S.3       1 UNK         0.0000 
      9 C9          4.0519   54.3618   26.1619 C.ar      1 UNK         0.0000 
     10 N10         3.0886   53.6996   25.4324 N.pl3     1 UNK         0.0000 
     11 C11         2.1183   53.3395   26.3560 C.ar      1 UNK         0.0000 
     12 C12         2.5434   53.9217   27.5497 C.ar      1 UNK         0.0000 
     13 N13         3.7286   54.4968   27.4269 N.2       1 UNK         0.0000 
     14 C14         1.7963   53.9813   28.8331 C.ar      1 UNK         0.0000 
     15 C15         1.2059   52.8384   29.3884 C.ar      1 UNK         0.0000 
     16 C16         0.4742   52.9720   30.5699 C.ar      1 UNK         0.0000 
     17 N17         0.3034   54.1652   31.1947 N.ar      1 UNK         0.0000 
     18 C18         0.8636   55.2666   30.6363 C.ar      1 UNK         0.0000 
     19 C19         1.6244   55.2151   29.4710 C.ar      1 UNK         0.0000 
     20 N20         1.0002   52.6130   26.0399 N.pl3     1 UNK         0.0000 
     21 C21         5.2099   54.0191   22.3497 C.3       1 UNK         0.0000 
     22 H22         5.9045   52.7689   19.9084 H         1 UNK         0.0000 
     23 H23         4.3211   52.1694   19.5042 H         1 UNK         0.0000 
     24 H24         4.6007   53.9038   19.6058 H         1 UNK         0.0000 
     25 H25         2.7034   54.0964   21.3111 H         1 UNK         0.0000 
     26 H26         2.4159   52.4231   21.0105 H         1 UNK         0.0000 
     27 H27         1.3942   53.3106   23.1842 H         1 UNK         0.0000 
     28 H28         2.3337   51.8383   23.3392 H         1 UNK         0.0000 
     29 H29         1.3115   51.8732   28.9132 H         1 UNK         0.0000 
     30 H30         0.0015   52.1180   31.0375 H         1 UNK         0.0000 
     31 H31         0.7115   56.2049   31.1544 H         1 UNK         0.0000 
     32 H32         2.0535   56.1184   29.0573 H         1 UNK         0.0000 
     33 H33         0.8455   52.2338   25.1173 H         1 UNK         0.0000 
     34 H34         0.3052   52.3821   26.7356 H         1 UNK         0.0000 
     35 H35         6.2774   53.8092   22.4037 H         1 UNK         0.0000 
     36 H36         5.0982   54.9820   21.8523 H         1 UNK         0.0000 
@<TRIPOS>BOND
     1    1    2 1    
     2    1   22 1    
     3    1   23 1    
     4    1   24 1    
     5    2    3 1    
     6    2   21 1    
     7    2    4 1    
     8    4    5 1    
     9    4   25 1    
    10    4   26 1    
    11    5    6 1    
    12    5   27 1    
    13    5   28 1    
    14    6   10 1    
    15    6    7 2    
    16    7    8 1    
    17    7   21 1    
    18    8    9 1    
    19    9   13 ar   
    20    9   10 ar   
    21   10   11 ar   
    22   11   12 ar   
    23   11   20 1    
    24   12   13 ar   
    25   12   14 1    
    26   14   19 ar   
    27   14   15 ar   
    28   15   16 ar   
    29   15   29 1    
    30   16   17 ar   
    31   16   30 1    
    32   17   18 ar   
    33   18   19 ar   
    34   18   31 1    
    35   19   32 1    
    36   20   33 1    
    37   20   34 1    
    38   21   35 1    
    39   21   36 1    
@<TRIPOS>SUBSTRUCTURE
     1 UNK         1 GROUP             0       ****    0 ROOT    
