@<TRIPOS>MOLECULE
ZINC53106302_1606
48   49    1
SMALL
USER_CHARGES


@<TRIPOS>ATOM
      1 C1          4.6109   52.4160   29.1172 C.3       1 UNK         0.0000 
      2 C2          3.2355   52.7378   28.5277 C.3       1 UNK         0.0000 
      3 H3          3.1044   52.1881   27.5960 H         1 UNK         0.0000 
      4 C4          3.0984   54.2484   28.2278 C.3       1 UNK         0.0000 
      5 C5          1.6766   54.6136   27.7512 C.3       1 UNK         0.0000 
      6 C6          0.6076   54.0840   28.7341 C.3       1 UNK         0.0000 
      7 C7          0.6917   52.5399   28.9376 C.3       1 UNK         0.0000 
      8 C8          2.1194   52.3415   29.5219 C.3       1 UNK         0.0000 
      9 C9         -0.3918   52.0692   29.9589 C.3       1 UNK         0.0000 
     10 O10        -0.0956   52.4967   31.2817 O.3       1 UNK         0.0000 
     11 N11         0.5415   51.7470   27.6983 N.am      1 UNK         0.0000 
     12 C12        -0.4777   51.7607   26.8173 C.2       1 UNK         0.0000 
     13 O13        -1.4530   52.4967   26.9483 O.2       1 UNK         0.0000 
     14 C14        -0.3450   50.8250   25.5860 C.3       1 UNK         0.0000 
     15 H15         0.6559   50.3930   25.6325 H         1 UNK         0.0000 
     16 C16        -0.4779   51.6773   24.2879 C.3       1 UNK         0.0000 
     17 C17        -1.9248   52.0656   23.8992 C.3       1 UNK         0.0000 
     18 C18        -2.8958   50.8653   23.9713 C.3       1 UNK         0.0000 
     19 N19        -2.7786   50.2791   25.3203 N.am      1 UNK         0.0000 
     20 C20        -1.4405   49.7133   25.6116 C.3       1 UNK         0.0000 
     21 C21        -3.7995   50.3889   26.2163 C.2       1 UNK         0.0000 
     22 O22        -4.8049   51.0697   26.0220 O.2       1 UNK         0.0000 
     23 N23        -3.6956   49.6967   27.3527 N.am      1 UNK         0.0000 
     24 H24         4.7044   52.9093   30.0817 H         1 UNK         0.0000 
     25 H25         4.7339   51.3463   29.2817 H         1 UNK         0.0000 
     26 H26         5.4227   52.7512   28.4703 H         1 UNK         0.0000 
     27 H27         3.3107   54.8158   29.1361 H         1 UNK         0.0000 
     28 H28         3.8586   54.5723   27.5154 H         1 UNK         0.0000 
     29 H29         1.5918   55.6966   27.6817 H         1 UNK         0.0000 
     30 H30         1.5044   54.2101   26.7524 H         1 UNK         0.0000 
     31 H31        -0.3783   54.3531   28.3590 H         1 UNK         0.0000 
     32 H32         0.7047   54.6023   29.6901 H         1 UNK         0.0000 
     33 H33         2.2571   52.8784   30.4623 H         1 UNK         0.0000 
     34 H34         2.2523   51.2967   29.7837 H         1 UNK         0.0000 
     35 H35        -1.3711   52.4358   29.6658 H         1 UNK         0.0000 
     36 H36        -0.4956   50.9836   29.9633 H         1 UNK         0.0000 
     37 H37        -0.7340   52.0998   31.9176 H         1 UNK         0.0000 
     38 H38         1.3037   51.1173   27.5051 H         1 UNK         0.0000 
     39 H39        -0.0079   51.1116   23.4820 H         1 UNK         0.0000 
     40 H40         0.1961   52.5362   24.3134 H         1 UNK         0.0000 
     41 H41        -1.9342   52.4796   22.8907 H         1 UNK         0.0000 
     42 H42        -2.2914   52.8682   24.5407 H         1 UNK         0.0000 
     43 H43        -2.5870   50.0958   23.2627 H         1 UNK         0.0000 
     44 H44        -3.9241   51.1067   23.6961 H         1 UNK         0.0000 
     45 H45        -1.4065   49.0627   26.4816 H         1 UNK         0.0000 
     46 H46        -1.2263   49.0113   24.8049 H         1 UNK         0.0000 
     47 H47        -2.8378   49.2005   27.6094 H         1 UNK         0.0000 
     48 H48        -4.4432   49.7514   28.0236 H         1 UNK         0.0000 
@<TRIPOS>BOND
     1    1    2 1    
     2    1   24 1    
     3    1   25 1    
     4    1   26 1    
     5    2    3 1    
     6    2    8 1    
     7    2    4 1    
     8    4    5 1    
     9    4   27 1    
    10    4   28 1    
    11    5    6 1    
    12    5   29 1    
    13    5   30 1    
    14    6    7 1    
    15    6   31 1    
    16    6   32 1    
    17    7    8 1    
    18    7    9 1    
    19    7   11 1    
    20    8   33 1    
    21    8   34 1    
    22    9   10 1    
    23    9   35 1    
    24    9   36 1    
    25   10   37 1    
    26   11   12 am   BACKBONE|DICT|INTERRES
    27   11   38 1    
    28   12   13 2    
    29   12   14 1    
    30   14   15 1    
    31   14   20 1    
    32   14   16 1    
    33   16   17 1    
    34   16   39 1    
    35   16   40 1    
    36   17   18 1    
    37   17   41 1    
    38   17   42 1    
    39   18   19 1    
    40   18   43 1    
    41   18   44 1    
    42   19   20 1    
    43   19   21 am   BACKBONE|DICT|INTERRES
    44   20   45 1    
    45   20   46 1    
    46   21   22 2    
    47   21   23 am   BACKBONE|DICT|INTERRES
    48   23   47 1    
    49   23   48 1    
@<TRIPOS>SUBSTRUCTURE
     1 UNK         1 GROUP             0       ****    0 ROOT    
