@<TRIPOS>MOLECULE
ZINC28308813_5993
58   60    1
SMALL
USER_CHARGES


@<TRIPOS>ATOM
      1 C1         -3.6512   50.5423   19.7602 C.3       1 UNK         0.0000 
      2 C2         -2.4058   51.0450   20.4662 C.ar      1 UNK         0.0000 
      3 C3         -2.4270   51.2968   21.8371 C.ar      1 UNK         0.0000 
      4 C4         -1.2823   51.7555   22.4845 C.ar      1 UNK         0.0000 
      5 C5         -0.0955   51.9746   21.7664 C.ar      1 UNK         0.0000 
      6 C6         -0.0635   51.6898   20.3880 C.ar      1 UNK         0.0000 
      7 C7         -1.2222   51.2314   19.7506 C.ar      1 UNK         0.0000 
      8 C8          1.2015   51.8734   19.5581 C.3       1 UNK         0.0000 
      9 N9          1.0833   52.4370   22.3814 N.am      1 UNK         0.0000 
     10 C10         1.2138   53.2399   23.4688 C.2       1 UNK         0.0000 
     11 O11         0.2523   53.6964   24.0817 O.2       1 UNK         0.0000 
     12 C12         2.5897   53.5277   23.8645 C.2       1 UNK         0.0000 
     13 C13         2.9533   53.5590   25.1839 C.2       1 UNK         0.0000 
     14 C14         2.2104   53.2964   26.4531 C.ar      1 UNK         0.0000 
     15 C15         1.1676   52.3642   26.5576 C.ar      1 UNK         0.0000 
     16 C16         0.5060   52.1539   27.7664 C.ar      1 UNK         0.0000 
     17 C17         0.8681   52.8650   28.9076 C.ar      1 UNK         0.0000 
     18 C18         1.9172   53.7897   28.8193 C.ar      1 UNK         0.0000 
     19 C19         2.5933   53.9922   27.6155 C.ar      1 UNK         0.0000 
     20 O20         3.6252   54.8954   27.5976 O.3       1 UNK         0.0000 
     21 C21         4.8738   54.3620   28.0226 C.3       1 UNK         0.0000 
     22 O22         0.1577   52.5952   30.0604 O.3       1 UNK         0.0000 
     23 C23         0.5655   53.2053   31.2782 C.3       1 UNK         0.0000 
     24 N24         3.4333   53.7809   22.7970 N.am      1 UNK         0.0000 
     25 C25         4.7476   54.0963   22.7483 C.2       1 UNK         0.0000 
     26 O26         5.4889   54.2449   23.7223 O.2       1 UNK         0.0000 
     27 C27         5.2939   54.3025   21.3560 C.ar      1 UNK         0.0000 
     28 C28         4.8388   53.5298   20.2753 C.ar      1 UNK         0.0000 
     29 C29         5.3850   53.7042   19.0070 C.ar      1 UNK         0.0000 
     30 C30         6.3825   54.6564   18.8101 C.ar      1 UNK         0.0000 
     31 C31         6.8417   55.4311   19.8711 C.ar      1 UNK         0.0000 
     32 C32         6.3035   55.2539   21.1427 C.ar      1 UNK         0.0000 
     33 Br33        7.1341   54.8888   17.0795 Br        1 UNK         0.0000 
     34 H34        -4.3158   50.0241   20.4506 H         1 UNK         0.0000 
     35 H35        -3.3889   49.8265   18.9811 H         1 UNK         0.0000 
     36 H36        -4.1932   51.3674   19.2981 H         1 UNK         0.0000 
     37 H37        -3.3269   51.1344   22.4122 H         1 UNK         0.0000 
     38 H38        -1.3283   51.9227   23.5493 H         1 UNK         0.0000 
     39 H39        -1.2021   51.0188   18.6911 H         1 UNK         0.0000 
     40 H40         1.5699   52.8967   19.6467 H         1 UNK         0.0000 
     41 H41         1.9893   51.2061   19.9104 H         1 UNK         0.0000 
     42 H42         1.0380   51.6722   18.4971 H         1 UNK         0.0000 
     43 H43         1.9319   52.1713   21.9078 H         1 UNK         0.0000 
     44 H44         3.9823   53.7776   25.3948 H         1 UNK         0.0000 
     45 H45         0.8680   51.7692   25.7074 H         1 UNK         0.0000 
     46 H46        -0.2879   51.4226   27.8228 H         1 UNK         0.0000 
     47 H47         2.2296   54.3593   29.6811 H         1 UNK         0.0000 
     48 H48         5.6408   55.1341   27.9657 H         1 UNK         0.0000 
     49 H49         4.8309   54.0153   29.0559 H         1 UNK         0.0000 
     50 H50         5.1964   53.5279   27.3953 H         1 UNK         0.0000 
     51 H51        -0.0945   52.8968   32.0819 H         1 UNK         0.0000 
     52 H52         1.5727   52.8968   31.5577 H         1 UNK         0.0000 
     53 H53         0.5209   54.2943   31.2233 H         1 UNK         0.0000 
     54 H54         2.9699   53.8049   21.9015 H         1 UNK         0.0000 
     55 H55         4.0827   52.7680   20.4024 H         1 UNK         0.0000 
     56 H56         5.0480   53.0900   18.1844 H         1 UNK         0.0000 
     57 H57         7.6245   56.1555   19.7073 H         1 UNK         0.0000 
     58 H58         6.6841   55.8472   21.9630 H         1 UNK         0.0000 
@<TRIPOS>BOND
     1    1    2 1    
     2    1   34 1    
     3    1   35 1    
     4    1   36 1    
     5    2    7 ar   
     6    2    3 ar   
     7    3    4 ar   
     8    3   37 1    
     9    4    5 ar   
    10    4   38 1    
    11    5    6 ar   
    12    5    9 1    
    13    6    7 ar   
    14    6    8 1    
    15    7   39 1    
    16    8   40 1    
    17    8   41 1    
    18    8   42 1    
    19    9   10 am   BACKBONE|DICT|INTERRES
    20    9   43 1    
    21   10   11 2    
    22   10   12 1    
    23   12   13 2    
    24   12   24 1    
    25   13   14 1    
    26   13   44 1    
    27   14   19 ar   
    28   14   15 ar   
    29   15   16 ar   
    30   15   45 1    
    31   16   17 ar   
    32   16   46 1    
    33   17   18 ar   
    34   17   22 1    
    35   18   19 ar   
    36   18   47 1    
    37   19   20 1    
    38   20   21 1    
    39   21   48 1    
    40   21   49 1    
    41   21   50 1    
    42   22   23 1    
    43   23   51 1    
    44   23   52 1    
    45   23   53 1    
    46   24   25 am   BACKBONE|DICT|INTERRES
    47   24   54 1    
    48   25   26 2    
    49   25   27 1    
    50   27   32 ar   
    51   27   28 ar   
    52   28   29 ar   
    53   28   55 1    
    54   29   30 ar   
    55   29   56 1    
    56   30   31 ar   
    57   30   33 1    
    58   31   32 ar   
    59   31   57 1    
    60   32   58 1    
@<TRIPOS>SUBSTRUCTURE
     1 UNK         1 GROUP             0       ****    0 ROOT    
