ZINC13255828_1620
                    3D
 Schrodinger Suite 2024-2.
 44 45  0  0  1  0            999 V2000
    6.3464   56.0178   18.3128 C   0  0  0  0  0  0
    6.3043   55.9667   19.8351 C   0  0  0  0  0  0
    6.7866   56.8968   20.4817 O   0  0  0  0  0  0
    5.6931   54.8963   20.3807 N   0  0  0  0  0  0
    5.5468   54.6402   21.7515 C   0  0  0  0  0  0
    4.3368   54.0967   22.1829 C   0  0  0  0  0  0
    4.1351   53.8442   23.5374 C   0  0  0  0  0  0
    5.1457   54.1179   24.4626 C   0  0  0  0  0  0
    6.3709   54.6365   24.0251 C   0  0  0  0  0  0
    6.5707   54.8967   22.6740 C   0  0  0  0  0  0
    4.8945   53.7632   25.7971 N   0  0  0  0  0  0
    5.4451   54.2521   26.9243 C   0  0  0  0  0  0
    6.2395   55.1932   26.9534 O   0  0  0  0  0  0
    5.0869   53.5103   28.2268 C   0  0  0  0  0  0
    3.5995   53.5116   28.7726 C   0  0  0  0  0  0
    3.1881   54.9681   29.1550 C   0  0  0  0  0  0
    1.7041   55.1868   29.5581 C   0  0  0  0  0  0
    0.7234   54.5179   28.5750 C   0  0  0  0  0  0
    1.0894   53.0772   28.1791 C   0  0  0  0  0  0
    2.5601   52.9850   27.7270 C   0  0  0  0  0  0
    3.5013   52.5869   30.0417 C   0  0  0  0  0  0
    4.3594   51.6967   30.1762 O   0  0  0  0  0  0
    5.8395   56.9149   17.9561 H   0  0  0  0  0  0
    7.3806   56.0508   17.9702 H   0  0  0  0  0  0
    5.8649   55.1494   17.8620 H   0  0  0  0  0  0
    5.1884   54.2832   19.7582 H   0  0  0  0  0  0
    3.5433   53.8883   21.4787 H   0  0  0  0  0  0
    3.1922   53.4269   23.8605 H   0  0  0  0  0  0
    7.1843   54.8196   24.7099 H   0  0  0  0  0  0
    7.5238   55.2922   22.3537 H   0  0  0  0  0  0
    4.2096   53.0334   25.9210 H   0  0  0  0  0  0
    5.7484   53.8956   29.0046 H   0  0  0  0  0  0
    5.4278   52.4911   28.0621 H   0  0  0  0  0  0
    3.3605   55.6212   28.3011 H   0  0  0  0  0  0
    3.8442   55.2967   29.9539 H   0  0  0  0  0  0
    1.4988   56.2578   29.5960 H   0  0  0  0  0  0
    1.5044   54.8419   30.5704 H   0  0  0  0  0  0
    0.7043   55.1378   27.6817 H   0  0  0  0  0  0
   -0.2803   54.4966   28.9954 H   0  0  0  0  0  0
    0.4363   52.7464   27.3705 H   0  0  0  0  0  0
    0.8893   52.3952   29.0058 H   0  0  0  0  0  0
    2.7835   51.9626   27.4332 H   0  0  0  0  0  0
    2.6017   53.5917   26.8243 H   0  0  0  0  0  0
    2.5907   52.7402   30.8817 O   0  5  0  0  0  0
  1  2  1  0  0  0
  1 23  1  0  0  0
  1 24  1  0  0  0
  1 25  1  0  0  0
  2  3  2  0  0  0
  2  4  1  0  0  0
  4  5  1  0  0  0
  4 26  1  0  0  0
  5 10  2  0  0  0
  5  6  1  0  0  0
  6  7  2  0  0  0
  6 27  1  0  0  0
  7  8  1  0  0  0
  7 28  1  0  0  0
  8  9  2  0  0  0
  8 11  1  0  0  0
  9 10  1  0  0  0
  9 29  1  0  0  0
 10 30  1  0  0  0
 11 12  1  0  0  0
 11 31  1  0  0  0
 12 13  2  0  0  0
 12 14  1  0  0  0
 14 15  1  0  0  0
 14 32  1  0  0  0
 14 33  1  0  0  0
 15 20  1  0  0  0
 15 16  1  0  0  0
 15 21  1  0  0  0
 16 17  1  0  0  0
 16 34  1  0  0  0
 16 35  1  0  0  0
 17 18  1  0  0  0
 17 36  1  0  0  0
 17 37  1  0  0  0
 18 19  1  0  0  0
 18 38  1  0  0  0
 18 39  1  0  0  0
 19 20  1  0  0  0
 19 40  1  0  0  0
 19 41  1  0  0  0
 20 42  1  0  0  0
 20 43  1  0  0  0
 21 22  2  0  0  0
 21 44  1  0  0  0
M  CHG  1  44  -1
M  END
> <i_i_glide_confnum>
88

> <i_i_glide_lignum>
1621

> <i_i_glide_posenum>
64

> <i_i_glide_rotatable_bonds>
7

> <i_m_Source_File_Index>
5078

> <b_m_subgroup_collapsed>
0

> <r_i_docking_score>
-7.85703

> <r_i_glide_ecoul>
-10.9451

> <r_i_glide_eff_state_penalty>
0

> <r_i_glide_einternal>
8.63322

> <r_i_glide_emodel>
-61.4944

> <r_i_glide_energy>
-43.8198

> <r_i_glide_erotb>
0.924856

> <r_i_glide_esite>
0

> <r_i_glide_evdw>
-32.8746

> <r_i_glide_gscore>
-7.85703

> <r_i_glide_hbond>
-0.49366

> <r_i_glide_ligand_efficiency>
-0.34161

> <r_i_glide_ligand_efficiency_ln>
-1.8999

> <r_i_glide_ligand_efficiency_sa>
-0.971493

> <r_i_glide_lipo>
-3.05513

> <r_i_glide_metal>
0

> <r_i_glide_rewards>
-1.94759

> <s_i_glide_gridfile>
wee1_glide-grid

> <s_m_Source_File>
wee1_decoys_glide_SP.sdf

> <s_m_Source_Path>
/Users/zhangxujun/Desktop

> <s_m_entry_id>
5353

> <s_m_entry_name>
wee1_decoys_glide_SP.5078

> <s_m_subgroup_title>
wee1_decoys_glide_SP

> <s_m_subgroupid>
wee1_decoys_glide_SP


$$$$
