@<TRIPOS>MOLECULE
ZINC09238284_5181
52   56    1
SMALL
USER_CHARGES


@<TRIPOS>ATOM
      1 C1          7.2845   51.7162   14.2013 C.ar      1 UNK         0.0000 
      2 C2          8.4865   52.0026   14.8423 C.ar      1 UNK         0.0000 
      3 C3          8.4780   52.7339   16.0273 C.ar      1 UNK         0.0000 
      4 C4          7.2679   53.1719   16.5793 C.ar      1 UNK         0.0000 
      5 C5          6.0653   52.8856   15.9185 C.ar      1 UNK         0.0000 
      6 C6          6.0750   52.1552   14.7333 C.ar      1 UNK         0.0000 
      7 C7          7.2941   53.9611   17.8526 C.ar      1 UNK         0.0000 
      8 N8          8.2353   54.8357   18.1335 N.2       1 UNK         0.0000 
      9 N9          7.9165   55.4257   19.3497 N.2       1 UNK         0.0000 
     10 C10         6.7935   54.8971   19.7586 C.ar      1 UNK         0.0000 
     11 N11         6.3374   53.9643   18.8526 N.pl3     1 UNK         0.0000 
     12 N12         5.1919   53.1661   18.9314 N.3       1 UNK         0.0000 
     13 C13         4.7207   52.8977   20.2957 C.3       1 UNK         0.0000 
     14 H14         5.5087   52.3652   20.8290 H         1 UNK         0.0000 
     15 C15         4.4746   54.2508   21.0410 C.3       1 UNK         0.0000 
     16 H16         3.8207   54.8550   20.4244 H         1 UNK         0.0000 
     17 S17         5.9966   55.2597   21.2817 S.3       1 UNK         0.0000 
     18 C18         3.7346   54.0971   22.4092 C.2       1 UNK         0.0000 
     19 O19         2.5101   53.9857   22.3984 O.2       1 UNK         0.0000 
     20 N20         4.4496   54.1159   23.5541 N.am      1 UNK         0.0000 
     21 C21         4.0086   54.0956   24.8991 C.ar      1 UNK         0.0000 
     22 C22         2.7145   53.6946   25.2829 C.ar      1 UNK         0.0000 
     23 C23         2.3419   53.6665   26.6245 C.ar      1 UNK         0.0000 
     24 C24         3.2520   54.0335   27.6081 C.ar      1 UNK         0.0000 
     25 C25         4.5363   54.4305   27.2457 C.ar      1 UNK         0.0000 
     26 C26         4.9290   54.4702   25.9008 C.ar      1 UNK         0.0000 
     27 C27         6.3546   54.9151   25.5549 C.3       1 UNK         0.0000 
     28 F28         6.3057   56.0747   24.9014 F         1 UNK         0.0000 
     29 F29         7.1042   55.0831   26.6420 F         1 UNK         0.0000 
     30 F30         6.9646   54.0187   24.7785 F         1 UNK         0.0000 
     31 C31         3.5022   51.9602   20.2926 C.ar      1 UNK         0.0000 
     32 C32         3.3956   50.9811   21.2812 C.ar      1 UNK         0.0000 
     33 C33         2.2936   50.1331   21.3211 C.ar      1 UNK         0.0000 
     34 C34         1.2909   50.2640   20.3620 C.ar      1 UNK         0.0000 
     35 C35         1.3806   51.2404   19.3725 C.ar      1 UNK         0.0000 
     36 C36         2.4809   52.0937   19.3421 C.ar      1 UNK         0.0000 
     37 H37         7.2924   51.1438   13.2830 H         1 UNK         0.0000 
     38 H38         9.4209   51.6570   14.4270 H         1 UNK         0.0000 
     39 H39         9.4133   52.9529   16.5221 H         1 UNK         0.0000 
     40 H40         5.1201   53.2285   16.3103 H         1 UNK         0.0000 
     41 H41         5.1479   51.9298   14.2282 H         1 UNK         0.0000 
     42 H42         5.4083   52.2711   18.4928 H         1 UNK         0.0000 
     43 H43         5.4427   54.2545   23.4413 H         1 UNK         0.0000 
     44 H44         1.9792   53.3654   24.5678 H         1 UNK         0.0000 
     45 H45         1.3479   53.3460   26.9019 H         1 UNK         0.0000 
     46 H46         2.9624   54.0077   28.6470 H         1 UNK         0.0000 
     47 H47         5.2213   54.7121   28.0344 H         1 UNK         0.0000 
     48 H48         4.1634   50.8981   22.0319 H         1 UNK         0.0000 
     49 H49         2.2156   49.3812   22.0936 H         1 UNK         0.0000 
     50 H50         0.4377   49.6039   20.3869 H         1 UNK         0.0000 
     51 H51         0.5981   51.3400   18.6333 H         1 UNK         0.0000 
     52 H52         2.5342   52.8597   18.5805 H         1 UNK         0.0000 
@<TRIPOS>BOND
     1    1    6 ar   
     2    1    2 ar   
     3    1   37 1    
     4    2    3 ar   
     5    2   38 1    
     6    3    4 ar   
     7    3   39 1    
     8    4    5 ar   
     9    4    7 1    
    10    5    6 ar   
    11    5   40 1    
    12    6   41 1    
    13    7   11 ar   
    14    7    8 ar   
    15    8    9 ar   
    16    9   10 ar   
    17   10   17 1    
    18   10   11 ar   
    19   11   12 1    
    20   12   13 1    
    21   12   42 1    
    22   13   14 1    
    23   13   15 1    
    24   13   31 1    
    25   15   16 1    
    26   15   17 1    
    27   15   18 1    
    28   18   19 2    
    29   18   20 am   BACKBONE|DICT|INTERRES
    30   20   21 1    
    31   20   43 1    
    32   21   26 ar   
    33   21   22 ar   
    34   22   23 ar   
    35   22   44 1    
    36   23   24 ar   
    37   23   45 1    
    38   24   25 ar   
    39   24   46 1    
    40   25   26 ar   
    41   25   47 1    
    42   26   27 1    
    43   27   28 1    
    44   27   29 1    
    45   27   30 1    
    46   31   36 ar   
    47   31   32 ar   
    48   32   33 ar   
    49   32   48 1    
    50   33   34 ar   
    51   33   49 1    
    52   34   35 ar   
    53   34   50 1    
    54   35   36 ar   
    55   35   51 1    
    56   36   52 1    
@<TRIPOS>SUBSTRUCTURE
     1 UNK         1 GROUP             0       ****    0 ROOT    
