@<TRIPOS>MOLECULE
ZINC17746827_4663
60   63    1
SMALL
USER_CHARGES


@<TRIPOS>ATOM
      1 C1         -0.1559   46.5411   16.3967 C.3       1 UNK         0.0000 
      2 C2         -0.3280   47.9566   16.9145 C.ar      1 UNK         0.0000 
      3 C3         -1.6045   48.4655   17.1633 C.ar      1 UNK         0.0000 
      4 C4         -1.7547   49.7676   17.6349 C.ar      1 UNK         0.0000 
      5 C5         -0.6270   50.5616   17.8554 C.ar      1 UNK         0.0000 
      6 C6          0.6517   50.0524   17.6020 C.ar      1 UNK         0.0000 
      7 C7          0.7987   48.7517   17.1310 C.ar      1 UNK         0.0000 
      8 S8         -0.8258   52.2329   18.4873 S.o2      1 UNK         0.0000 
      9 O9          0.4235   52.9021   18.1046 O.2       1 UNK         0.0000 
     10 O10        -2.0316   52.7487   17.8270 O.2       1 UNK         0.0000 
     11 N11        -1.0379   51.7862   20.1826 N.2       1 UNK         0.0000 
     12 C12        -0.0160   51.6969   20.9408 C.2       1 UNK         0.0000 
     13 N13         1.3270   51.8780   20.5929 N.pl3     1 UNK         0.0000 
     14 C14         2.3684   52.3963   21.3371 C.2       1 UNK         0.0000 
     15 N15         2.2771   53.3113   22.2339 N.2       1 UNK         0.0000 
     16 C16         3.2348   53.7273   23.1091 C.ar      1 UNK         0.0000 
     17 C17         4.4744   54.2559   22.9479 C.ar      1 UNK         0.0000 
     18 N18         5.0536   54.3655   24.2019 N.pl3     1 UNK         0.0000 
     19 N19         4.0570   54.1259   25.1470 N.pl3     1 UNK         0.0000 
     20 C20         2.9392   53.6963   24.5287 C.ar      1 UNK         0.0000 
     21 O21         1.8899   53.3268   25.0700 O.2       1 UNK         0.0000 
     22 C22         4.2465   54.1417   26.5484 C.ar      1 UNK         0.0000 
     23 C23         5.4495   53.6974   27.1060 C.ar      1 UNK         0.0000 
     24 C24         5.6288   53.7386   28.4814 C.ar      1 UNK         0.0000 
     25 C25         4.5952   54.1973   29.2977 C.ar      1 UNK         0.0000 
     26 C26         3.3841   54.6086   28.7642 C.ar      1 UNK         0.0000 
     27 C27         3.2124   54.5783   27.3909 C.ar      1 UNK         0.0000 
     28 C28         5.9951   55.4423   24.5413 C.3       1 UNK         0.0000 
     29 C29         5.2642   54.6377   21.7008 C.3       1 UNK         0.0000 
     30 S30         3.8623   51.4885   20.8818 S.3       1 UNK         0.0000 
     31 C31        -0.2714   51.2779   22.3570 C.ar      1 UNK         0.0000 
     32 C32        -1.4271   51.7073   23.0334 C.ar      1 UNK         0.0000 
     33 C33        -1.6881   51.3085   24.3427 C.ar      1 UNK         0.0000 
     34 C34        -0.8014   50.4584   24.9952 C.ar      1 UNK         0.0000 
     35 C35         0.3434   50.0065   24.3489 C.ar      1 UNK         0.0000 
     36 C36         0.6020   50.4116   23.0427 C.ar      1 UNK         0.0000 
     37 H37         0.2547   45.9006   17.1775 H         1 UNK         0.0000 
     38 H38         0.5418   46.5316   15.5586 H         1 UNK         0.0000 
     39 H39        -1.0970   46.1176   16.0425 H         1 UNK         0.0000 
     40 H40        -2.4799   47.8548   16.9958 H         1 UNK         0.0000 
     41 H41        -2.7428   50.1576   17.8322 H         1 UNK         0.0000 
     42 H42         1.5377   50.6512   17.7654 H         1 UNK         0.0000 
     43 H43         1.7927   48.3704   16.9382 H         1 UNK         0.0000 
     44 H44         6.2410   53.3082   26.4819 H         1 UNK         0.0000 
     45 H45         6.5660   53.4097   28.9025 H         1 UNK         0.0000 
     46 H46         4.7044   54.2299   30.3694 H         1 UNK         0.0000 
     47 H47         2.5858   54.9513   29.4057 H         1 UNK         0.0000 
     48 H48         2.2653   54.8967   26.9898 H         1 UNK         0.0000 
     49 H49         6.6842   55.1302   25.3233 H         1 UNK         0.0000 
     50 H50         6.6231   55.7011   23.6898 H         1 UNK         0.0000 
     51 H51         5.5039   56.3506   24.8832 H         1 UNK         0.0000 
     52 H52         4.6909   54.4333   20.7968 H         1 UNK         0.0000 
     53 H53         5.5065   55.6965   21.6810 H         1 UNK         0.0000 
     54 H54         6.1991   54.0847   21.6529 H         1 UNK         0.0000 
     55 H55        -2.1327   52.3662   22.5488 H         1 UNK         0.0000 
     56 H56        -2.5781   51.6531   24.8485 H         1 UNK         0.0000 
     57 H57        -1.0052   50.1408   26.0090 H         1 UNK         0.0000 
     58 H58         1.0263   49.3375   24.8538 H         1 UNK         0.0000 
     59 H59         1.4886   50.0251   22.5617 H         1 UNK         0.0000 
     60 H60         1.4983   51.9709   19.6024 H         1 UNK         0.0000 
@<TRIPOS>BOND
     1    1    2 1    
     2    1   37 1    
     3    1   38 1    
     4    1   39 1    
     5    2    7 ar   
     6    2    3 ar   
     7    3    4 ar   
     8    3   40 1    
     9    4    5 ar   
    10    4   41 1    
    11    5    6 ar   
    12    5    8 1    
    13    6    7 ar   
    14    6   42 1    
    15    7   43 1    
    16    8    9 2    
    17    8   10 2    
    18    8   11 1    
    19   11   12 2    
    20   12   13 1    
    21   12   31 1    
    22   13   14 1    
    23   13   60 1    
    24   14   15 2    
    25   14   30 1    
    26   15   16 1    
    27   16   20 ar   
    28   16   17 ar   
    29   17   18 ar   
    30   17   29 1    
    31   18   19 1    
    32   18   28 1    
    33   19   20 ar   
    34   19   22 1    
    35   20   21 2    
    36   22   27 ar   
    37   22   23 ar   
    38   23   24 ar   
    39   23   44 1    
    40   24   25 ar   
    41   24   45 1    
    42   25   26 ar   
    43   25   46 1    
    44   26   27 ar   
    45   26   47 1    
    46   27   48 1    
    47   28   49 1    
    48   28   50 1    
    49   28   51 1    
    50   29   52 1    
    51   29   53 1    
    52   29   54 1    
    53   31   36 ar   
    54   31   32 ar   
    55   32   33 ar   
    56   32   55 1    
    57   33   34 ar   
    58   33   56 1    
    59   34   35 ar   
    60   34   57 1    
    61   35   36 ar   
    62   35   58 1    
    63   36   59 1    
@<TRIPOS>SUBSTRUCTURE
     1 UNK         1 GROUP             0       ****    0 ROOT    
