@<TRIPOS>MOLECULE
ZINC39675374_2928
78   81    1
SMALL
USER_CHARGES


@<TRIPOS>ATOM
      1 C1         -3.6531   51.1852   16.5187 C.3       1 UNK         0.0000 
      2 C2         -3.6004   50.0007   17.5036 C.3       1 UNK         0.0000 
      3 C3         -2.5091   50.0292   18.6174 C.3       1 UNK         0.0000 
      4 H4         -2.5265   49.0151   19.0158 H         1 UNK         0.0000 
      5 C5         -1.0884   50.2901   18.0849 C.ar      1 UNK         0.0000 
      6 C6         -0.6666   51.5836   17.7391 C.ar      1 UNK         0.0000 
      7 C7          0.6300   51.8066   17.2885 C.ar      1 UNK         0.0000 
      8 C8          1.5072   50.7325   17.1721 C.ar      1 UNK         0.0000 
      9 C9          1.1023   49.4414   17.4972 C.ar      1 UNK         0.0000 
     10 C10        -0.1951   49.2194   17.9504 C.ar      1 UNK         0.0000 
     11 C11        -2.8340   50.9800   19.8026 C.2       1 UNK         0.0000 
     12 O12        -3.2950   52.0957   19.5531 O.2       1 UNK         0.0000 
     13 N13        -2.5906   50.5823   21.0779 N.am      1 UNK         0.0000 
     14 C14        -2.6810   51.5155   22.2157 C.3       1 UNK         0.0000 
     15 C15        -1.5320   51.0512   23.1420 C.3       1 UNK         0.0000 
     16 H16        -1.6973   51.3177   24.1838 H         1 UNK         0.0000 
     17 C17        -1.5777   49.4995   22.9479 C.3       1 UNK         0.0000 
     18 C18        -1.8432   49.3668   21.4336 C.3       1 UNK         0.0000 
     19 C19        -2.7875   48.8258   23.6755 C.3       1 UNK         0.0000 
     20 C20        -2.7055   48.9514   25.2106 C.3       1 UNK         0.0000 
     21 N21        -1.3897   48.2955   25.6817 N.4       1 UNK         0.0000 
     22 C22        -0.1212   48.7686   24.9399 C.3       1 UNK         0.0000 
     23 C23        -0.3624   48.6504   23.4177 C.3       1 UNK         0.0000 
     24 C24        -0.1757   51.6712   22.6866 C.2       1 UNK         0.0000 
     25 O25        -0.0360   52.0960   21.5408 O.2       1 UNK         0.0000 
     26 N26         0.7821   51.7819   23.6208 N.am      1 UNK         0.0000 
     27 C27         2.1272   52.3612   23.4926 C.3       1 UNK         0.0000 
     28 H28         2.7021   51.8331   24.2494 H         1 UNK         0.0000 
     29 C29         2.8670   52.0613   22.1625 C.3       1 UNK         0.0000 
     30 C30         2.1572   53.8623   23.8625 C.3       1 UNK         0.0000 
     31 C31         3.2768   54.2197   24.8688 C.3       1 UNK         0.0000 
     32 C32         3.1305   53.7054   26.3074 C.ar      1 UNK         0.0000 
     33 C33         1.9153   53.2429   26.8244 C.ar      1 UNK         0.0000 
     34 C34         1.8392   52.7947   28.1423 C.ar      1 UNK         0.0000 
     35 C35         2.9637   52.8101   28.9656 C.ar      1 UNK         0.0000 
     36 C36         4.1762   53.2954   28.4552 C.ar      1 UNK         0.0000 
     37 C37         4.2556   53.7366   27.1356 C.ar      1 UNK         0.0000 
     38 O38         2.7922   52.3296   30.2495 O.3       1 UNK         0.0000 
     39 C39         3.9043   52.2976   31.1339 C.3       1 UNK         0.0000 
     40 H40        -4.4817   51.0688   15.8206 H         1 UNK         0.0000 
     41 H41        -3.7915   52.1386   17.0290 H         1 UNK         0.0000 
     42 H42        -2.7430   51.2525   15.9254 H         1 UNK         0.0000 
     43 H43        -3.4684   49.0880   16.9211 H         1 UNK         0.0000 
     44 H44        -4.5839   49.8974   17.9663 H         1 UNK         0.0000 
     45 H45        -1.3377   52.4237   17.8312 H         1 UNK         0.0000 
     46 H46         0.9604   52.8054   17.0372 H         1 UNK         0.0000 
     47 H47         2.5216   50.8955   16.8336 H         1 UNK         0.0000 
     48 H48         1.8056   48.6263   17.4006 H         1 UNK         0.0000 
     49 H49        -0.4956   48.2154   18.2087 H         1 UNK         0.0000 
     50 H50        -2.5458   52.5685   21.9638 H         1 UNK         0.0000 
     51 H51        -3.6083   51.3722   22.7709 H         1 UNK         0.0000 
     52 H52        -2.2935   48.4156   21.1486 H         1 UNK         0.0000 
     53 H53        -0.8729   49.4167   20.9354 H         1 UNK         0.0000 
     54 H54        -3.7303   49.2725   23.3573 H         1 UNK         0.0000 
     55 H55        -2.8829   47.7771   23.3871 H         1 UNK         0.0000 
     56 H56        -2.7010   49.9768   25.5806 H         1 UNK         0.0000 
     57 H57        -3.5070   48.4100   25.7186 H         1 UNK         0.0000 
     58 H58        -1.2959   48.4402   26.6947 H         1 UNK         0.0000 
     59 H59         0.0685   49.7838   25.2872 H         1 UNK         0.0000 
     60 H60         0.6871   48.1215   25.2830 H         1 UNK         0.0000 
     61 H61        -0.4959   47.6047   23.1426 H         1 UNK         0.0000 
     62 H62         0.5424   48.9611   22.8954 H         1 UNK         0.0000 
     63 H63         0.5473   51.4689   24.5483 H         1 UNK         0.0000 
     64 H64         3.8757   52.4760   22.1768 H         1 UNK         0.0000 
     65 H65         2.9624   50.9896   21.9807 H         1 UNK         0.0000 
     66 H66         2.3864   52.5254   21.3016 H         1 UNK         0.0000 
     67 H67         2.3065   54.4509   22.9566 H         1 UNK         0.0000 
     68 H68         1.1933   54.2092   24.2365 H         1 UNK         0.0000 
     69 H69         4.2287   53.8690   24.4662 H         1 UNK         0.0000 
     70 H70         3.3598   55.2976   24.9271 H         1 UNK         0.0000 
     71 H71         1.0196   53.2259   26.2245 H         1 UNK         0.0000 
     72 H72         0.8996   52.4329   28.5315 H         1 UNK         0.0000 
     73 H73         5.0675   53.3300   29.0612 H         1 UNK         0.0000 
     74 H74         5.2005   54.0996   26.7590 H         1 UNK         0.0000 
     75 H75         3.6009   51.8598   32.0850 H         1 UNK         0.0000 
     76 H76         4.7156   51.6923   30.7310 H         1 UNK         0.0000 
     77 H77         4.3008   53.2937   31.3297 H         1 UNK         0.0000 
     78 H78        -1.4647   47.2943   25.5778 H         1 UNK         0.0000 
@<TRIPOS>BOND
     1    1    2 1    
     2    1   40 1    
     3    1   41 1    
     4    1   42 1    
     5    2    3 1    
     6    2   43 1    
     7    2   44 1    
     8    3    4 1    
     9    3    5 1    
    10    3   11 1    
    11    5   10 ar   
    12    5    6 ar   
    13    6    7 ar   
    14    6   45 1    
    15    7    8 ar   
    16    7   46 1    
    17    8    9 ar   
    18    8   47 1    
    19    9   10 ar   
    20    9   48 1    
    21   10   49 1    
    22   11   12 2    
    23   11   13 am   BACKBONE|DICT|INTERRES
    24   13   18 1    
    25   13   14 1    
    26   14   15 1    
    27   14   50 1    
    28   14   51 1    
    29   15   16 1    
    30   15   17 1    
    31   15   24 1    
    32   17   23 1    
    33   17   18 1    
    34   17   19 1    
    35   18   52 1    
    36   18   53 1    
    37   19   20 1    
    38   19   54 1    
    39   19   55 1    
    40   20   21 1    
    41   20   56 1    
    42   20   57 1    
    43   21   22 1    
    44   21   58 1    
    45   21   78 1    
    46   22   23 1    
    47   22   59 1    
    48   22   60 1    
    49   23   61 1    
    50   23   62 1    
    51   24   25 2    
    52   24   26 am   BACKBONE|DICT|INTERRES
    53   26   27 1    
    54   26   63 1    
    55   27   28 1    
    56   27   29 1    
    57   27   30 1    
    58   29   64 1    
    59   29   65 1    
    60   29   66 1    
    61   30   31 1    
    62   30   67 1    
    63   30   68 1    
    64   31   32 1    
    65   31   69 1    
    66   31   70 1    
    67   32   37 ar   
    68   32   33 ar   
    69   33   34 ar   
    70   33   71 1    
    71   34   35 ar   
    72   34   72 1    
    73   35   36 ar   
    74   35   38 1    
    75   36   37 ar   
    76   36   73 1    
    77   37   74 1    
    78   38   39 1    
    79   39   75 1    
    80   39   76 1    
    81   39   77 1    
@<TRIPOS>SUBSTRUCTURE
     1 UNK         1 GROUP             0       ****    0 ROOT    
