@<TRIPOS>MOLECULE
ZINC16609134_6103
55   57    1
SMALL
USER_CHARGES


@<TRIPOS>ATOM
      1 C1          6.7945   55.6230   24.8109 C.3       1 UNK         0.0000 
      2 C2          6.2717   54.1778   24.8612 C.3       1 UNK         0.0000 
      3 N3          4.7799   54.0842   24.8564 N.pl3     1 UNK         0.0000 
      4 C4          4.0481   53.9086   26.0359 C.2       1 UNK         0.0000 
      5 C5          2.6939   53.7175   26.0235 C.2       1 UNK         0.0000 
      6 C6          1.8811   53.6668   24.7048 C.3       1 UNK         0.0000 
      7 H7          1.1051   54.4310   24.7587 H         1 UNK         0.0000 
      8 N8          2.7854   54.0963   23.6188 N.pl3     1 UNK         0.0000 
      9 C9          4.1493   54.0967   23.6120 C.2       1 UNK         0.0000 
     10 S10         4.8318   54.0967   22.0818 S.2       1 UNK         0.0000 
     11 C11         1.1366   52.3527   24.4004 C.ar      1 UNK         0.0000 
     12 C12        -0.1666   52.1587   24.8703 C.ar      1 UNK         0.0000 
     13 C13        -0.8749   51.0042   24.5420 C.ar      1 UNK         0.0000 
     14 C14        -0.2911   50.0337   23.7145 C.ar      1 UNK         0.0000 
     15 C15         1.0105   50.2195   23.2498 C.ar      1 UNK         0.0000 
     16 C16         1.7088   51.3774   23.5741 C.ar      1 UNK         0.0000 
     17 N17        -0.9288   48.8459   23.3134 N.am      1 UNK         0.0000 
     18 C18        -2.2515   48.5839   23.2241 C.2       1 UNK         0.0000 
     19 O19        -3.1443   49.3710   23.5401 O.2       1 UNK         0.0000 
     20 C20        -2.6115   47.2160   22.6889 C.ar      1 UNK         0.0000 
     21 C21        -3.7970   46.5928   23.1074 C.ar      1 UNK         0.0000 
     22 C22        -4.1598   45.3411   22.6086 C.ar      1 UNK         0.0000 
     23 C23        -3.3437   44.6958   21.6819 C.ar      1 UNK         0.0000 
     24 C24        -2.1610   45.2983   21.2581 C.ar      1 UNK         0.0000 
     25 C25        -1.8025   46.5546   21.7487 C.ar      1 UNK         0.0000 
     26 Cl26       -1.1398   44.4848   20.1307 Cl        1 UNK         0.0000 
     27 Cl27       -5.6091   44.5800   23.1514 Cl        1 UNK         0.0000 
     28 C28         1.9214   53.5267   27.2597 C.2       1 UNK         0.0000 
     29 O29         1.3731   52.4654   27.5575 O.2       1 UNK         0.0000 
     30 O30         1.8631   54.6582   28.0007 O.3       1 UNK         0.0000 
     31 C31         1.1337   54.7026   29.2178 C.3       1 UNK         0.0000 
     32 C32         1.2972   56.0953   29.8383 C.3       1 UNK         0.0000 
     33 C33         4.8787   53.9434   27.3378 C.3       1 UNK         0.0000 
     34 H34         7.8810   55.6402   24.8813 H         1 UNK         0.0000 
     35 H35         6.5347   56.1012   23.8678 H         1 UNK         0.0000 
     36 H36         6.3994   56.2236   25.6287 H         1 UNK         0.0000 
     37 H37         6.7063   53.6782   25.7239 H         1 UNK         0.0000 
     38 H38         6.7125   53.6097   24.0413 H         1 UNK         0.0000 
     39 H39         2.3916   54.1948   22.6928 H         1 UNK         0.0000 
     40 H40        -0.6334   52.8969   25.5051 H         1 UNK         0.0000 
     41 H41        -1.8672   50.8781   24.9472 H         1 UNK         0.0000 
     42 H42         1.4852   49.4819   22.6184 H         1 UNK         0.0000 
     43 H43         2.7031   51.5074   23.1741 H         1 UNK         0.0000 
     44 H44        -0.3065   48.1174   23.0069 H         1 UNK         0.0000 
     45 H45        -4.4449   47.0798   23.8238 H         1 UNK         0.0000 
     46 H46        -3.6287   43.7294   21.2923 H         1 UNK         0.0000 
     47 H47        -0.8955   47.0092   21.3787 H         1 UNK         0.0000 
     48 H48         0.0796   54.4949   29.0263 H         1 UNK         0.0000 
     49 H49         1.4996   53.9386   29.9060 H         1 UNK         0.0000 
     50 H50         0.7155   56.1873   30.7559 H         1 UNK         0.0000 
     51 H51         2.3386   56.2989   30.0817 H         1 UNK         0.0000 
     52 H52         0.9667   56.8755   29.1527 H         1 UNK         0.0000 
     53 H53         4.2924   53.9268   28.2541 H         1 UNK         0.0000 
     54 H54         5.5302   53.0703   27.3937 H         1 UNK         0.0000 
     55 H55         5.4881   54.8457   27.3934 H         1 UNK         0.0000 
@<TRIPOS>BOND
     1    1    2 1    
     2    1   34 1    
     3    1   35 1    
     4    1   36 1    
     5    2    3 1    
     6    2   37 1    
     7    2   38 1    
     8    3    9 1    
     9    3    4 1    
    10    4    5 2    
    11    4   33 1    
    12    5    6 1    
    13    5   28 1    
    14    6    7 1    
    15    6    8 1    
    16    6   11 1    
    17    8    9 1    
    18    8   39 1    
    19    9   10 2    
    20   11   16 ar   
    21   11   12 ar   
    22   12   13 ar   
    23   12   40 1    
    24   13   14 ar   
    25   13   41 1    
    26   14   15 ar   
    27   14   17 1    
    28   15   16 ar   
    29   15   42 1    
    30   16   43 1    
    31   17   18 am   BACKBONE|DICT|INTERRES
    32   17   44 1    
    33   18   19 2    
    34   18   20 1    
    35   20   25 ar   
    36   20   21 ar   
    37   21   22 ar   
    38   21   45 1    
    39   22   23 ar   
    40   22   27 1    
    41   23   24 ar   
    42   23   46 1    
    43   24   25 ar   
    44   24   26 1    
    45   25   47 1    
    46   28   29 2    
    47   28   30 1    
    48   30   31 1    
    49   31   32 1    
    50   31   48 1    
    51   31   49 1    
    52   32   50 1    
    53   32   51 1    
    54   32   52 1    
    55   33   53 1    
    56   33   54 1    
    57   33   55 1    
@<TRIPOS>SUBSTRUCTURE
     1 UNK         1 GROUP             0       ****    0 ROOT    
