@<TRIPOS>MOLECULE
ZINC14971492_3048
72   76    1
SMALL
USER_CHARGES


@<TRIPOS>ATOM
      1 C1         -4.7155   53.9621   24.8817 C.ar      1 UNK         0.0000 
      2 C2         -3.5400   53.2315   24.7316 C.ar      1 UNK         0.0000 
      3 C3         -3.3506   52.0655   25.4688 C.ar      1 UNK         0.0000 
      4 C4         -4.3412   51.6251   26.3551 C.ar      1 UNK         0.0000 
      5 C5         -5.5231   52.3606   26.4876 C.ar      1 UNK         0.0000 
      6 C6         -5.7093   53.5310   25.7579 C.ar      1 UNK         0.0000 
      7 C7         -4.1874   50.3305   27.1597 C.3       1 UNK         0.0000 
      8 N8         -3.2956   49.2986   26.6209 N.am      1 UNK         0.0000 
      9 C9         -3.4538   48.6473   25.4613 C.2       1 UNK         0.0000 
     10 O10        -4.3947   48.8406   24.6941 O.2       1 UNK         0.0000 
     11 C11        -2.3679   47.6287   25.0933 C.3       1 UNK         0.0000 
     12 C12        -1.4007   48.2282   24.0794 C.ar      1 UNK         0.0000 
     13 C13        -1.7952   48.4033   22.7512 C.ar      1 UNK         0.0000 
     14 C14        -0.9501   49.0417   21.8510 C.ar      1 UNK         0.0000 
     15 C15         0.3051   49.5087   22.2645 C.ar      1 UNK         0.0000 
     16 C16         0.7044   49.2985   23.5899 C.ar      1 UNK         0.0000 
     17 C17        -0.1408   48.6645   24.4930 C.ar      1 UNK         0.0000 
     18 N18         1.1376   50.2265   21.4183 N.pl3     1 UNK         0.0000 
     19 C19         2.4753   49.7078   21.0791 C.3       1 UNK         0.0000 
     20 C20         3.4835   50.8527   20.8468 C.3       1 UNK         0.0000 
     21 C21         2.9461   51.9447   19.8990 C.3       1 UNK         0.0000 
     22 C22         1.4493   52.2627   20.0518 C.3       1 UNK         0.0000 
     23 C23         0.6055   50.9972   20.2803 C.3       1 UNK         0.0000 
     24 C24         3.7567   53.9307   21.3955 C.3       1 UNK         0.0000 
     25 C25         5.1765   54.3458   21.7949 C.3       1 UNK         0.0000 
     26 C26         5.4957   54.1511   23.2921 C.3       1 UNK         0.0000 
     27 H27         5.7189   53.0930   23.4470 H         1 UNK         0.0000 
     28 C28         6.7225   54.9789   23.7408 C.3       1 UNK         0.0000 
     29 O29         7.1036   54.6509   25.0827 O.3       1 UNK         0.0000 
     30 C30         6.0302   54.5464   25.9484 C.ar      1 UNK         0.0000 
     31 C31         6.3001   54.4928   27.3141 C.ar      1 UNK         0.0000 
     32 C32         5.2524   54.3243   28.2204 C.ar      1 UNK         0.0000 
     33 C33         3.9378   54.1985   27.7624 C.ar      1 UNK         0.0000 
     34 C34         3.6638   54.2495   26.3920 C.ar      1 UNK         0.0000 
     35 C35         4.7088   54.4200   25.4862 C.ar      1 UNK         0.0000 
     36 O36         4.3951   54.4964   24.1407 O.3       1 UNK         0.0000 
     37 H37        -4.8602   54.8650   24.3047 H         1 UNK         0.0000 
     38 H38        -2.7779   53.5673   24.0444 H         1 UNK         0.0000 
     39 H39        -2.4387   51.5021   25.3420 H         1 UNK         0.0000 
     40 H40        -6.3040   52.0227   27.1571 H         1 UNK         0.0000 
     41 H41        -6.6265   54.0946   25.8627 H         1 UNK         0.0000 
     42 H42        -3.8226   50.6002   28.1525 H         1 UNK         0.0000 
     43 H43        -5.1662   49.8748   27.3175 H         1 UNK         0.0000 
     44 H44        -2.5666   48.9638   27.2569 H         1 UNK         0.0000 
     45 H45        -1.8319   47.3123   25.9901 H         1 UNK         0.0000 
     46 H46        -2.8475   46.7436   24.6791 H         1 UNK         0.0000 
     47 H47        -2.7743   48.0764   22.4247 H         1 UNK         0.0000 
     48 H48        -1.2841   49.1836   20.8348 H         1 UNK         0.0000 
     49 H49         1.6670   49.6552   23.9339 H         1 UNK         0.0000 
     50 H50         0.1694   48.5372   25.5232 H         1 UNK         0.0000 
     51 H51         2.8426   49.0923   21.9034 H         1 UNK         0.0000 
     52 H52         2.4163   49.0507   20.2066 H         1 UNK         0.0000 
     53 H53         3.7171   51.2406   21.8352 H         1 UNK         0.0000 
     54 H54         4.4452   50.4966   20.4856 H         1 UNK         0.0000 
     55 H55         3.0663   51.5401   18.8874 H         1 UNK         0.0000 
     56 H56         1.0940   52.8723   19.2188 H         1 UNK         0.0000 
     57 H57         1.2752   52.8968   20.9198 H         1 UNK         0.0000 
     58 H58         0.5733   50.3680   19.3865 H         1 UNK         0.0000 
     59 H59        -0.4165   51.3165   20.4925 H         1 UNK         0.0000 
     60 H60         3.1065   54.7940   21.2823 H         1 UNK         0.0000 
     61 H61         3.2976   53.2520   22.1122 H         1 UNK         0.0000 
     62 H62         5.9037   53.7867   21.2106 H         1 UNK         0.0000 
     63 H63         5.3259   55.3893   21.5130 H         1 UNK         0.0000 
     64 H64         7.5412   54.7677   23.0641 H         1 UNK         0.0000 
     65 H65         6.5034   56.0440   23.6798 H         1 UNK         0.0000 
     66 H66         7.3144   54.5766   27.6739 H         1 UNK         0.0000 
     67 H67         5.4623   54.2902   29.2803 H         1 UNK         0.0000 
     68 H68         3.1310   54.0672   28.4667 H         1 UNK         0.0000 
     69 H69         2.6487   54.1551   26.0372 H         1 UNK         0.0000 
     70 N70         3.7851   53.2338   20.0146 N.4       1 UNK         0.0000 
     71 H71         4.7382   52.9953   19.7812 H         1 UNK         0.0000 
     72 H72         3.4593   53.8928   19.3213 H         1 UNK         0.0000 
@<TRIPOS>BOND
     1    1    6 ar   
     2    1    2 ar   
     3    1   37 1    
     4    2    3 ar   
     5    2   38 1    
     6    3    4 ar   
     7    3   39 1    
     8    4    5 ar   
     9    4    7 1    
    10    5    6 ar   
    11    5   40 1    
    12    6   41 1    
    13    7    8 1    
    14    7   42 1    
    15    7   43 1    
    16    8    9 am   BACKBONE|DICT|INTERRES
    17    8   44 1    
    18    9   10 2    
    19    9   11 1    
    20   11   12 1    
    21   11   45 1    
    22   11   46 1    
    23   12   17 ar   
    24   12   13 ar   
    25   13   14 ar   
    26   13   47 1    
    27   14   15 ar   
    28   14   48 1    
    29   15   16 ar   
    30   15   18 1    
    31   16   17 ar   
    32   16   49 1    
    33   17   50 1    
    34   18   23 1    
    35   18   19 1    
    36   19   20 1    
    37   19   51 1    
    38   19   52 1    
    39   20   21 1    
    40   20   53 1    
    41   20   54 1    
    42   21   22 1    
    43   21   55 1    
    44   21   70 1    
    45   22   23 1    
    46   22   56 1    
    47   22   57 1    
    48   23   58 1    
    49   23   59 1    
    50   24   25 1    
    51   24   60 1    
    52   24   61 1    
    53   24   70 1    
    54   25   26 1    
    55   25   62 1    
    56   25   63 1    
    57   26   27 1    
    58   26   36 1    
    59   26   28 1    
    60   28   29 1    
    61   28   64 1    
    62   28   65 1    
    63   29   30 1    
    64   30   35 ar   
    65   30   31 ar   
    66   31   32 ar   
    67   31   66 1    
    68   32   33 ar   
    69   32   67 1    
    70   33   34 ar   
    71   33   68 1    
    72   34   35 ar   
    73   34   69 1    
    74   35   36 1    
    75   70   71 1    
    76   70   72 1    
@<TRIPOS>SUBSTRUCTURE
     1 UNK         1 GROUP             0       ****    0 ROOT    
