@<TRIPOS>MOLECULE
ZINC35095088_4550
59   61    1
SMALL
USER_CHARGES


@<TRIPOS>ATOM
      1 C1          4.1862   54.6881   29.3898 C.3       1 UNK         0.0000 
      2 C2          3.9295   54.3805   27.9311 C.ar      1 UNK         0.0000 
      3 C3          2.6524   53.9893   27.5316 C.ar      1 UNK         0.0000 
      4 C4          2.4023   53.6900   26.1965 C.ar      1 UNK         0.0000 
      5 C5          3.4357   53.7836   25.2536 C.ar      1 UNK         0.0000 
      6 C6          4.7109   54.1878   25.6609 C.ar      1 UNK         0.0000 
      7 C7          4.9589   54.4879   26.9968 C.ar      1 UNK         0.0000 
      8 N8          3.3088   53.4524   23.8932 N.am      1 UNK         0.0000 
      9 C9          2.2166   53.2158   23.1290 C.2       1 UNK         0.0000 
     10 O10         1.0764   53.2564   23.6022 O.2       1 UNK         0.0000 
     11 N11         2.4727   52.8736   21.8124 N.am      1 UNK         0.0000 
     12 C12         1.2719   52.4248   21.0378 C.3       1 UNK         0.0000 
     13 C13         1.3958   51.3226   19.9701 C.3       1 UNK         0.0000 
     14 C14         1.9820   49.9959   20.4925 C.3       1 UNK         0.0000 
     15 N15         2.3026   49.0855   19.3962 N.am      1 UNK         0.0000 
     16 C16         1.5590   48.0297   19.0421 C.2       1 UNK         0.0000 
     17 O17         0.6710   47.5548   19.7498 O.2       1 UNK         0.0000 
     18 N18         1.9074   47.5878   17.8205 N.am      1 UNK         0.0000 
     19 C19         1.4671   46.4412   17.1352 C.ar      1 UNK         0.0000 
     20 C20         1.8800   46.3218   15.8059 C.ar      1 UNK         0.0000 
     21 C21         1.5212   45.2039   15.0546 C.ar      1 UNK         0.0000 
     22 C22         0.7694   44.1816   15.6315 C.ar      1 UNK         0.0000 
     23 C23         0.3585   44.2721   16.9677 C.ar      1 UNK         0.0000 
     24 C24         0.7040   45.4087   17.7082 C.ar      1 UNK         0.0000 
     25 C25        -0.4372   43.1488   17.6356 C.3       1 UNK         0.0000 
     26 F26        -1.5741   43.6274   18.1403 F         1 UNK         0.0000 
     27 F27         0.2790   42.6216   18.6308 F         1 UNK         0.0000 
     28 F28        -0.7432   42.1645   16.7882 F         1 UNK         0.0000 
     29 C29         3.6748   53.2831   21.1111 C.ar      1 UNK         0.0000 
     30 C30         4.2431   52.5452   20.0577 C.ar      1 UNK         0.0000 
     31 C31         5.3209   53.0430   19.3244 C.ar      1 UNK         0.0000 
     32 C32         5.9057   54.2502   19.6673 C.ar      1 UNK         0.0000 
     33 C33         5.4211   54.9655   20.7456 C.ar      1 UNK         0.0000 
     34 C34         4.3063   54.4970   21.4323 C.ar      1 UNK         0.0000 
     35 F35         6.9583   54.7199   18.9629 F         1 UNK         0.0000 
     36 H36         3.9168   53.8308   30.0071 H         1 UNK         0.0000 
     37 H37         5.2292   54.9410   29.5877 H         1 UNK         0.0000 
     38 H38         3.5530   55.5245   29.6810 H         1 UNK         0.0000 
     39 H39         1.8537   53.9055   28.2542 H         1 UNK         0.0000 
     40 H40         1.4090   53.3672   25.9308 H         1 UNK         0.0000 
     41 H41         5.5219   54.2579   24.9496 H         1 UNK         0.0000 
     42 H42         5.9480   54.7954   27.3054 H         1 UNK         0.0000 
     43 H43         4.1871   53.4015   23.4009 H         1 UNK         0.0000 
     44 H44         0.7674   53.2965   20.6201 H         1 UNK         0.0000 
     45 H45         0.5551   51.9898   21.7364 H         1 UNK         0.0000 
     46 H46         1.9141   51.6951   19.0873 H         1 UNK         0.0000 
     47 H47         0.3926   51.1132   19.5965 H         1 UNK         0.0000 
     48 H48         1.3075   49.5571   21.2322 H         1 UNK         0.0000 
     49 H49         2.8965   50.1682   21.0588 H         1 UNK         0.0000 
     50 H50         3.1376   49.2893   18.8615 H         1 UNK         0.0000 
     51 H51         2.5901   48.1483   17.3211 H         1 UNK         0.0000 
     52 H52         2.4788   47.0997   15.3501 H         1 UNK         0.0000 
     53 H53         1.8323   45.1247   14.0235 H         1 UNK         0.0000 
     54 H54         0.5173   43.3174   15.0342 H         1 UNK         0.0000 
     55 H55         0.3844   45.4533   18.7374 H         1 UNK         0.0000 
     56 H56         3.8902   51.5800   19.7539 H         1 UNK         0.0000 
     57 H57         5.7186   52.5024   18.4813 H         1 UNK         0.0000 
     58 H58         5.8709   55.9105   21.0100 H         1 UNK         0.0000 
     59 H59         3.8956   55.1534   22.1835 H         1 UNK         0.0000 
@<TRIPOS>BOND
     1    1    2 1    
     2    1   36 1    
     3    1   37 1    
     4    1   38 1    
     5    2    7 ar   
     6    2    3 ar   
     7    3    4 ar   
     8    3   39 1    
     9    4    5 ar   
    10    4   40 1    
    11    5    6 ar   
    12    5    8 1    
    13    6    7 ar   
    14    6   41 1    
    15    7   42 1    
    16    8    9 am   BACKBONE|DICT|INTERRES
    17    8   43 1    
    18    9   10 2    
    19    9   11 am   BACKBONE|DICT|INTERRES
    20   11   12 1    
    21   11   29 1    
    22   12   13 1    
    23   12   44 1    
    24   12   45 1    
    25   13   14 1    
    26   13   46 1    
    27   13   47 1    
    28   14   15 1    
    29   14   48 1    
    30   14   49 1    
    31   15   16 am   BACKBONE|DICT|INTERRES
    32   15   50 1    
    33   16   17 2    
    34   16   18 am   BACKBONE|DICT|INTERRES
    35   18   19 1    
    36   18   51 1    
    37   19   24 ar   
    38   19   20 ar   
    39   20   21 ar   
    40   20   52 1    
    41   21   22 ar   
    42   21   53 1    
    43   22   23 ar   
    44   22   54 1    
    45   23   24 ar   
    46   23   25 1    
    47   24   55 1    
    48   25   26 1    
    49   25   27 1    
    50   25   28 1    
    51   29   34 ar   
    52   29   30 ar   
    53   30   31 ar   
    54   30   56 1    
    55   31   32 ar   
    56   31   57 1    
    57   32   33 ar   
    58   32   35 1    
    59   33   34 ar   
    60   33   58 1    
    61   34   59 1    
@<TRIPOS>SUBSTRUCTURE
     1 UNK         1 GROUP             0       ****    0 ROOT    
