@<TRIPOS>MOLECULE
ZINC09233156_5776
51   55    1
SMALL
USER_CHARGES


@<TRIPOS>ATOM
      1 C1          0.3030   49.2601   23.0083 C.ar      1 UNK         0.0000 
      2 C2         -0.0730   49.0297   24.3261 C.ar      1 UNK         0.0000 
      3 C3          0.1262   50.0057   25.2960 C.ar      1 UNK         0.0000 
      4 C4          0.7044   51.2653   24.9588 C.ar      1 UNK         0.0000 
      5 C5          1.1183   51.4757   23.6032 C.ar      1 UNK         0.0000 
      6 C6          0.9025   50.4593   22.6415 C.ar      1 UNK         0.0000 
      7 C7          1.7376   52.6970   23.2422 C.ar      1 UNK         0.0000 
      8 C8          1.9441   53.6878   24.1936 C.ar      1 UNK         0.0000 
      9 C9          1.5301   53.4996   25.5056 C.ar      1 UNK         0.0000 
     10 C10         0.9112   52.3193   25.9103 C.ar      1 UNK         0.0000 
     11 N11         0.4229   52.2302   27.2346 N.pl3     1 UNK         0.0000 
     12 C12         1.0926   52.2717   28.4517 C.ar      1 UNK         0.0000 
     13 N13         0.2525   52.0947   29.4415 N.2       1 UNK         0.0000 
     14 N14        -1.0119   51.9688   28.8996 N.2       1 UNK         0.0000 
     15 C15        -0.9030   52.0964   27.6013 C.ar      1 UNK         0.0000 
     16 S16        -2.2829   52.0947   26.4854 S.3       1 UNK         0.0000 
     17 C17        -3.1988   50.6842   27.1863 C.3       1 UNK         0.0000 
     18 C18        -4.4485   51.0836   27.9754 C.2       1 UNK         0.0000 
     19 O19        -5.3434   51.6994   27.3951 O.2       1 UNK         0.0000 
     20 N20        -4.4859   50.7011   29.2716 N.am      1 UNK         0.0000 
     21 C21        -5.5073   50.8994   30.2214 C.ar      1 UNK         0.0000 
     22 C22        -5.4909   50.0582   31.3348 C.ar      1 UNK         0.0000 
     23 C23        -6.4654   50.1795   32.3240 C.ar      1 UNK         0.0000 
     24 C24        -7.4680   51.1553   32.2241 C.ar      1 UNK         0.0000 
     25 C25        -7.4606   52.0168   31.1170 C.ar      1 UNK         0.0000 
     26 C26        -6.4932   51.8930   30.1231 C.ar      1 UNK         0.0000 
     27 C27        -8.5333   51.2769   33.2762 C.2       1 UNK         0.0000 
     28 O28        -8.6815   50.3271   34.0815 O.co2     1 UNK         0.0000 
     29 C29         2.5191   52.4397   28.7038 C.2       1 UNK         0.0000 
     30 C30         3.5833   53.0826   28.0799 C.2       1 UNK         0.0000 
     31 C31         4.7087   52.8966   28.8799 C.2       1 UNK         0.0000 
     32 C32         4.3029   52.1147   29.9437 C.2       1 UNK         0.0000 
     33 O33         2.9781   51.8608   29.8480 O.3       1 UNK         0.0000 
     34 H34         0.1386   48.4967   22.2629 H         1 UNK         0.0000 
     35 H35        -0.5194   48.0869   24.6063 H         1 UNK         0.0000 
     36 H36        -0.1682   49.7955   26.3148 H         1 UNK         0.0000 
     37 H37         1.2070   50.6203   21.6169 H         1 UNK         0.0000 
     38 H38         2.0500   52.8556   22.2189 H         1 UNK         0.0000 
     39 H39         2.4142   54.6180   23.9084 H         1 UNK         0.0000 
     40 H40         1.6654   54.2995   26.2173 H         1 UNK         0.0000 
     41 H41        -2.5272   50.0965   27.8017 H         1 UNK         0.0000 
     42 H42        -3.5128   50.0400   26.3661 H         1 UNK         0.0000 
     43 H43        -3.7117   50.1367   29.5975 H         1 UNK         0.0000 
     44 H44        -4.7270   49.3008   31.4366 H         1 UNK         0.0000 
     45 H45        -6.4343   49.5097   33.1726 H         1 UNK         0.0000 
     46 H46        -8.2183   52.7824   31.0143 H         1 UNK         0.0000 
     47 H47        -6.5261   52.5789   29.2912 H         1 UNK         0.0000 
     48 H48         3.5638   53.6352   27.1554 H         1 UNK         0.0000 
     49 H49         5.7067   53.2653   28.6901 H         1 UNK         0.0000 
     50 H50         4.8084   51.6968   30.8028 H         1 UNK         0.0000 
     51 O51        -9.2237   52.3228   33.2819 O.co2     1 UNK         0.0000 
@<TRIPOS>BOND
     1    1    6 ar   
     2    1    2 ar   
     3    1   34 1    
     4    2    3 ar   
     5    2   35 1    
     6    3    4 ar   
     7    3   36 1    
     8    4   10 ar   
     9    4    5 ar   
    10    5    6 ar   
    11    5    7 ar   
    12    6   37 1    
    13    7    8 ar   
    14    7   38 1    
    15    8    9 ar   
    16    8   39 1    
    17    9   10 ar   
    18    9   40 1    
    19   10   11 1    
    20   11   15 ar   
    21   11   12 ar   
    22   12   13 ar   
    23   12   29 1    
    24   13   14 ar   
    25   14   15 ar   
    26   15   16 1    
    27   16   17 1    
    28   17   18 1    
    29   17   41 1    
    30   17   42 1    
    31   18   19 2    
    32   18   20 am   BACKBONE|DICT|INTERRES
    33   20   21 1    
    34   20   43 1    
    35   21   26 ar   
    36   21   22 ar   
    37   22   23 ar   
    38   22   44 1    
    39   23   24 ar   
    40   23   45 1    
    41   24   25 ar   
    42   24   27 1    
    43   25   26 ar   
    44   25   46 1    
    45   26   47 1    
    46   27   28 2    
    47   27   51 1    
    48   29   33 1    
    49   29   30 2    
    50   30   31 1    
    51   30   48 1    
    52   31   32 2    
    53   31   49 1    
    54   32   33 1    
    55   32   50 1    
@<TRIPOS>SUBSTRUCTURE
     1 UNK         1 GROUP             0       ****    0 ROOT    
