@<TRIPOS>MOLECULE
ZINC01781247_5675
72   76    1
SMALL
USER_CHARGES


@<TRIPOS>ATOM
      1 C1          3.4960   52.0991   20.7621 C.ar      1 UNK         0.0000 
      2 C2          2.3789   51.5067   21.3476 C.ar      1 UNK         0.0000 
      3 C3          1.7900   52.0963   22.4638 C.ar      1 UNK         0.0000 
      4 C4          2.3228   53.2745   23.0023 C.ar      1 UNK         0.0000 
      5 C5          3.4432   53.8653   22.4031 C.ar      1 UNK         0.0000 
      6 C6          4.0270   53.2782   21.2830 C.ar      1 UNK         0.0000 
      7 C7          1.7022   53.9215   24.2375 C.3       1 UNK         0.0000 
      8 C8          1.9411   53.5355   26.8048 C.3       1 UNK         0.0000 
      9 C9          3.4183   53.8374   27.0710 C.ar      1 UNK         0.0000 
     10 C10         3.7778   54.2144   28.3686 C.ar      1 UNK         0.0000 
     11 C11         5.1054   54.4956   28.6789 C.ar      1 UNK         0.0000 
     12 C12         6.0781   54.4202   27.6851 C.ar      1 UNK         0.0000 
     13 C13         5.7351   54.0537   26.3877 C.ar      1 UNK         0.0000 
     14 C14         4.4103   53.7469   26.0866 C.ar      1 UNK         0.0000 
     15 C15         0.0635   52.3683   25.5011 C.3       1 UNK         0.0000 
     16 C16         0.0302   50.8331   25.6944 C.3       1 UNK         0.0000 
     17 H17         0.5211   50.3455   24.8509 H         1 UNK         0.0000 
     18 C18        -1.3818   50.2265   25.8511 C.3       1 UNK         0.0000 
     19 N19        -2.3944   50.6640   24.8812 N.pl3     1 UNK         0.0000 
     20 C20        -2.1847   50.4195   23.5092 C.ar      1 UNK         0.0000 
     21 C21        -1.9808   51.5162   22.6647 C.ar      1 UNK         0.0000 
     22 C22        -1.6708   51.3521   21.3217 C.ar      1 UNK         0.0000 
     23 C23        -1.5780   50.0817   20.7707 C.ar      1 UNK         0.0000 
     24 C24        -1.8375   48.9393   21.5632 C.ar      1 UNK         0.0000 
     25 C25        -2.1579   49.1005   22.9495 C.ar      1 UNK         0.0000 
     26 C26        -2.4639   47.9314   23.7046 C.ar      1 UNK         0.0000 
     27 C27        -2.4327   46.6722   23.1164 C.ar      1 UNK         0.0000 
     28 C28        -2.0951   46.5254   21.7774 C.ar      1 UNK         0.0000 
     29 C29        -1.7962   47.6395   21.0006 C.ar      1 UNK         0.0000 
     30 S30        -3.6894   51.7451   25.4689 S.o2      1 UNK         0.0000 
     31 O31        -3.0226   52.8978   26.0844 O.2       1 UNK         0.0000 
     32 O32        -4.6484   51.9197   24.3714 O.2       1 UNK         0.0000 
     33 C33        -4.4953   50.8119   26.7712 C.ar      1 UNK         0.0000 
     34 C34        -4.0248   50.8967   28.0857 C.ar      1 UNK         0.0000 
     35 C35        -4.5824   50.0936   29.0762 C.ar      1 UNK         0.0000 
     36 C36        -5.6148   49.2163   28.7511 C.ar      1 UNK         0.0000 
     37 C37        -6.0891   49.1309   27.4433 C.ar      1 UNK         0.0000 
     38 C38        -5.5237   49.9249   26.4484 C.ar      1 UNK         0.0000 
     39 O39         0.7041   50.4954   26.8822 O.3       1 UNK         0.0000 
     40 H40         3.9473   51.6463   19.8891 H         1 UNK         0.0000 
     41 H41         1.9718   50.5943   20.9347 H         1 UNK         0.0000 
     42 H42         0.9219   51.6270   22.9018 H         1 UNK         0.0000 
     43 H43         3.8638   54.7812   22.7964 H         1 UNK         0.0000 
     44 H44         4.8862   53.7368   20.8146 H         1 UNK         0.0000 
     45 H45         2.3375   54.7340   24.5930 H         1 UNK         0.0000 
     46 H46         0.7364   54.3757   24.0107 H         1 UNK         0.0000 
     47 H47         1.3541   54.4452   26.9094 H         1 UNK         0.0000 
     48 H48         1.5899   52.8207   27.5512 H         1 UNK         0.0000 
     49 H49         3.0277   54.2895   29.1414 H         1 UNK         0.0000 
     50 H50         5.3818   54.7945   29.6797 H         1 UNK         0.0000 
     51 H51         7.1065   54.6433   27.9318 H         1 UNK         0.0000 
     52 H52         6.4957   53.9763   25.6251 H         1 UNK         0.0000 
     53 H53         4.1806   53.4208   25.0862 H         1 UNK         0.0000 
     54 H54        -0.4729   52.8913   26.2921 H         1 UNK         0.0000 
     55 H55        -0.4180   52.6248   24.5622 H         1 UNK         0.0000 
     56 H56        -1.2993   49.1401   25.8408 H         1 UNK         0.0000 
     57 H57        -1.7392   50.4695   26.8507 H         1 UNK         0.0000 
     58 H58        -2.0450   52.5200   23.0591 H         1 UNK         0.0000 
     59 H59        -1.4877   52.2178   20.7029 H         1 UNK         0.0000 
     60 H60        -1.3330   49.9624   19.7241 H         1 UNK         0.0000 
     61 H61        -2.7518   48.0185   24.7414 H         1 UNK         0.0000 
     62 H62        -2.6793   45.8054   23.7087 H         1 UNK         0.0000 
     63 H63        -2.0705   45.5412   21.3331 H         1 UNK         0.0000 
     64 H64        -1.5499   47.5189   19.9542 H         1 UNK         0.0000 
     65 H65        -3.2095   51.5580   28.3381 H         1 UNK         0.0000 
     66 H66        -4.2000   50.1322   30.0873 H         1 UNK         0.0000 
     67 H67        -6.0412   48.5861   29.5182 H         1 UNK         0.0000 
     68 H68        -6.8829   48.4411   27.1990 H         1 UNK         0.0000 
     69 H69        -5.8755   49.8397   25.4301 H         1 UNK         0.0000 
     70 H70         0.4030   49.6238   27.1649 H         1 UNK         0.0000 
     71 N71         1.5134   52.9432   25.4335 N.4       1 UNK         0.0000 
     72 H72         2.1307   52.1597   25.2621 H         1 UNK         0.0000 
@<TRIPOS>BOND
     1    1    6 ar   
     2    1    2 ar   
     3    1   40 1    
     4    2    3 ar   
     5    2   41 1    
     6    3    4 ar   
     7    3   42 1    
     8    4    5 ar   
     9    4    7 1    
    10    5    6 ar   
    11    5   43 1    
    12    6   44 1    
    13    7   45 1    
    14    7   46 1    
    15    7   71 1    
    16    8    9 1    
    17    8   47 1    
    18    8   48 1    
    19    8   71 1    
    20    9   14 ar   
    21    9   10 ar   
    22   10   11 ar   
    23   10   49 1    
    24   11   12 ar   
    25   11   50 1    
    26   12   13 ar   
    27   12   51 1    
    28   13   14 ar   
    29   13   52 1    
    30   14   53 1    
    31   15   16 1    
    32   15   54 1    
    33   15   55 1    
    34   15   71 1    
    35   16   17 1    
    36   16   18 1    
    37   16   39 1    
    38   18   19 1    
    39   18   56 1    
    40   18   57 1    
    41   19   20 1    
    42   19   30 1    
    43   20   25 ar   
    44   20   21 ar   
    45   21   22 ar   
    46   21   58 1    
    47   22   23 ar   
    48   22   59 1    
    49   23   24 ar   
    50   23   60 1    
    51   24   29 ar   
    52   24   25 ar   
    53   25   26 ar   
    54   26   27 ar   
    55   26   61 1    
    56   27   28 ar   
    57   27   62 1    
    58   28   29 ar   
    59   28   63 1    
    60   29   64 1    
    61   30   31 2    
    62   30   32 2    
    63   30   33 1    
    64   33   38 ar   
    65   33   34 ar   
    66   34   35 ar   
    67   34   65 1    
    68   35   36 ar   
    69   35   66 1    
    70   36   37 ar   
    71   36   67 1    
    72   37   38 ar   
    73   37   68 1    
    74   38   69 1    
    75   39   70 1    
    76   71   72 1    
@<TRIPOS>SUBSTRUCTURE
     1 UNK         1 GROUP             0       ****    0 ROOT    
