@<TRIPOS>MOLECULE
ZINC08958596_5735
69   72    1
SMALL
USER_CHARGES


@<TRIPOS>ATOM
      1 C1          6.9022   53.5831   28.2972 C.3       1 UNK         0.0000 
      2 C2          5.8925   54.7334   28.3658 C.3       1 UNK         0.0000 
      3 O3          4.7366   54.4626   27.5826 O.3       1 UNK         0.0000 
      4 C4          4.7875   54.4835   26.2022 C.ar      1 UNK         0.0000 
      5 C5          5.9210   54.8979   25.4814 C.ar      1 UNK         0.0000 
      6 C6          5.9256   54.8872   24.0899 C.ar      1 UNK         0.0000 
      7 C7          4.7858   54.4907   23.3972 C.ar      1 UNK         0.0000 
      8 C8          3.6533   54.0975   24.1068 C.ar      1 UNK         0.0000 
      9 C9          3.6348   54.0738   25.4988 C.ar      1 UNK         0.0000 
     10 N10         2.3961   53.6002   25.9876 N.pl3     1 UNK         0.0000 
     11 C11         1.4882   53.1075   25.0509 C.2       1 UNK         0.0000 
     12 N12         0.4042   52.4830   25.3276 N.am      1 UNK         0.0000 
     13 C13        -0.5547   52.1148   24.3920 C.2       1 UNK         0.0000 
     14 O14        -0.3037   51.7667   23.2337 O.2       1 UNK         0.0000 
     15 C15        -1.9752   52.0742   24.9253 C.ar      1 UNK         0.0000 
     16 C16        -3.0482   51.9450   24.0314 C.ar      1 UNK         0.0000 
     17 C17        -4.3605   51.8904   24.4941 C.ar      1 UNK         0.0000 
     18 C18        -4.6145   51.9605   25.8654 C.ar      1 UNK         0.0000 
     19 C19        -3.5605   52.0853   26.7676 C.ar      1 UNK         0.0000 
     20 C20        -2.2502   52.1397   26.3032 C.ar      1 UNK         0.0000 
     21 S21        -6.2897   51.8749   26.4915 S.o2      1 UNK         0.0000 
     22 O22        -7.1529   51.5642   25.3453 O.2       1 UNK         0.0000 
     23 O23        -6.4810   53.0929   27.2893 O.2       1 UNK         0.0000 
     24 N24        -6.2826   50.4770   27.5826 N.pl3     1 UNK         0.0000 
     25 C25        -6.0216   50.6270   29.0342 C.3       1 UNK         0.0000 
     26 C26        -4.8295   49.7442   29.4683 C.3       1 UNK         0.0000 
     27 H27        -3.9353   50.0830   28.9417 H         1 UNK         0.0000 
     28 C28        -5.1015   48.2787   29.0378 C.3       1 UNK         0.0000 
     29 C29        -5.3607   48.1374   27.5117 C.3       1 UNK         0.0000 
     30 H30        -5.7336   47.1254   27.3475 H         1 UNK         0.0000 
     31 C31        -6.4985   49.0973   27.0739 C.3       1 UNK         0.0000 
     32 C32        -4.0908   48.3119   26.6538 C.3       1 UNK         0.0000 
     33 C33        -4.5727   49.8734   30.9795 C.3       1 UNK         0.0000 
     34 S34         2.1245   53.6022   23.4322 S.3       1 UNK         0.0000 
     35 C35         2.0495   53.5874   27.4238 C.3       1 UNK         0.0000 
     36 C36         2.4686   52.2859   28.1451 C.3       1 UNK         0.0000 
     37 O37         2.1575   52.3081   29.5369 O.3       1 UNK         0.0000 
     38 C38         0.7706   52.1892   29.8471 C.3       1 UNK         0.0000 
     39 H39         7.6716   53.6969   29.0616 H         1 UNK         0.0000 
     40 H40         6.3874   52.6365   28.4616 H         1 UNK         0.0000 
     41 H41         7.4000   53.5114   27.3322 H         1 UNK         0.0000 
     42 H42         6.3048   55.6958   28.0815 H         1 UNK         0.0000 
     43 H43         5.5527   54.8504   29.3951 H         1 UNK         0.0000 
     44 H44         6.8139   55.2350   25.9815 H         1 UNK         0.0000 
     45 H45         6.8092   55.1964   23.5487 H         1 UNK         0.0000 
     46 H46         4.7893   54.4974   22.3164 H         1 UNK         0.0000 
     47 H47        -2.8755   51.8792   22.9663 H         1 UNK         0.0000 
     48 H48        -5.1736   51.7881   23.7879 H         1 UNK         0.0000 
     49 H49        -3.7499   52.0979   27.8293 H         1 UNK         0.0000 
     50 H50        -1.4543   52.2149   27.0319 H         1 UNK         0.0000 
     51 H51        -6.9365   50.3451   29.5580 H         1 UNK         0.0000 
     52 H52        -5.8359   51.6772   29.2645 H         1 UNK         0.0000 
     53 H53        -5.9602   47.8972   29.5940 H         1 UNK         0.0000 
     54 H54        -4.2645   47.6483   29.3473 H         1 UNK         0.0000 
     55 H55        -6.5888   49.1369   25.9880 H         1 UNK         0.0000 
     56 H56        -7.4626   48.7623   27.4618 H         1 UNK         0.0000 
     57 H57        -3.6271   49.2864   26.7986 H         1 UNK         0.0000 
     58 H58        -4.3135   48.2086   25.5901 H         1 UNK         0.0000 
     59 H59        -3.3418   47.5582   26.9036 H         1 UNK         0.0000 
     60 H60        -5.4201   49.5242   31.5697 H         1 UNK         0.0000 
     61 H61        -3.7021   49.2966   31.2793 H         1 UNK         0.0000 
     62 H62        -4.3710   50.9030   31.2683 H         1 UNK         0.0000 
     63 H63         2.4929   54.4501   27.9166 H         1 UNK         0.0000 
     64 H64         0.9714   53.7196   27.5167 H         1 UNK         0.0000 
     65 H65         2.0092   51.4115   27.6808 H         1 UNK         0.0000 
     66 H66         3.5474   52.1526   28.0729 H         1 UNK         0.0000 
     67 H67         0.6468   52.0985   30.9275 H         1 UNK         0.0000 
     68 H68         0.2031   53.0637   29.5258 H         1 UNK         0.0000 
     69 H69         0.3306   51.3011   29.3905 H         1 UNK         0.0000 
@<TRIPOS>BOND
     1    1    2 1    
     2    1   39 1    
     3    1   40 1    
     4    1   41 1    
     5    2    3 1    
     6    2   42 1    
     7    2   43 1    
     8    3    4 1    
     9    4    9 ar   
    10    4    5 ar   
    11    5    6 ar   
    12    5   44 1    
    13    6    7 ar   
    14    6   45 1    
    15    7    8 ar   
    16    7   46 1    
    17    8   34 1    
    18    8    9 ar   
    19    9   10 1    
    20   10   11 1    
    21   10   35 1    
    22   11   12 2    BACKBONE|DICT|INTERRES
    23   11   34 1    
    24   12   13 am   BACKBONE|DICT|INTERRES
    25   13   14 2    
    26   13   15 1    
    27   15   20 ar   
    28   15   16 ar   
    29   16   17 ar   
    30   16   47 1    
    31   17   18 ar   
    32   17   48 1    
    33   18   19 ar   
    34   18   21 1    
    35   19   20 ar   
    36   19   49 1    
    37   20   50 1    
    38   21   22 2    
    39   21   23 2    
    40   21   24 1    
    41   24   31 1    
    42   24   25 1    
    43   25   26 1    
    44   25   51 1    
    45   25   52 1    
    46   26   27 1    
    47   26   28 1    
    48   26   33 1    
    49   28   29 1    
    50   28   53 1    
    51   28   54 1    
    52   29   30 1    
    53   29   31 1    
    54   29   32 1    
    55   31   55 1    
    56   31   56 1    
    57   32   57 1    
    58   32   58 1    
    59   32   59 1    
    60   33   60 1    
    61   33   61 1    
    62   33   62 1    
    63   35   36 1    
    64   35   63 1    
    65   35   64 1    
    66   36   37 1    
    67   36   65 1    
    68   36   66 1    
    69   37   38 1    
    70   38   67 1    
    71   38   68 1    
    72   38   69 1    
@<TRIPOS>SUBSTRUCTURE
     1 UNK         1 GROUP             0       ****    0 ROOT    
