@<TRIPOS>MOLECULE
ZINC65074856_4106
70   74    1
SMALL
USER_CHARGES


@<TRIPOS>ATOM
      1 C1          2.8956   55.8535   15.4467 C.3       1 UNK         0.0000 
      2 C2          4.2406   56.5159   15.8049 C.3       1 UNK         0.0000 
      3 C3          4.0385   57.7279   16.7333 C.3       1 UNK         0.0000 
      4 C4          5.2832   55.5039   16.3482 C.3       1 UNK         0.0000 
      5 C5          4.9132   54.8151   17.6603 C.ar      1 UNK         0.0000 
      6 C6          5.3094   55.3739   18.8775 C.ar      1 UNK         0.0000 
      7 C7          4.9868   54.7390   20.0738 C.ar      1 UNK         0.0000 
      8 C8          4.2544   53.5523   20.0554 C.ar      1 UNK         0.0000 
      9 C9          3.8827   52.9739   18.8412 C.ar      1 UNK         0.0000 
     10 C10         4.2082   53.6091   17.6450 C.ar      1 UNK         0.0000 
     11 S11         3.8947   52.7160   21.5924 S.o2      1 UNK         0.0000 
     12 O12         4.9417   51.6961   21.6810 O.2       1 UNK         0.0000 
     13 O13         3.7706   53.7468   22.6302 O.2       1 UNK         0.0000 
     14 N14         2.3116   51.9156   21.3839 N.pl3     1 UNK         0.0000 
     15 C15         2.2150   50.4446   21.5487 C.3       1 UNK         0.0000 
     16 C16         1.8723   50.0543   23.0091 C.3       1 UNK         0.0000 
     17 C17         0.6124   50.7738   23.5824 C.3       1 UNK         0.0000 
     18 C18         0.7898   52.3059   23.3289 C.3       1 UNK         0.0000 
     19 C19         1.1046   52.6378   21.8486 C.3       1 UNK         0.0000 
     20 C20         0.3939   50.3901   25.0567 C.2       1 UNK         0.0000 
     21 N21        -0.0839   49.1807   25.3859 N.pl3     1 UNK         0.0000 
     22 C22        -0.6880   48.2442   24.4437 C.3       1 UNK         0.0000 
     23 C23        -0.8917   48.8888   23.0508 C.3       1 UNK         0.0000 
     24 N24        -0.6642   50.3344   22.9977 N.3       1 UNK         0.0000 
     25 N25         0.7010   51.2835   26.0070 N.pl3     1 UNK         0.0000 
     26 C26         0.7041   51.0257   27.4543 C.3       1 UNK         0.0000 
     27 C27         0.7970   52.2661   28.3250 C.ar      1 UNK         0.0000 
     28 C28         0.0882   52.3002   29.5433 C.ar      1 UNK         0.0000 
     29 C29         0.1501   53.4209   30.3819 C.ar      1 UNK         0.0000 
     30 C30         0.9097   54.5032   29.9493 C.ar      1 UNK         0.0000 
     31 C31         1.6151   54.4685   28.7802 C.ar      1 UNK         0.0000 
     32 C32         1.6027   53.3563   27.9482 C.ar      1 UNK         0.0000 
     33 O33         2.2975   55.6319   28.6273 O.3       1 UNK         0.0000 
     34 C34         1.7933   56.4888   29.6131 C.3       1 UNK         0.0000 
     35 O35         1.1069   55.7046   30.5527 O.3       1 UNK         0.0000 
     36 H36         2.3806   55.4774   16.3329 H         1 UNK         0.0000 
     37 H37         3.0390   55.0132   14.7663 H         1 UNK         0.0000 
     38 H38         2.2275   56.5609   14.9554 H         1 UNK         0.0000 
     39 H39         4.6517   56.9071   14.8724 H         1 UNK         0.0000 
     40 H40         3.5949   57.4316   17.6827 H         1 UNK         0.0000 
     41 H41         4.9841   58.2292   16.9457 H         1 UNK         0.0000 
     42 H42         3.3771   58.4693   16.2822 H         1 UNK         0.0000 
     43 H43         5.4780   54.7386   15.5947 H         1 UNK         0.0000 
     44 H44         6.2478   56.0014   16.4726 H         1 UNK         0.0000 
     45 H45         5.8674   56.2987   18.8985 H         1 UNK         0.0000 
     46 H46         5.3003   55.1721   21.0133 H         1 UNK         0.0000 
     47 H47         3.3650   52.0268   18.8146 H         1 UNK         0.0000 
     48 H48         3.9200   53.1555   16.7073 H         1 UNK         0.0000 
     49 H49         1.4083   50.0947   20.9039 H         1 UNK         0.0000 
     50 H50         3.1278   49.9743   21.1823 H         1 UNK         0.0000 
     51 H51         1.7747   48.9735   23.0754 H         1 UNK         0.0000 
     52 H52         2.7043   50.2829   23.6663 H         1 UNK         0.0000 
     53 H53         1.6055   52.6983   23.9370 H         1 UNK         0.0000 
     54 H54        -0.1024   52.8479   23.6446 H         1 UNK         0.0000 
     55 H55         1.2411   53.7040   21.6828 H         1 UNK         0.0000 
     56 H56         0.2664   52.3145   21.2262 H         1 UNK         0.0000 
     57 H57        -0.0489   47.3640   24.3937 H         1 UNK         0.0000 
     58 H58        -1.6423   47.9436   24.8745 H         1 UNK         0.0000 
     59 H59        -0.2375   48.4038   22.3266 H         1 UNK         0.0000 
     60 H60        -1.9090   48.6868   22.7131 H         1 UNK         0.0000 
     61 H61        -1.4423   50.8395   23.3982 H         1 UNK         0.0000 
     62 H62         1.0203   52.1912   25.6995 H         1 UNK         0.0000 
     63 H63        -0.2195   50.4929   27.6839 H         1 UNK         0.0000 
     64 H64         1.5378   50.3578   27.6708 H         1 UNK         0.0000 
     65 H65        -0.5105   51.4524   29.8502 H         1 UNK         0.0000 
     66 H66        -0.3856   53.4300   31.3215 H         1 UNK         0.0000 
     67 H67         2.1856   53.3426   27.0386 H         1 UNK         0.0000 
     68 H68         1.1060   57.1999   29.1529 H         1 UNK         0.0000 
     69 H69         2.6038   57.0412   30.0811 H         1 UNK         0.0000 
     70 H70        -0.1641   48.9627   26.3726 H         1 UNK         0.0000 
@<TRIPOS>BOND
     1    1    2 1    
     2    1   36 1    
     3    1   37 1    
     4    1   38 1    
     5    2    3 1    
     6    2    4 1    
     7    2   39 1    
     8    3   40 1    
     9    3   41 1    
    10    3   42 1    
    11    4    5 1    
    12    4   43 1    
    13    4   44 1    
    14    5   10 ar   
    15    5    6 ar   
    16    6    7 ar   
    17    6   45 1    
    18    7    8 ar   
    19    7   46 1    
    20    8    9 ar   
    21    8   11 1    
    22    9   10 ar   
    23    9   47 1    
    24   10   48 1    
    25   11   12 2    
    26   11   13 2    
    27   11   14 1    
    28   14   19 1    
    29   14   15 1    
    30   15   16 1    
    31   15   49 1    
    32   15   50 1    
    33   16   17 1    
    34   16   51 1    
    35   16   52 1    
    36   17   24 1    
    37   17   18 1    
    38   17   20 1    
    39   18   19 1    
    40   18   53 1    
    41   18   54 1    
    42   19   55 1    
    43   19   56 1    
    44   20   21 2    
    45   20   25 1    
    46   21   22 1    
    47   21   70 1    
    48   22   23 1    
    49   22   57 1    
    50   22   58 1    
    51   23   24 1    
    52   23   59 1    
    53   23   60 1    
    54   24   61 1    
    55   25   26 1    
    56   25   62 1    
    57   26   27 1    
    58   26   63 1    
    59   26   64 1    
    60   27   32 ar   
    61   27   28 ar   
    62   28   29 ar   
    63   28   65 1    
    64   29   30 ar   
    65   29   66 1    
    66   30   35 1    
    67   30   31 ar   
    68   31   32 ar   
    69   31   33 1    
    70   32   67 1    
    71   33   34 1    
    72   34   35 1    
    73   34   68 1    
    74   34   69 1    
@<TRIPOS>SUBSTRUCTURE
     1 UNK         1 GROUP             0       ****    0 ROOT    
