@<TRIPOS>MOLECULE
ZINC14160370_3713
67   70    1
SMALL
USER_CHARGES


@<TRIPOS>ATOM
      1 C1         -0.5961   56.6996   16.8088 C.3       1 UNK         0.0000 
      2 C2         -0.7928   55.1950   16.7894 C.ar      1 UNK         0.0000 
      3 C3         -1.6859   54.5762   15.9069 C.ar      1 UNK         0.0000 
      4 C4         -1.7834   53.1840   15.9921 C.ar      1 UNK         0.0000 
      5 N5         -1.0630   52.4550   16.8859 N.ar      1 UNK         0.0000 
      6 C6         -0.2160   53.1439   17.7056 C.ar      1 UNK         0.0000 
      7 N7         -0.0512   54.4919   17.6813 N.ar      1 UNK         0.0000 
      8 N8          0.5447   52.4727   18.6854 N.pl3     1 UNK         0.0000 
      9 C9          0.6510   51.0836   19.0220 C.2       1 UNK         0.0000 
     10 N10         0.1638   50.1769   18.2496 N.2       1 UNK         0.0000 
     11 C11         0.2917   48.8108   18.3699 C.2       1 UNK         0.0000 
     12 S12        -0.9476   47.8546   18.9626 S.2       1 UNK         0.0000 
     13 N13         1.5056   48.4030   17.8994 N.pl3     1 UNK         0.0000 
     14 C14         1.9381   47.0069   17.8494 C.3       1 UNK         0.0000 
     15 N15         1.3312   50.8419   20.2712 N.pl3     1 UNK         0.0000 
     16 C16         0.6235   50.2099   21.3902 C.3       1 UNK         0.0000 
     17 C17         0.2814   51.2069   22.5092 C.3       1 UNK         0.0000 
     18 C18         1.5059   51.9287   23.1477 C.3       1 UNK         0.0000 
     19 C19         2.3763   52.4674   21.9612 C.3       1 UNK         0.0000 
     20 C20         2.5370   51.5486   20.7209 C.3       1 UNK         0.0000 
     21 C21         1.1338   52.9424   24.3311 C.3       1 UNK         0.0000 
     22 C22        -0.0684   52.3636   25.1459 C.ar      1 UNK         0.0000 
     23 C23        -1.3877   52.8003   24.9109 C.ar      1 UNK         0.0000 
     24 C24        -2.4512   52.3091   25.6603 C.ar      1 UNK         0.0000 
     25 C25        -2.2128   51.3635   26.6478 C.ar      1 UNK         0.0000 
     26 C26        -0.9291   50.8713   26.8483 C.ar      1 UNK         0.0000 
     27 C27         0.1245   51.3276   26.0665 C.ar      1 UNK         0.0000 
     28 C28         2.3613   53.4109   25.1936 C.ar      1 UNK         0.0000 
     29 C29         2.4019   53.2973   26.5987 C.ar      1 UNK         0.0000 
     30 C30         3.5081   53.7168   27.3355 C.ar      1 UNK         0.0000 
     31 C31         4.5873   54.3018   26.6878 C.ar      1 UNK         0.0000 
     32 C32         4.5500   54.5012   25.3160 C.ar      1 UNK         0.0000 
     33 C33         3.4357   54.0932   24.5877 C.ar      1 UNK         0.0000 
     34 O34         0.7045   54.0971   23.6607 O.3       1 UNK         0.0000 
     35 C35        -2.7069   52.3915   15.0834 C.3       1 UNK         0.0000 
     36 H36        -1.2358   57.1959   16.0805 H         1 UNK         0.0000 
     37 H37         0.4404   56.9470   16.5763 H         1 UNK         0.0000 
     38 H38        -0.8252   57.0986   17.7972 H         1 UNK         0.0000 
     39 H39        -2.2664   55.1455   15.1940 H         1 UNK         0.0000 
     40 H40         1.1037   53.0953   19.2474 H         1 UNK         0.0000 
     41 H41         2.1505   49.1029   17.5484 H         1 UNK         0.0000 
     42 H42         2.9713   46.9594   17.5052 H         1 UNK         0.0000 
     43 H43         1.8883   46.5442   18.8349 H         1 UNK         0.0000 
     44 H44         1.3266   46.4321   17.1529 H         1 UNK         0.0000 
     45 H45        -0.3002   49.7423   21.0559 H         1 UNK         0.0000 
     46 H46         1.2289   49.3820   21.7582 H         1 UNK         0.0000 
     47 H47        -0.4387   51.9375   22.1370 H         1 UNK         0.0000 
     48 H48        -0.2707   50.6554   23.2697 H         1 UNK         0.0000 
     49 H49         2.0915   51.1167   23.5839 H         1 UNK         0.0000 
     50 H50         3.3765   52.7274   22.2957 H         1 UNK         0.0000 
     51 H51         1.9560   53.3954   21.5774 H         1 UNK         0.0000 
     52 H52         3.3181   50.8030   20.8887 H         1 UNK         0.0000 
     53 H53         2.9361   52.1378   19.8910 H         1 UNK         0.0000 
     54 H54        -1.6027   53.5481   24.1635 H         1 UNK         0.0000 
     55 H55        -3.4546   52.6668   25.4825 H         1 UNK         0.0000 
     56 H56        -3.0265   50.9873   27.2518 H         1 UNK         0.0000 
     57 H57        -0.7482   50.1093   27.5895 H         1 UNK         0.0000 
     58 H58         1.1043   50.9015   26.2155 H         1 UNK         0.0000 
     59 H59         1.5815   52.9058   27.1730 H         1 UNK         0.0000 
     60 H60         3.5232   53.5961   28.4101 H         1 UNK         0.0000 
     61 H61         5.4448   54.6322   27.2575 H         1 UNK         0.0000 
     62 H62         5.3681   54.9989   24.8188 H         1 UNK         0.0000 
     63 H63         3.4206   54.3404   23.5408 H         1 UNK         0.0000 
     64 H64         1.3915   54.3459   23.0381 H         1 UNK         0.0000 
     65 H65        -3.2611   53.0428   14.4036 H         1 UNK         0.0000 
     66 H66        -2.1280   51.6862   14.4806 H         1 UNK         0.0000 
     67 H67        -3.4266   51.8245   15.6755 H         1 UNK         0.0000 
@<TRIPOS>BOND
     1    1    2 1    
     2    1   36 1    
     3    1   37 1    
     4    1   38 1    
     5    2    7 ar   
     6    2    3 ar   
     7    3    4 ar   
     8    3   39 1    
     9    4    5 ar   
    10    4   35 1    
    11    5    6 ar   
    12    6    7 ar   
    13    6    8 1    
    14    8    9 1    
    15    8   40 1    
    16    9   10 2    
    17    9   15 1    
    18   10   11 1    
    19   11   12 2    
    20   11   13 1    
    21   13   14 1    
    22   13   41 1    
    23   14   42 1    
    24   14   43 1    
    25   14   44 1    
    26   15   20 1    
    27   15   16 1    
    28   16   17 1    
    29   16   45 1    
    30   16   46 1    
    31   17   18 1    
    32   17   47 1    
    33   17   48 1    
    34   18   19 1    
    35   18   21 1    
    36   18   49 1    
    37   19   20 1    
    38   19   50 1    
    39   19   51 1    
    40   20   52 1    
    41   20   53 1    
    42   21   22 1    
    43   21   28 1    
    44   21   34 1    
    45   22   27 ar   
    46   22   23 ar   
    47   23   24 ar   
    48   23   54 1    
    49   24   25 ar   
    50   24   55 1    
    51   25   26 ar   
    52   25   56 1    
    53   26   27 ar   
    54   26   57 1    
    55   27   58 1    
    56   28   33 ar   
    57   28   29 ar   
    58   29   30 ar   
    59   29   59 1    
    60   30   31 ar   
    61   30   60 1    
    62   31   32 ar   
    63   31   61 1    
    64   32   33 ar   
    65   32   62 1    
    66   33   63 1    
    67   34   64 1    
    68   35   65 1    
    69   35   66 1    
    70   35   67 1    
@<TRIPOS>SUBSTRUCTURE
     1 UNK         1 GROUP             0       ****    0 ROOT    
