@<TRIPOS>MOLECULE
ZINC09080737_3102
61   63    1
SMALL
USER_CHARGES


@<TRIPOS>ATOM
      1 C1          3.1210   51.7745   18.9631 C.3       1 UNK         0.0000 
      2 N2          3.3570   52.1894   20.3499 N.pl3     1 UNK         0.0000 
      3 C3          4.1515   53.4044   20.5264 C.3       1 UNK         0.0000 
      4 C4          2.4455   51.7803   21.3605 C.ar      1 UNK         0.0000 
      5 C5          1.6124   50.6675   21.1624 C.ar      1 UNK         0.0000 
      6 C6          0.7023   50.2703   22.1332 C.ar      1 UNK         0.0000 
      7 C7          0.6055   50.9707   23.3363 C.ar      1 UNK         0.0000 
      8 C8          1.4500   52.0587   23.5692 C.ar      1 UNK         0.0000 
      9 C9          2.3512   52.4625   22.5867 C.ar      1 UNK         0.0000 
     10 C10        -0.4489   50.5342   24.3507 C.3       1 UNK         0.0000 
     11 H11        -1.2649   50.1559   23.7371 H         1 UNK         0.0000 
     12 C12         0.0351   49.4139   25.3132 C.3       1 UNK         0.0000 
     13 N13        -1.0343   48.4804   25.6814 N.am      1 UNK         0.0000 
     14 C14        -1.6706   47.6894   24.7840 C.2       1 UNK         0.0000 
     15 O15        -1.2579   47.5541   23.6288 O.2       1 UNK         0.0000 
     16 C16        -2.9550   47.0477   25.1982 C.2       1 UNK         0.0000 
     17 O17        -3.6543   46.4701   24.3565 O.2       1 UNK         0.0000 
     18 N18        -3.2946   47.1683   26.5101 N.am      1 UNK         0.0000 
     19 N19        -4.5158   46.6768   27.0158 N.am      1 UNK         0.0000 
     20 C20        -4.8117   45.3525   27.0092 C.2       1 UNK         0.0000 
     21 O21        -4.0962   44.4965   26.4817 O.2       1 UNK         0.0000 
     22 C22        -6.1249   44.9574   27.6590 C.ar      1 UNK         0.0000 
     23 C23        -6.5989   43.6443   27.5096 C.ar      1 UNK         0.0000 
     24 C24        -7.8097   43.2567   28.0784 C.ar      1 UNK         0.0000 
     25 C25        -8.5556   44.1760   28.8092 C.ar      1 UNK         0.0000 
     26 C26        -8.1016   45.4813   28.9731 C.ar      1 UNK         0.0000 
     27 C27        -6.8929   45.8733   28.4016 C.ar      1 UNK         0.0000 
     28 S28        -1.2817   51.9748   25.2744 S.o2      1 UNK         0.0000 
     29 O29        -0.3758   52.4665   26.3205 O.2       1 UNK         0.0000 
     30 O30        -1.8143   52.8980   24.2667 O.2       1 UNK         0.0000 
     31 C31        -2.7023   51.2480   26.0892 C.ar      1 UNK         0.0000 
     32 C32        -2.6318   50.9005   27.4403 C.ar      1 UNK         0.0000 
     33 C33        -3.7419   50.3445   28.0691 C.ar      1 UNK         0.0000 
     34 C34        -4.9098   50.1242   27.3436 C.ar      1 UNK         0.0000 
     35 C35        -4.9834   50.4688   25.9948 C.ar      1 UNK         0.0000 
     36 C36        -3.8775   51.0338   25.3645 C.ar      1 UNK         0.0000 
     37 F37        -5.9756   49.5530   27.9480 F         1 UNK         0.0000 
     38 H38         3.1044   50.6898   18.8595 H         1 UNK         0.0000 
     39 H39         3.8942   52.1418   18.2877 H         1 UNK         0.0000 
     40 H40         2.1629   52.1589   18.6119 H         1 UNK         0.0000 
     41 H41         3.5050   54.2832   20.5409 H         1 UNK         0.0000 
     42 H42         4.7019   53.3837   21.4681 H         1 UNK         0.0000 
     43 H43         4.8801   53.5334   19.7236 H         1 UNK         0.0000 
     44 H44         1.6491   50.0907   20.2509 H         1 UNK         0.0000 
     45 H45         0.0679   49.4154   21.9436 H         1 UNK         0.0000 
     46 H46         1.4043   52.6113   24.4961 H         1 UNK         0.0000 
     47 H47         2.9675   53.3227   22.7984 H         1 UNK         0.0000 
     48 H48         0.8439   48.8343   24.8583 H         1 UNK         0.0000 
     49 H49         0.4620   49.8464   26.2197 H         1 UNK         0.0000 
     50 H50        -1.3173   48.4968   26.6649 H         1 UNK         0.0000 
     51 H51        -2.6559   47.4772   27.2387 H         1 UNK         0.0000 
     52 H52        -4.8367   47.2549   27.7780 H         1 UNK         0.0000 
     53 H53        -6.0346   42.9103   26.9495 H         1 UNK         0.0000 
     54 H54        -8.1664   42.2441   27.9600 H         1 UNK         0.0000 
     55 H55        -9.4913   43.8705   29.2564 H         1 UNK         0.0000 
     56 H56        -8.6868   46.1889   29.5429 H         1 UNK         0.0000 
     57 H57        -6.5765   46.8964   28.5473 H         1 UNK         0.0000 
     58 H58        -1.7210   51.0450   28.0062 H         1 UNK         0.0000 
     59 H59        -3.6787   50.0516   29.1087 H         1 UNK         0.0000 
     60 H60        -5.8939   50.2915   25.4425 H         1 UNK         0.0000 
     61 H61        -3.9333   51.2995   24.3181 H         1 UNK         0.0000 
@<TRIPOS>BOND
     1    1    2 1    
     2    1   38 1    
     3    1   39 1    
     4    1   40 1    
     5    2    3 1    
     6    2    4 1    
     7    3   41 1    
     8    3   42 1    
     9    3   43 1    
    10    4    9 ar   
    11    4    5 ar   
    12    5    6 ar   
    13    5   44 1    
    14    6    7 ar   
    15    6   45 1    
    16    7    8 ar   
    17    7   10 1    
    18    8    9 ar   
    19    8   46 1    
    20    9   47 1    
    21   10   11 1    
    22   10   12 1    
    23   10   28 1    
    24   12   13 1    
    25   12   48 1    
    26   12   49 1    
    27   13   14 am   BACKBONE|DICT|INTERRES
    28   13   50 1    
    29   14   15 2    
    30   14   16 1    
    31   16   17 2    
    32   16   18 am   BACKBONE|DICT|INTERRES
    33   18   19 1    
    34   18   51 1    
    35   19   20 am   BACKBONE|DICT|INTERRES
    36   19   52 1    
    37   20   21 2    
    38   20   22 1    
    39   22   27 ar   
    40   22   23 ar   
    41   23   24 ar   
    42   23   53 1    
    43   24   25 ar   
    44   24   54 1    
    45   25   26 ar   
    46   25   55 1    
    47   26   27 ar   
    48   26   56 1    
    49   27   57 1    
    50   28   29 2    
    51   28   30 2    
    52   28   31 1    
    53   31   36 ar   
    54   31   32 ar   
    55   32   33 ar   
    56   32   58 1    
    57   33   34 ar   
    58   33   59 1    
    59   34   35 ar   
    60   34   37 1    
    61   35   36 ar   
    62   35   60 1    
    63   36   61 1    
@<TRIPOS>SUBSTRUCTURE
     1 UNK         1 GROUP             0       ****    0 ROOT    
