ZINC64169865_3092
                    3D
 Schrodinger Suite 2024-2.
 63 66  0  0  1  0            999 V2000
   -6.3446   53.0681   24.6055 C   0  0  0  0  0  0
   -5.7038   52.3950   25.6813 O   0  0  0  0  0  0
   -4.3554   52.1160   25.5896 C   0  0  0  0  0  0
   -3.8427   51.2468   26.5473 C   0  0  0  0  0  0
   -2.4982   50.8970   26.5333 C   0  0  0  0  0  0
   -1.6303   51.4225   25.5690 C   0  0  0  0  0  0
   -2.1461   52.3009   24.6084 C   0  0  0  0  0  0
   -3.4964   52.6434   24.6142 C   0  0  0  0  0  0
   -0.1234   51.0770   25.5454 C   0  0  2  0  0  0
    0.1864   51.2941   24.5215 H   0  0  0  0  0  0
    0.2974   49.5801   25.7441 C   0  0  0  0  0  0
   -0.7707   48.5876   25.6817 N   0  0  0  0  0  0
   -1.3712   48.0965   24.5861 C   0  0  0  0  0  0
   -0.9341   48.2758   23.4491 O   0  0  0  0  0  0
   -2.6629   47.3418   24.8262 C   0  0  0  0  0  0
   -3.2681   46.6220   23.7853 C   0  0  0  0  0  0
   -4.4972   45.9870   23.9816 C   0  0  0  0  0  0
   -5.1401   46.0620   25.2183 C   0  0  0  0  0  0
   -4.5515   46.7685   26.2662 C   0  0  0  0  0  0
   -3.3203   47.3936   26.0669 C   0  0  0  0  0  0
   -5.3968   46.8936   27.8423 S   0  0  0  0  0  0
   -5.2955   45.5780   28.4816 O   0  0  0  0  0  0
   -6.7175   47.4714   27.5745 O   0  0  0  0  0  0
   -4.4957   48.0448   28.8368 N   0  0  0  0  0  0
   -4.7249   48.0805   30.2963 C   0  0  0  0  0  0
   -6.1936   48.1646   30.6624 C   0  0  0  0  0  0
   -6.8247   47.2977   31.4700 C   0  0  0  0  0  0
    0.6725   52.0458   26.4231 C   0  0  0  0  0  0
    0.6339   52.2993   27.7497 C   0  0  0  0  0  0
   -0.1625   51.6992   28.8318 C   0  0  0  0  0  0
   -0.0898   52.1605   30.0930 C   0  0  0  0  0  0
    0.8133   53.2664   30.3623 C   0  0  0  0  0  0
    1.5869   53.8160   29.3885 C   0  0  0  0  0  0
    1.5126   53.3410   28.0709 C   0  0  0  0  0  0
    2.1607   53.7379   27.0052 N   0  3  0  0  0  0
    1.7019   52.9871   25.8253 C   0  0  0  0  0  0
   -7.4098   53.1641   24.8165 H   0  0  0  0  0  0
   -5.9490   54.0734   24.4584 H   0  0  0  0  0  0
   -6.2462   52.4964   23.6817 H   0  0  0  0  0  0
   -4.4992   50.8226   27.2932 H   0  0  0  0  0  0
   -2.1524   50.1865   27.2658 H   0  0  0  0  0  0
   -1.5013   52.7242   23.8527 H   0  0  0  0  0  0
   -3.8593   53.3227   23.8599 H   0  0  0  0  0  0
    0.7325   49.4564   26.7371 H   0  0  0  0  0  0
    1.0991   49.3067   25.0531 H   0  0  0  0  0  0
   -1.0865   48.2625   26.5954 H   0  0  0  0  0  0
   -2.8032   46.5706   22.8110 H   0  0  0  0  0  0
   -4.9632   45.4527   23.1671 H   0  0  0  0  0  0
   -6.0998   45.5842   25.3601 H   0  0  0  0  0  0
   -2.8957   47.9544   26.8817 H   0  0  0  0  0  0
   -3.4899   48.0897   28.6255 H   0  0  0  0  0  0
   -4.1877   48.9341   30.7127 H   0  0  0  0  0  0
   -4.2504   47.2033   30.7382 H   0  0  0  0  0  0
   -6.7495   48.9801   30.2212 H   0  0  0  0  0  0
   -6.3045   46.4679   31.9254 H   0  0  0  0  0  0
   -7.8773   47.4074   31.6880 H   0  0  0  0  0  0
   -0.8126   50.8573   28.6685 H   0  0  0  0  0  0
   -0.6744   51.7065   30.8846 H   0  0  0  0  0  0
    0.8611   53.6557   31.3703 H   0  0  0  0  0  0
    2.2369   54.6406   29.6433 H   0  0  0  0  0  0
    2.5691   52.4966   25.3809 H   0  0  0  0  0  0
    1.2786   53.6984   25.1144 H   0  0  0  0  0  0
    2.8548   54.4804   26.9767 H   0  0  0  0  0  0
  1  2  1  0  0  0
  1 37  1  0  0  0
  1 38  1  0  0  0
  1 39  1  0  0  0
  2  3  1  0  0  0
  3  8  2  0  0  0
  3  4  1  0  0  0
  4  5  2  0  0  0
  4 40  1  0  0  0
  5  6  1  0  0  0
  5 41  1  0  0  0
  6  7  2  0  0  0
  6  9  1  0  0  0
  7  8  1  0  0  0
  7 42  1  0  0  0
  8 43  1  0  0  0
  9 10  1  0  0  0
  9 11  1  0  0  0
  9 28  1  0  0  0
 11 12  1  0  0  0
 11 44  1  0  0  0
 11 45  1  0  0  0
 12 13  1  0  0  0
 12 46  1  0  0  0
 13 14  2  0  0  0
 13 15  1  0  0  0
 15 20  2  0  0  0
 15 16  1  0  0  0
 16 17  2  0  0  0
 16 47  1  0  0  0
 17 18  1  0  0  0
 17 48  1  0  0  0
 18 19  2  0  0  0
 18 49  1  0  0  0
 19 20  1  0  0  0
 19 21  1  0  0  0
 20 50  1  0  0  0
 21 22  2  0  0  0
 21 23  2  0  0  0
 21 24  1  0  0  0
 24 25  1  0  0  0
 24 51  1  0  0  0
 25 26  1  0  0  0
 25 52  1  0  0  0
 25 53  1  0  0  0
 26 27  2  0  0  0
 26 54  1  0  0  0
 27 55  1  0  0  0
 27 56  1  0  0  0
 28 36  1  0  0  0
 28 29  2  0  0  0
 29 34  1  0  0  0
 29 30  1  0  0  0
 30 31  2  0  0  0
 30 57  1  0  0  0
 31 32  1  0  0  0
 31 58  1  0  0  0
 32 33  2  0  0  0
 32 59  1  0  0  0
 33 34  1  0  0  0
 33 60  1  0  0  0
 34 35  2  0  0  0
 35 36  1  0  0  0
 35 63  1  0  0  0
 36 61  1  0  0  0
 36 62  1  0  0  0
M  CHG  1  35   1
M  END
> <i_i_glide_confnum>
315

> <i_i_glide_lignum>
3093

> <i_i_glide_posenum>
138

> <i_i_glide_rotatable_bonds>
11

> <i_m_Source_File_Index>
473

> <b_m_subgroup_collapsed>
0

> <r_i_docking_score>
-0.26311

> <r_i_glide_ecoul>
-12.9424

> <r_i_glide_eff_state_penalty>
0

> <r_i_glide_einternal>
12.6852

> <r_i_glide_emodel>
-31.8365

> <r_i_glide_energy>
-49.9419

> <r_i_glide_erotb>
0.845577

> <r_i_glide_esite>
-0.362123

> <r_i_glide_evdw>
-36.9995

> <r_i_glide_gscore>
-0.26311

> <r_i_glide_hbond>
-0.304

> <r_i_glide_ligand_efficiency>
-0.00751743

> <r_i_glide_ligand_efficiency_ln>
-0.0577585

> <r_i_glide_ligand_efficiency_sa>
-0.02459

> <r_i_glide_lipo>
-1.07019

> <r_i_glide_metal>
0

> <r_i_glide_rewards>
4.41897

> <s_i_glide_gridfile>
wee1_glide-grid

> <s_m_Source_File>
wee1_decoys_glide_SP.sdf

> <s_m_Source_Path>
/Users/zhangxujun/Desktop

> <s_m_entry_id>
748

> <s_m_entry_name>
wee1_decoys_glide_SP.473

> <s_m_subgroup_title>
wee1_decoys_glide_SP

> <s_m_subgroupid>
wee1_decoys_glide_SP


$$$$
