@<TRIPOS>MOLECULE
ZINC64623138_1211
60   64    1
SMALL
USER_CHARGES


@<TRIPOS>ATOM
      1 C1         -2.8677   51.7746   16.8556 C.3       1 UNK         0.0000 
      2 O2         -3.2695   51.4961   18.1937 O.3       1 UNK         0.0000 
      3 C3         -2.3152   51.4723   19.1904 C.ar      1 UNK         0.0000 
      4 C4         -2.7659   51.1502   20.4683 C.ar      1 UNK         0.0000 
      5 C5         -1.8873   51.1322   21.5465 C.ar      1 UNK         0.0000 
      6 C6         -0.5317   51.4159   21.3540 C.ar      1 UNK         0.0000 
      7 C7         -0.0706   51.7143   20.0695 C.ar      1 UNK         0.0000 
      8 C8         -0.9554   51.7524   18.9962 C.ar      1 UNK         0.0000 
      9 C9          0.4784   51.3598   22.5079 C.3       1 UNK         0.0000 
     10 H10         1.4321   51.2361   21.9923 H         1 UNK         0.0000 
     11 C11         0.4062   50.1077   23.4478 C.3       1 UNK         0.0000 
     12 H12         1.4090   49.8817   23.8192 H         1 UNK         0.0000 
     13 C13        -0.5347   50.2735   24.6253 C.2       1 UNK         0.0000 
     14 C14        -1.3294   49.1995   24.7193 C.2       1 UNK         0.0000 
     15 C15        -2.3829   48.8431   25.6804 C.2       1 UNK         0.0000 
     16 C16        -3.1120   47.7207   25.5182 C.2       1 UNK         0.0000 
     17 C17        -2.8249   46.8974   24.3500 C.2       1 UNK         0.0000 
     18 C18        -1.8381   47.1999   23.4650 C.2       1 UNK         0.0000 
     19 C19        -1.0725   48.3583   23.6337 C.2       1 UNK         0.0000 
     20 N20        -0.1130   48.8522   22.8766 N.pl3     1 UNK         0.0000 
     21 Cl21       -4.3175   47.2300   26.7106 Cl        1 UNK         0.0000 
     22 C22        -0.4518   51.5776   25.3857 C.3       1 UNK         0.0000 
     23 C23        -0.5810   52.7135   24.3478 C.3       1 UNK         0.0000 
     24 N24         0.5220   52.5724   23.3658 N.am      1 UNK         0.0000 
     25 C25         1.5102   53.5117   23.3383 C.2       1 UNK         0.0000 
     26 O26         1.4955   54.4932   24.0823 O.2       1 UNK         0.0000 
     27 N27         2.5474   53.3003   22.4960 N.am      1 UNK         0.0000 
     28 C28         3.8428   53.8228   22.6656 C.ar      1 UNK         0.0000 
     29 C29         4.6169   54.0788   21.5335 C.ar      1 UNK         0.0000 
     30 C30         5.9045   54.5977   21.6742 C.ar      1 UNK         0.0000 
     31 C31         6.4360   54.8373   22.9431 C.ar      1 UNK         0.0000 
     32 C32         5.6829   54.5577   24.0928 C.ar      1 UNK         0.0000 
     33 C33         4.3861   54.0576   23.9396 C.ar      1 UNK         0.0000 
     34 C34         6.2186   54.8671   25.4511 C.2       1 UNK         0.0000 
     35 O35         7.1043   55.6959   25.6474 O.2       1 UNK         0.0000 
     36 O36         5.6880   54.0911   26.4292 O.3       1 UNK         0.0000 
     37 C37         6.1203   54.2275   27.7774 C.3       1 UNK         0.0000 
     38 H38        -3.7364   51.7214   16.2002 H         1 UNK         0.0000 
     39 H39        -2.4426   52.7766   16.7649 H         1 UNK         0.0000 
     40 H40        -2.1394   51.0453   16.4948 H         1 UNK         0.0000 
     41 H41        -3.8069   50.9061   20.6215 H         1 UNK         0.0000 
     42 H42        -2.2696   50.8851   22.5262 H         1 UNK         0.0000 
     43 H43         0.9729   51.9352   19.8962 H         1 UNK         0.0000 
     44 H44        -0.5657   52.0012   18.0206 H         1 UNK         0.0000 
     45 H45        -2.5563   49.4342   26.5701 H         1 UNK         0.0000 
     46 H46        -3.4364   46.0251   24.1782 H         1 UNK         0.0000 
     47 H47        -1.6767   46.5506   22.6151 H         1 UNK         0.0000 
     48 H48        -1.2489   51.6563   26.1258 H         1 UNK         0.0000 
     49 H49         0.4871   51.6653   25.9360 H         1 UNK         0.0000 
     50 H50        -1.5285   52.6386   23.8129 H         1 UNK         0.0000 
     51 H51        -0.6218   53.6963   24.8116 H         1 UNK         0.0000 
     52 H52         2.4288   52.6495   21.7345 H         1 UNK         0.0000 
     53 H53         4.2167   53.8990   20.5451 H         1 UNK         0.0000 
     54 H54         6.4913   54.8152   20.7957 H         1 UNK         0.0000 
     55 H55         7.4371   55.2416   23.0221 H         1 UNK         0.0000 
     56 H56         3.7929   53.8463   24.8189 H         1 UNK         0.0000 
     57 H57         5.6024   53.5040   28.4073 H         1 UNK         0.0000 
     58 H58         7.1936   54.0492   27.8684 H         1 UNK         0.0000 
     59 H59         5.9052   55.2274   28.1581 H         1 UNK         0.0000 
     60 H60         0.2335   48.4417   22.0138 H         1 UNK         0.0000 
@<TRIPOS>BOND
     1    1    2 1    
     2    1   38 1    
     3    1   39 1    
     4    1   40 1    
     5    2    3 1    
     6    3    8 ar   
     7    3    4 ar   
     8    4    5 ar   
     9    4   41 1    
    10    5    6 ar   
    11    5   42 1    
    12    6    7 ar   
    13    6    9 1    
    14    7    8 ar   
    15    7   43 1    
    16    8   44 1    
    17    9   10 1    
    18    9   24 1    
    19    9   11 1    
    20   11   12 1    
    21   11   20 1    
    22   11   13 1    
    23   13   14 2    
    24   13   22 1    
    25   14   19 1    
    26   14   15 1    
    27   15   16 2    
    28   15   45 1    
    29   16   17 1    
    30   16   21 1    
    31   17   18 2    
    32   17   46 1    
    33   18   19 1    
    34   18   47 1    
    35   19   20 2    
    36   20   60 1    
    37   22   23 1    
    38   22   48 1    
    39   22   49 1    
    40   23   24 1    
    41   23   50 1    
    42   23   51 1    
    43   24   25 am   BACKBONE|DICT|INTERRES
    44   25   26 2    
    45   25   27 am   BACKBONE|DICT|INTERRES
    46   27   28 1    
    47   27   52 1    
    48   28   33 ar   
    49   28   29 ar   
    50   29   30 ar   
    51   29   53 1    
    52   30   31 ar   
    53   30   54 1    
    54   31   32 ar   
    55   31   55 1    
    56   32   33 ar   
    57   32   34 1    
    58   33   56 1    
    59   34   35 2    
    60   34   36 1    
    61   36   37 1    
    62   37   57 1    
    63   37   58 1    
    64   37   59 1    
@<TRIPOS>SUBSTRUCTURE
     1 UNK         1 GROUP             0       ****    0 ROOT    
