@<TRIPOS>MOLECULE
ZINC41307973_5861
49   52    1
SMALL
USER_CHARGES


@<TRIPOS>ATOM
      1 C1          0.2930   50.5095   19.6174 C.3       1 UNK         0.0000 
      2 C2          1.7483   50.0204   19.6317 C.3       1 UNK         0.0000 
      3 N3          2.7036   51.0568   19.2525 N.am      1 UNK         0.0000 
      4 C4          3.0956   52.0826   20.0282 C.2       1 UNK         0.0000 
      5 O5          2.7054   52.2201   21.1919 O.2       1 UNK         0.0000 
      6 C6          4.0523   53.0135   19.4223 C.2       1 UNK         0.0000 
      7 C7          4.1879   53.2966   18.0278 C.2       1 UNK         0.0000 
      8 C8          5.1873   54.2505   17.7685 C.2       1 UNK         0.0000 
      9 S9          5.9305   54.8396   19.2076 S.3       1 UNK         0.0000 
     10 C10         4.9108   53.8281   20.1895 C.2       1 UNK         0.0000 
     11 N11         4.9585   53.8499   21.5784 N.am      1 UNK         0.0000 
     12 C12         5.8007   54.4965   22.4083 C.2       1 UNK         0.0000 
     13 O13         6.7820   55.1668   22.0835 O.2       1 UNK         0.0000 
     14 C14         5.4273   54.3179   23.7856 C.2       1 UNK         0.0000 
     15 C15         4.1708   54.1038   24.3619 C.2       1 UNK         0.0000 
     16 C16         4.3615   54.1497   25.7729 C.ar      1 UNK         0.0000 
     17 C17         3.5446   54.0298   26.9072 C.ar      1 UNK         0.0000 
     18 C18         4.1290   54.1604   28.1717 C.ar      1 UNK         0.0000 
     19 C19         5.5024   54.3862   28.3042 C.ar      1 UNK         0.0000 
     20 C20         6.3442   54.4955   27.2001 C.ar      1 UNK         0.0000 
     21 C21         5.7443   54.3893   25.9450 C.ar      1 UNK         0.0000 
     22 O22         6.3801   54.5167   24.7448 O.3       1 UNK         0.0000 
     23 C23         3.2655   54.0401   29.4130 C.3       1 UNK         0.0000 
     24 C24         5.5516   54.8090   16.3992 C.3       1 UNK         0.0000 
     25 C25         4.9515   53.9088   15.3019 C.3       1 UNK         0.0000 
     26 C26         3.4844   53.5628   15.5975 C.3       1 UNK         0.0000 
     27 C27         3.3404   52.7199   16.8830 C.3       1 UNK         0.0000 
     28 H28        -0.3886   49.6992   19.8755 H         1 UNK         0.0000 
     29 H29         0.1375   51.3100   20.3417 H         1 UNK         0.0000 
     30 H30         0.0089   50.8785   18.6312 H         1 UNK         0.0000 
     31 H31         1.8588   49.1964   18.9251 H         1 UNK         0.0000 
     32 H32         2.0048   49.6123   20.6122 H         1 UNK         0.0000 
     33 H33         3.2943   50.8430   18.4548 H         1 UNK         0.0000 
     34 H34         4.2491   53.2722   22.0114 H         1 UNK         0.0000 
     35 H35         3.2409   53.9607   23.8302 H         1 UNK         0.0000 
     36 H36         2.4854   53.8470   26.8023 H         1 UNK         0.0000 
     37 H37         5.9340   54.4966   29.2814 H         1 UNK         0.0000 
     38 H38         7.4039   54.6578   27.3137 H         1 UNK         0.0000 
     39 H39         2.4337   53.3537   29.2450 H         1 UNK         0.0000 
     40 H40         3.8392   53.6380   30.2491 H         1 UNK         0.0000 
     41 H41         2.8644   55.0153   29.6904 H         1 UNK         0.0000 
     42 H42         6.6317   54.8822   16.2731 H         1 UNK         0.0000 
     43 H43         5.1499   55.8175   16.2965 H         1 UNK         0.0000 
     44 H44         5.5326   52.9885   15.2185 H         1 UNK         0.0000 
     45 H45         5.0331   54.4056   14.3342 H         1 UNK         0.0000 
     46 H46         3.0519   53.0202   14.7554 H         1 UNK         0.0000 
     47 H47         2.9042   54.4824   15.6921 H         1 UNK         0.0000 
     48 H48         2.2862   52.6661   17.1557 H         1 UNK         0.0000 
     49 H49         3.6571   51.6969   16.6766 H         1 UNK         0.0000 
@<TRIPOS>BOND
     1    1    2 1    
     2    1   28 1    
     3    1   29 1    
     4    1   30 1    
     5    2    3 1    
     6    2   31 1    
     7    2   32 1    
     8    3    4 am   BACKBONE|DICT|INTERRES
     9    3   33 1    
    10    4    5 2    
    11    4    6 1    
    12    6   10 2    
    13    6    7 1    
    14    7   27 1    
    15    7    8 2    
    16    8    9 1    
    17    8   24 1    
    18    9   10 1    
    19   10   11 am   BACKBONE|DICT|INTERRES
    20   11   12 am   BACKBONE|DICT|INTERRES
    21   11   34 1    
    22   12   13 2    
    23   12   14 1    
    24   14   22 1    
    25   14   15 2    
    26   15   16 1    
    27   15   35 1    
    28   16   21 ar   
    29   16   17 ar   
    30   17   18 ar   
    31   17   36 1    
    32   18   19 ar   
    33   18   23 1    
    34   19   20 ar   
    35   19   37 1    
    36   20   21 ar   
    37   20   38 1    
    38   21   22 1    
    39   23   39 1    
    40   23   40 1    
    41   23   41 1    
    42   24   25 1    
    43   24   42 1    
    44   24   43 1    
    45   25   26 1    
    46   25   44 1    
    47   25   45 1    
    48   26   27 1    
    49   26   46 1    
    50   26   47 1    
    51   27   48 1    
    52   27   49 1    
@<TRIPOS>SUBSTRUCTURE
     1 UNK         1 GROUP             0       ****    0 ROOT    
