@<TRIPOS>MOLECULE
ZINC21185580_2256
57   59    1
SMALL
USER_CHARGES


@<TRIPOS>ATOM
      1 C1         -1.4200   51.2969   29.1779 C.3       1 UNK         0.0000 
      2 C2         -0.1924   51.7289   28.3629 C.3       1 UNK         0.0000 
      3 H3          0.5285   50.9110   28.4322 H         1 UNK         0.0000 
      4 C4          0.4089   53.0421   28.9071 C.3       1 UNK         0.0000 
      5 C5          1.7686   53.3692   28.2535 C.3       1 UNK         0.0000 
      6 C6          1.6769   53.1737   26.7367 C.2       1 UNK         0.0000 
      7 C7          0.6020   52.4963   26.1322 C.2       1 UNK         0.0000 
      8 S8          0.7285   52.4519   24.4008 S.3       1 UNK         0.0000 
      9 C9          2.2193   53.3152   24.4790 C.ar      1 UNK         0.0000 
     10 C10         2.5976   53.6394   25.7736 C.ar      1 UNK         0.0000 
     11 C11         3.8215   54.4132   25.9692 C.ar      1 UNK         0.0000 
     12 O12         4.1933   54.8834   27.0485 O.2       1 UNK         0.0000 
     13 N13         4.5251   54.5722   24.7729 N.pl3     1 UNK         0.0000 
     14 C14         4.0713   54.1785   23.5029 C.ar      1 UNK         0.0000 
     15 N15         2.9262   53.6082   23.3627 N.2       1 UNK         0.0000 
     16 S16         5.0460   54.4960   21.9919 S.3       1 UNK         0.0000 
     17 C17         4.0451   53.8284   20.6223 C.3       1 UNK         0.0000 
     18 H18         3.1044   54.3528   20.7298 H         1 UNK         0.0000 
     19 C19         4.6360   54.2189   19.2547 C.3       1 UNK         0.0000 
     20 C20         3.7736   52.3124   20.6841 C.2       1 UNK         0.0000 
     21 O21         4.7040   51.5264   20.8818 O.2       1 UNK         0.0000 
     22 N22         2.4716   51.9602   20.5467 N.am      1 UNK         0.0000 
     23 C23         1.9171   50.7671   20.2329 C.2       1 UNK         0.0000 
     24 O24         0.7154   50.5921   20.4283 O.2       1 UNK         0.0000 
     25 N25         2.7044   49.8228   19.6816 N.am      1 UNK         0.0000 
     26 C26         2.3030   48.4505   19.4066 C.3       1 UNK         0.0000 
     27 C27         5.8267   55.2906   24.9141 C.3       1 UNK         0.0000 
     28 C28         7.0735   54.4069   25.1904 C.3       1 UNK         0.0000 
     29 C29         6.9742   53.6594   26.5461 C.3       1 UNK         0.0000 
     30 C30         7.4293   53.5325   23.9667 C.3       1 UNK         0.0000 
     31 C31        -0.5869   51.9104   26.8789 C.3       1 UNK         0.0000 
     32 H32        -2.1356   52.0966   29.2814 H         1 UNK         0.0000 
     33 H33        -1.9641   50.4967   28.6850 H         1 UNK         0.0000 
     34 H34        -1.1486   50.9618   30.1794 H         1 UNK         0.0000 
     35 H35        -0.3037   53.8611   28.7941 H         1 UNK         0.0000 
     36 H36         0.5515   52.9567   29.9856 H         1 UNK         0.0000 
     37 H37         2.5437   52.7169   28.6593 H         1 UNK         0.0000 
     38 H38         2.0561   54.3901   28.5087 H         1 UNK         0.0000 
     39 H39         4.0174   53.8633   18.4285 H         1 UNK         0.0000 
     40 H40         4.7139   55.3023   19.1548 H         1 UNK         0.0000 
     41 H41         5.6362   53.8030   19.1186 H         1 UNK         0.0000 
     42 H42         1.8054   52.7088   20.6590 H         1 UNK         0.0000 
     43 H43         3.6213   50.0965   19.3454 H         1 UNK         0.0000 
     44 H44         2.9458   48.0331   18.6308 H         1 UNK         0.0000 
     45 H45         1.2705   48.3939   19.0583 H         1 UNK         0.0000 
     46 H46         2.4071   47.8406   20.3043 H         1 UNK         0.0000 
     47 H47         6.0276   55.8843   24.0253 H         1 UNK         0.0000 
     48 H48         5.7607   56.0535   25.6906 H         1 UNK         0.0000 
     49 H49         7.9039   55.0984   25.2819 H         1 UNK         0.0000 
     50 H50         6.1970   52.8972   26.5247 H         1 UNK         0.0000 
     51 H51         7.8894   53.1698   26.8817 H         1 UNK         0.0000 
     52 H52         6.7190   54.3550   27.3462 H         1 UNK         0.0000 
     53 H53         6.5957   52.8967   23.6819 H         1 UNK         0.0000 
     54 H54         7.6396   54.1566   23.0995 H         1 UNK         0.0000 
     55 H55         8.3045   52.8969   24.0819 H         1 UNK         0.0000 
     56 H56        -1.4394   52.5847   26.7947 H         1 UNK         0.0000 
     57 H57        -0.8898   50.9568   26.4453 H         1 UNK         0.0000 
@<TRIPOS>BOND
     1    1    2 1    
     2    1   32 1    
     3    1   33 1    
     4    1   34 1    
     5    2    3 1    
     6    2   31 1    
     7    2    4 1    
     8    4    5 1    
     9    4   35 1    
    10    4   36 1    
    11    5    6 1    
    12    5   37 1    
    13    5   38 1    
    14    6   10 1    
    15    6    7 2    
    16    7    8 1    
    17    7   31 1    
    18    8    9 1    
    19    9   15 ar   
    20    9   10 ar   
    21   10   11 ar   
    22   11   12 2    
    23   11   13 ar   
    24   13   14 ar   
    25   13   27 1    
    26   14   15 ar   
    27   14   16 1    
    28   16   17 1    
    29   17   18 1    
    30   17   19 1    
    31   17   20 1    
    32   19   39 1    
    33   19   40 1    
    34   19   41 1    
    35   20   21 2    
    36   20   22 am   BACKBONE|DICT|INTERRES
    37   22   23 am   BACKBONE|DICT|INTERRES
    38   22   42 1    
    39   23   24 2    
    40   23   25 am   BACKBONE|DICT|INTERRES
    41   25   26 1    
    42   25   43 1    
    43   26   44 1    
    44   26   45 1    
    45   26   46 1    
    46   27   28 1    
    47   27   47 1    
    48   27   48 1    
    49   28   29 1    
    50   28   30 1    
    51   28   49 1    
    52   29   50 1    
    53   29   51 1    
    54   29   52 1    
    55   30   53 1    
    56   30   54 1    
    57   30   55 1    
    58   31   56 1    
    59   31   57 1    
@<TRIPOS>SUBSTRUCTURE
     1 UNK         1 GROUP             0       ****    0 ROOT    
