@<TRIPOS>MOLECULE
ZINC33058266_4545
51   54    1
SMALL
USER_CHARGES


@<TRIPOS>ATOM
      1 C1         -6.0356   50.3064   26.8507 C.3       1 UNK         0.0000 
      2 C2         -4.7573   50.7737   26.1766 C.ar      1 UNK         0.0000 
      3 C3         -3.9377   51.7084   26.8105 C.ar      1 UNK         0.0000 
      4 C4         -2.7706   52.1465   26.1899 C.ar      1 UNK         0.0000 
      5 C5         -2.3905   51.6255   24.9455 C.ar      1 UNK         0.0000 
      6 C6         -3.2385   50.7097   24.3026 C.ar      1 UNK         0.0000 
      7 C7         -4.4141   50.2827   24.9175 C.ar      1 UNK         0.0000 
      8 C8         -1.1490   52.0904   24.2377 C.2       1 UNK         0.0000 
      9 O9         -1.1195   52.0949   23.0047 O.2       1 UNK         0.0000 
     10 C10         0.0700   52.4561   24.9863 C.2       1 UNK         0.0000 
     11 C11         0.5521   52.1195   26.2625 C.2       1 UNK         0.0000 
     12 C12         1.7783   52.7258   26.5958 C.2       1 UNK         0.0000 
     13 C13         2.3144   53.4342   25.5225 C.2       1 UNK         0.0000 
     14 S14         1.2384   53.4501   24.1606 S.3       1 UNK         0.0000 
     15 N15         3.5460   54.0485   25.5328 N.pl3     1 UNK         0.0000 
     16 C16         4.4776   54.3527   24.5276 C.ar      1 UNK         0.0000 
     17 C17         5.6845   54.9044   24.9647 C.ar      1 UNK         0.0000 
     18 C18         6.7039   55.1921   24.0608 C.ar      1 UNK         0.0000 
     19 C19         6.5385   54.9092   22.7059 C.ar      1 UNK         0.0000 
     20 C20         5.3341   54.3675   22.2555 C.ar      1 UNK         0.0000 
     21 C21         4.3081   54.0933   23.1603 C.ar      1 UNK         0.0000 
     22 Cl22        5.1039   54.0456   20.5760 Cl        1 UNK         0.0000 
     23 S23         2.6133   52.5837   28.2182 S.o2      1 UNK         0.0000 
     24 O24         2.1806   51.3412   28.8717 O.2       1 UNK         0.0000 
     25 O25         4.0358   52.8969   28.0315 O.2       1 UNK         0.0000 
     26 C26         1.9425   53.9442   29.1318 C.ar      1 UNK         0.0000 
     27 C27         2.4005   55.2262   28.8376 C.ar      1 UNK         0.0000 
     28 C28         1.9416   56.3044   29.5753 C.ar      1 UNK         0.0000 
     29 C29         1.0461   56.0905   30.6107 C.ar      1 UNK         0.0000 
     30 C30         0.5513   54.8150   30.8817 C.ar      1 UNK         0.0000 
     31 C31         0.9983   53.7311   30.1368 C.ar      1 UNK         0.0000 
     32 N32        -0.0720   51.2653   27.1252 N.pl3     1 UNK         0.0000 
     33 H33        -6.4381   51.0768   27.5091 H         1 UNK         0.0000 
     34 H34        -6.8100   50.0917   26.1125 H         1 UNK         0.0000 
     35 H35        -5.8511   49.4044   27.4345 H         1 UNK         0.0000 
     36 H36        -4.2037   52.0947   27.7817 H         1 UNK         0.0000 
     37 H37        -2.1575   52.8857   26.6884 H         1 UNK         0.0000 
     38 H38        -2.9898   50.3122   23.3291 H         1 UNK         0.0000 
     39 H39        -5.0504   49.5672   24.4160 H         1 UNK         0.0000 
     40 H40         4.0119   54.0543   26.4322 H         1 UNK         0.0000 
     41 H41         5.8436   55.1118   26.0131 H         1 UNK         0.0000 
     42 H42         7.6163   55.6420   24.4186 H         1 UNK         0.0000 
     43 H43         7.3364   55.1291   22.0098 H         1 UNK         0.0000 
     44 H44         3.4108   53.6491   22.7675 H         1 UNK         0.0000 
     45 H45         3.1248   55.3863   28.0546 H         1 UNK         0.0000 
     46 H46         2.3015   57.2966   29.3622 H         1 UNK         0.0000 
     47 H47         0.7076   56.9234   31.2055 H         1 UNK         0.0000 
     48 H48        -0.1571   54.6623   31.6825 H         1 UNK         0.0000 
     49 H49         0.6332   52.7375   30.3605 H         1 UNK         0.0000 
     50 H50         0.3863   50.9760   27.9837 H         1 UNK         0.0000 
     51 H51        -0.9044   50.7445   26.8763 H         1 UNK         0.0000 
@<TRIPOS>BOND
     1    1    2 1    
     2    1   33 1    
     3    1   34 1    
     4    1   35 1    
     5    2    7 ar   
     6    2    3 ar   
     7    3    4 ar   
     8    3   36 1    
     9    4    5 ar   
    10    4   37 1    
    11    5    6 ar   
    12    5    8 1    
    13    6    7 ar   
    14    6   38 1    
    15    7   39 1    
    16    8    9 2    
    17    8   10 1    
    18   10   14 1    
    19   10   11 2    
    20   11   12 1    
    21   11   32 1    
    22   12   13 2    
    23   12   23 1    
    24   13   14 1    
    25   13   15 1    
    26   15   16 1    
    27   15   40 1    
    28   16   21 ar   
    29   16   17 ar   
    30   17   18 ar   
    31   17   41 1    
    32   18   19 ar   
    33   18   42 1    
    34   19   20 ar   
    35   19   43 1    
    36   20   21 ar   
    37   20   22 1    
    38   21   44 1    
    39   23   24 2    
    40   23   25 2    
    41   23   26 1    
    42   26   31 ar   
    43   26   27 ar   
    44   27   28 ar   
    45   27   45 1    
    46   28   29 ar   
    47   28   46 1    
    48   29   30 ar   
    49   29   47 1    
    50   30   31 ar   
    51   30   48 1    
    52   31   49 1    
    53   32   50 1    
    54   32   51 1    
@<TRIPOS>SUBSTRUCTURE
     1 UNK         1 GROUP             0       ****    0 ROOT    
