ZINC45866103_4908
                    3D
 Schrodinger Suite 2024-2.
 66 69  0  0  1  0            999 V2000
    5.4844   54.1169   28.2100 C   0  0  0  0  0  0
    5.3910   54.2244   26.6983 C   0  0  0  0  0  0
    4.1585   54.0986   26.0577 C   0  0  0  0  0  0
    4.0854   54.1735   24.6688 C   0  0  0  0  0  0
    5.2411   54.3822   23.9099 C   0  0  0  0  0  0
    6.4807   54.4990   24.5590 C   0  0  0  0  0  0
    6.5494   54.4202   25.9482 C   0  0  0  0  0  0
    5.0572   54.4558   22.5132 N   0  0  0  0  0  0
    5.9046   54.8966   21.5590 C   0  0  0  0  0  0
    7.0497   55.2967   21.7650 O   0  0  0  0  0  0
    5.3404   54.8836   20.1258 C   0  0  0  0  0  0
    6.2314   55.5031   19.0011 C   0  0  2  0  0  0
    7.2595   55.2132   19.2333 H   0  0  0  0  0  0
    6.3115   57.0668   19.0981 C   0  0  0  0  0  0
    6.7044   57.6863   20.0807 O   0  0  0  0  0  0
    5.8730   57.7175   18.0071 N   0  0  0  0  0  0
    5.0818   57.1820   16.9985 C   0  0  0  0  0  0
    4.2579   58.0294   16.2557 C   0  0  0  0  0  0
    3.3854   57.4903   15.3128 C   0  0  0  0  0  0
    3.3234   56.1088   15.1293 C   0  0  0  0  0  0
    4.1511   55.2647   15.8713 C   0  0  0  0  0  0
    5.0854   55.7963   16.7761 C   0  0  0  0  0  0
    5.8806   54.9942   17.6370 N   0  0  0  0  0  0
    6.5401   53.8648   17.2422 C   0  0  0  0  0  0
    7.1046   53.1368   18.0607 O   0  0  0  0  0  0
    6.6619   53.4725   15.7515 C   0  0  0  0  0  0
    8.0039   52.8170   15.5383 N   0  3  2  0  0  0
    9.1364   53.8768   15.4731 C   0  0  0  0  0  0
    7.9804   51.7696   14.3881 C   0  0  0  0  0  0
    7.9545   52.4442   12.9921 C   0  0  0  0  0  0
    8.0605   51.4175   11.8471 C   0  0  0  0  0  0
    9.2783   50.4892   12.0231 C   0  0  0  0  0  0
    9.2809   49.7863   13.3959 C   0  0  0  0  0  0
    9.1719   50.7928   14.5571 C   0  0  0  0  0  0
    6.3687   53.5457   28.4962 H   0  0  0  0  0  0
    4.6240   53.5960   28.6304 H   0  0  0  0  0  0
    5.5614   55.1060   28.6622 H   0  0  0  0  0  0
    3.2577   53.9360   26.6312 H   0  0  0  0  0  0
    3.1214   54.0745   24.1906 H   0  0  0  0  0  0
    7.4023   54.6351   24.0145 H   0  0  0  0  0  0
    7.5039   54.4965   26.4438 H   0  0  0  0  0  0
    4.1370   54.1906   22.1965 H   0  0  0  0  0  0
    5.2028   53.8261   19.8954 H   0  0  0  0  0  0
    4.3341   55.2964   20.0800 H   0  0  0  0  0  0
    5.9174   58.7244   18.0888 H   0  0  0  0  0  0
    4.2695   59.0996   16.4230 H   0  0  0  0  0  0
    2.7384   58.1450   14.7469 H   0  0  0  0  0  0
    2.6206   55.6901   14.4239 H   0  0  0  0  0  0
    4.0496   54.1974   15.7432 H   0  0  0  0  0  0
    5.9141   52.7039   15.5542 H   0  0  0  0  0  0
    6.5400   54.2823   15.0317 H   0  0  0  0  0  0
    8.9277   54.5564   14.6469 H   0  0  0  0  0  0
    9.1419   54.4170   16.4209 H   0  0  0  0  0  0
   10.0900   53.3694   15.3393 H   0  0  0  0  0  0
    7.0826   51.1544   14.4842 H   0  0  0  0  0  0
    7.0809   53.0889   12.8872 H   0  0  0  0  0  0
    8.8029   53.1213   12.8956 H   0  0  0  0  0  0
    7.1476   50.8204   11.8059 H   0  0  0  0  0  0
    8.1263   51.9361   10.8882 H   0  0  0  0  0  0
    9.3092   49.7458   11.2258 H   0  0  0  0  0  0
   10.1984   51.0656   11.9127 H   0  0  0  0  0  0
    8.4574   49.0722   13.4501 H   0  0  0  0  0  0
   10.1979   49.2043   13.5016 H   0  0  0  0  0  0
   10.1091   51.3477   14.5757 H   0  0  0  0  0  0
    9.1335   50.2974   15.5285 H   0  0  0  0  0  0
    8.1525   52.2640   16.3765 H   0  0  0  0  0  0
  1  2  1  0  0  0
  1 35  1  0  0  0
  1 36  1  0  0  0
  1 37  1  0  0  0
  2  7  2  0  0  0
  2  3  1  0  0  0
  3  4  2  0  0  0
  3 38  1  0  0  0
  4  5  1  0  0  0
  4 39  1  0  0  0
  5  6  2  0  0  0
  5  8  1  0  0  0
  6  7  1  0  0  0
  6 40  1  0  0  0
  7 41  1  0  0  0
  8  9  1  0  0  0
  8 42  1  0  0  0
  9 10  2  0  0  0
  9 11  1  0  0  0
 11 12  1  0  0  0
 11 43  1  0  0  0
 11 44  1  0  0  0
 12 13  1  0  0  0
 12 23  1  0  0  0
 12 14  1  0  0  0
 14 15  2  0  0  0
 14 16  1  0  0  0
 16 17  1  0  0  0
 16 45  1  0  0  0
 17 22  2  0  0  0
 17 18  1  0  0  0
 18 19  2  0  0  0
 18 46  1  0  0  0
 19 20  1  0  0  0
 19 47  1  0  0  0
 20 21  2  0  0  0
 20 48  1  0  0  0
 21 22  1  0  0  0
 21 49  1  0  0  0
 22 23  1  0  0  0
 23 24  1  0  0  0
 24 25  2  0  0  0
 24 26  1  0  0  0
 26 27  1  0  0  0
 26 50  1  0  0  0
 26 51  1  0  0  0
 27 28  1  0  0  0
 27 29  1  0  0  0
 27 66  1  0  0  0
 28 52  1  0  0  0
 28 53  1  0  0  0
 28 54  1  0  0  0
 29 34  1  0  0  0
 29 30  1  0  0  0
 29 55  1  0  0  0
 30 31  1  0  0  0
 30 56  1  0  0  0
 30 57  1  0  0  0
 31 32  1  0  0  0
 31 58  1  0  0  0
 31 59  1  0  0  0
 32 33  1  0  0  0
 32 60  1  0  0  0
 32 61  1  0  0  0
 33 34  1  0  0  0
 33 62  1  0  0  0
 33 63  1  0  0  0
 34 64  1  0  0  0
 34 65  1  0  0  0
M  CHG  1  27   1
M  END
> <i_i_glide_confnum>
124

> <i_i_glide_lignum>
4909

> <i_i_glide_posenum>
222

> <i_i_glide_rotatable_bonds>
8

> <i_m_Source_File_Index>
5266

> <b_m_subgroup_collapsed>
0

> <r_i_docking_score>
-5.59536

> <r_i_glide_ecoul>
-8.67833

> <r_i_glide_eff_state_penalty>
0

> <r_i_glide_einternal>
7.61788

> <r_i_glide_emodel>
-54.7213

> <r_i_glide_energy>
-42.2553

> <r_i_glide_erotb>
0.694148

> <r_i_glide_esite>
-0.034349

> <r_i_glide_evdw>
-33.577

> <r_i_glide_gscore>
-5.59536

> <r_i_glide_hbond>
-0.32

> <r_i_glide_ligand_efficiency>
-0.169556

> <r_i_glide_ligand_efficiency_ln>
-1.24438

> <r_i_glide_ligand_efficiency_sa>
-0.543857

> <r_i_glide_lipo>
-2.22548

> <r_i_glide_metal>
0

> <r_i_glide_rewards>
-0.72908

> <s_i_glide_gridfile>
wee1_glide-grid

> <s_m_Source_File>
wee1_decoys_glide_SP.sdf

> <s_m_Source_Path>
/Users/zhangxujun/Desktop

> <s_m_entry_id>
5541

> <s_m_entry_name>
wee1_decoys_glide_SP.5266

> <s_m_subgroup_title>
wee1_decoys_glide_SP

> <s_m_subgroupid>
wee1_decoys_glide_SP


$$$$
