ZINC13432980_4268
                    3D
 Schrodinger Suite 2024-2.
 60 61  0  0  1  0            999 V2000
    4.3551   55.4937   17.1266 C   0  0  0  0  0  0
    4.8142   54.9467   18.4883 C   0  0  0  0  0  0
    5.6391   55.7156   19.3436 C   0  0  0  0  0  0
    5.9467   55.2234   20.6327 C   0  0  0  0  0  0
    5.5041   53.9553   21.0418 C   0  0  0  0  0  0
    4.7853   53.1593   20.1389 C   0  0  0  0  0  0
    4.3930   53.6696   18.8977 C   0  0  0  0  0  0
    3.3589   52.7024   17.8886 Cl  0  0  0  0  0  0
    4.4475   51.8676   20.4678 O   0  0  0  0  0  0
    5.8407   53.4176   22.4460 C   0  0  0  0  0  0
    4.8886   53.6967   23.6085 C   0  0  0  0  0  0
    3.5760   54.0389   23.6450 C   0  0  0  0  0  0
    2.7615   54.3248   22.3819 C   0  0  0  0  0  0
    2.8341   54.1973   24.9926 C   0  0  2  0  0  0
    3.1044   55.1941   25.3382 H   0  0  0  0  0  0
    3.1164   53.1338   26.0902 C   0  0  0  0  0  0
    2.8439   53.4375   27.6035 C   0  0  1  0  0  0
    3.7753   54.6240   28.0228 C   0  0  1  0  0  0
    3.4159   55.4897   27.4768 H   0  0  0  0  0  0
    3.5736   54.9584   29.5008 C   0  0  0  0  0  0
    2.1426   55.4614   29.7723 C   0  0  0  0  0  0
    1.1044   54.4345   29.3059 C   0  0  0  0  0  0
    0.1721   54.0967   30.0344 O   0  0  0  0  0  0
    1.3431   53.8689   27.8720 C   0  0  2  0  0  0
    1.1112   54.7333   27.2561 H   0  0  0  0  0  0
    0.2887   52.7735   27.5455 C   0  0  0  0  0  0
    5.2906   54.4814   27.7051 C   0  0  0  0  0  0
    3.1504   52.1861   28.4823 C   0  0  0  0  0  0
    1.4448   54.0966   24.7817 O   0  0  0  0  0  0
    6.7045   55.9574   21.5162 O   0  0  0  0  0  0
    6.1426   57.0564   18.8814 C   0  0  0  0  0  0
    6.7043   57.8959   19.5823 O   0  0  0  0  0  0
    3.5440   54.9361   16.6636 H   0  0  0  0  0  0
    3.9695   56.5081   17.2347 H   0  0  0  0  0  0
    5.1915   55.5244   16.4277 H   0  0  0  0  0  0
    4.3554   51.3480   19.6554 H   0  0  0  0  0  0
    5.9485   52.3333   22.4084 H   0  0  0  0  0  0
    6.8284   53.7671   22.7476 H   0  0  0  0  0  0
    5.3989   53.5524   24.5460 H   0  0  0  0  0  0
    2.4588   53.3918   21.9068 H   0  0  0  0  0  0
    1.8545   54.8967   22.5660 H   0  0  0  0  0  0
    3.3114   54.9266   21.6707 H   0  0  0  0  0  0
    2.6057   52.2160   25.8049 H   0  0  0  0  0  0
    4.1683   52.8963   26.0448 H   0  0  0  0  0  0
    4.2611   55.7701   29.6816 H   0  0  0  0  0  0
    3.9048   54.1639   30.1700 H   0  0  0  0  0  0
    1.9544   56.3827   29.2203 H   0  0  0  0  0  0
    1.9804   55.6794   30.8281 H   0  0  0  0  0  0
   -0.7231   53.1813   27.5570 H   0  0  0  0  0  0
    0.4366   52.3238   26.5651 H   0  0  0  0  0  0
    0.3084   51.9588   28.2717 H   0  0  0  0  0  0
    5.7149   53.5569   28.0955 H   0  0  0  0  0  0
    5.4922   54.5222   26.6363 H   0  0  0  0  0  0
    5.8704   55.2963   28.1389 H   0  0  0  0  0  0
    2.8105   52.2804   29.5131 H   0  0  0  0  0  0
    2.6651   51.2968   28.0822 H   0  0  0  0  0  0
    4.2173   51.9787   28.5235 H   0  0  0  0  0  0
    1.0408   53.8082   25.6032 H   0  0  0  0  0  0
    6.8478   55.5061   22.3497 H   0  0  0  0  0  0
    5.9847   57.2782   17.8273 H   0  0  0  0  0  0
  1  2  1  0  0  0
  1 33  1  0  0  0
  1 34  1  0  0  0
  1 35  1  0  0  0
  2  7  2  0  0  0
  2  3  1  0  0  0
  3  4  2  0  0  0
  3 31  1  0  0  0
  4  5  1  0  0  0
  4 30  1  0  0  0
  5  6  2  0  0  0
  5 10  1  0  0  0
  6  7  1  0  0  0
  6  9  1  0  0  0
  7  8  1  0  0  0
  9 36  1  0  0  0
 10 11  1  0  0  0
 10 37  1  0  0  0
 10 38  1  0  0  0
 11 12  2  0  0  0
 11 39  1  0  0  0
 12 13  1  0  0  0
 12 14  1  0  0  0
 13 40  1  0  0  0
 13 41  1  0  0  0
 13 42  1  0  0  0
 14 15  1  0  0  0
 14 16  1  0  0  0
 14 29  1  0  0  0
 16 17  1  0  0  0
 16 43  1  0  0  0
 16 44  1  0  0  0
 17 24  1  0  0  0
 17 18  1  0  0  0
 17 28  1  0  0  0
 18 19  1  0  0  0
 18 20  1  0  0  0
 18 27  1  0  0  0
 20 21  1  0  0  0
 20 45  1  0  0  0
 20 46  1  0  0  0
 21 22  1  0  0  0
 21 47  1  0  0  0
 21 48  1  0  0  0
 22 23  2  0  0  0
 22 24  1  0  0  0
 24 25  1  0  0  0
 24 26  1  0  0  0
 26 49  1  0  0  0
 26 50  1  0  0  0
 26 51  1  0  0  0
 27 52  1  0  0  0
 27 53  1  0  0  0
 27 54  1  0  0  0
 28 55  1  0  0  0
 28 56  1  0  0  0
 28 57  1  0  0  0
 29 58  1  0  0  0
 30 59  1  0  0  0
 31 32  2  0  0  0
 31 60  1  0  0  0
M  END
> <i_i_glide_confnum>
1

> <i_i_glide_lignum>
4269

> <i_i_glide_posenum>
183

> <i_i_glide_rotatable_bonds>
9

> <i_m_Source_File_Index>
1441

> <b_m_subgroup_collapsed>
0

> <r_i_docking_score>
-5.80228

> <r_i_glide_ecoul>
-5.39454

> <r_i_glide_eff_state_penalty>
0

> <r_i_glide_einternal>
4.14693

> <r_i_glide_emodel>
-49.2801

> <r_i_glide_energy>
-36.2088

> <r_i_glide_erotb>
0.553862

> <r_i_glide_esite>
0

> <r_i_glide_evdw>
-30.8143

> <r_i_glide_gscore>
-5.80228

> <r_i_glide_hbond>
-0.408967

> <r_i_glide_ligand_efficiency>
-0.200079

> <r_i_glide_ligand_efficiency_ln>
-1.32858

> <r_i_glide_ligand_efficiency_sa>
-0.614705

> <r_i_glide_lipo>
-2.72942

> <r_i_glide_metal>
0

> <r_i_glide_rewards>
-0.867858

> <s_i_glide_gridfile>
wee1_glide-grid

> <s_m_Source_File>
wee1_decoys_glide_SP.sdf

> <s_m_Source_Path>
/Users/zhangxujun/Desktop

> <s_m_entry_id>
1716

> <s_m_entry_name>
wee1_decoys_glide_SP.1441

> <s_m_subgroup_title>
wee1_decoys_glide_SP

> <s_m_subgroupid>
wee1_decoys_glide_SP


$$$$
