ZINC58849419_1058
                    3D
 Schrodinger Suite 2024-2.
 67 71  0  0  1  0            999 V2000
    9.6847   57.8651   18.4824 C   0  0  0  0  0  0
    8.6273   56.9448   18.7303 O   0  0  0  0  0  0
    7.3856   57.1831   18.1771 C   0  0  0  0  0  0
    7.0256   58.3569   17.5048 C   0  0  0  0  0  0
    5.7487   58.4986   16.9791 C   0  0  0  0  0  0
    4.7893   57.4883   17.1101 C   0  0  0  0  0  0
    5.1535   56.2944   17.7495 C   0  0  0  0  0  0
    6.4390   56.1713   18.2960 C   0  0  0  0  0  0
    4.2046   55.2589   17.7629 N   0  0  0  0  0  0
    4.5159   53.5504   18.1014 S   0  0  0  0  0  0
    3.4993   52.8220   17.3388 O   0  0  0  0  0  0
    5.9477   53.2968   17.9070 O   0  0  0  0  0  0
    4.1286   53.3715   19.8366 C   0  0  0  0  0  0
    4.9806   53.8845   20.8122 C   0  0  0  0  0  0
    4.6067   53.8363   22.1497 C   0  0  0  0  0  0
    3.3912   53.2584   22.5215 C   0  0  0  0  0  0
    2.5205   52.7276   21.5575 C   0  0  0  0  0  0
    2.9236   52.7833   20.2167 C   0  0  0  0  0  0
    1.1645   52.1333   21.9358 C   0  0  1  0  0  0
    0.4079   52.7402   21.4369 H   0  0  0  0  0  0
    1.0424   50.6765   21.5279 C   0  0  0  0  0  0
    0.9851   49.8590   22.5906 C   0  0  0  0  0  0
    1.0046   50.6247   23.8899 C   0  0  0  0  0  0
    0.8890   52.0935   23.4543 C   0  0  1  0  0  0
   -0.1694   52.3407   23.5553 H   0  0  0  0  0  0
    1.6525   53.1531   24.3154 C   0  0  2  0  0  0
    1.1928   54.1232   24.1216 H   0  0  0  0  0  0
    3.0422   53.2971   23.8751 N   0  0  0  0  0  0
    1.5044   52.9712   25.8433 C   0  0  0  0  0  0
    0.3142   52.4967   26.4035 C   0  0  0  0  0  0
    0.1813   52.3430   27.7794 C   0  0  0  0  0  0
    1.2439   52.6521   28.6432 C   0  0  0  0  0  0
    2.4481   53.1277   28.1068 C   0  0  0  0  0  0
    2.5541   53.2972   26.7168 C   0  0  0  0  0  0
    3.4818   53.4132   28.9881 O   0  0  0  0  0  0
    4.7390   53.8466   28.4689 C   0  0  0  0  0  0
    1.1740   52.5100   30.0183 O   0  0  0  0  0  0
   -0.0701   52.1693   30.6182 C   0  0  0  0  0  0
    3.4920   57.6100   16.6373 O   0  0  0  0  0  0
    3.0033   58.8966   16.2769 C   0  0  0  0  0  0
   10.5895   57.5136   18.9778 H   0  0  0  0  0  0
    9.4610   58.8601   18.8695 H   0  0  0  0  0  0
    9.9014   57.9423   17.4157 H   0  0  0  0  0  0
    7.7145   59.1774   17.3860 H   0  0  0  0  0  0
    5.5114   59.4281   16.4799 H   0  0  0  0  0  0
    6.7550   55.2764   18.8026 H   0  0  0  0  0  0
    3.2774   55.4945   17.4421 H   0  0  0  0  0  0
    5.9158   54.3445   20.5414 H   0  0  0  0  0  0
    5.2643   54.2567   22.8966 H   0  0  0  0  0  0
    2.2560   52.3980   19.4562 H   0  0  0  0  0  0
    1.0405   50.3695   20.4925 H   0  0  0  0  0  0
    0.9258   48.7800   22.5662 H   0  0  0  0  0  0
    1.9044   50.4178   24.4625 H   0  0  0  0  0  0
    0.1596   50.3270   24.5129 H   0  0  0  0  0  0
    3.6392   53.7890   24.5216 H   0  0  0  0  0  0
   -0.5307   52.2505   25.7815 H   0  0  0  0  0  0
   -0.7609   51.9737   28.1532 H   0  0  0  0  0  0
    3.4734   53.6785   26.3087 H   0  0  0  0  0  0
    5.4461   53.9994   29.2816 H   0  0  0  0  0  0
    5.1739   53.1008   27.8004 H   0  0  0  0  0  0
    4.6477   54.7975   27.9411 H   0  0  0  0  0  0
    0.0859   52.0183   31.6835 H   0  0  0  0  0  0
   -0.7972   52.9714   30.4945 H   0  0  0  0  0  0
   -0.4963   51.2517   30.2150 H   0  0  0  0  0  0
    1.9437   58.8284   16.0332 H   0  0  0  0  0  0
    3.1045   59.6049   17.1003 H   0  0  0  0  0  0
    3.5177   59.2935   15.4014 H   0  0  0  0  0  0
  1  2  1  0  0  0
  1 41  1  0  0  0
  1 42  1  0  0  0
  1 43  1  0  0  0
  2  3  1  0  0  0
  3  8  2  0  0  0
  3  4  1  0  0  0
  4  5  2  0  0  0
  4 44  1  0  0  0
  5  6  1  0  0  0
  5 45  1  0  0  0
  6  7  2  0  0  0
  6 39  1  0  0  0
  7  8  1  0  0  0
  7  9  1  0  0  0
  8 46  1  0  0  0
  9 10  1  0  0  0
  9 47  1  0  0  0
 10 11  2  0  0  0
 10 12  2  0  0  0
 10 13  1  0  0  0
 13 18  2  0  0  0
 13 14  1  0  0  0
 14 15  2  0  0  0
 14 48  1  0  0  0
 15 16  1  0  0  0
 15 49  1  0  0  0
 16 28  1  0  0  0
 16 17  2  0  0  0
 17 18  1  0  0  0
 17 19  1  0  0  0
 18 50  1  0  0  0
 19 20  1  0  0  0
 19 24  1  0  0  0
 19 21  1  0  0  0
 21 22  2  0  0  0
 21 51  1  0  0  0
 22 23  1  0  0  0
 22 52  1  0  0  0
 23 24  1  0  0  0
 23 53  1  0  0  0
 23 54  1  0  0  0
 24 25  1  0  0  0
 24 26  1  0  0  0
 26 27  1  0  0  0
 26 28  1  0  0  0
 26 29  1  0  0  0
 28 55  1  0  0  0
 29 34  2  0  0  0
 29 30  1  0  0  0
 30 31  2  0  0  0
 30 56  1  0  0  0
 31 32  1  0  0  0
 31 57  1  0  0  0
 32 33  2  0  0  0
 32 37  1  0  0  0
 33 34  1  0  0  0
 33 35  1  0  0  0
 34 58  1  0  0  0
 35 36  1  0  0  0
 36 59  1  0  0  0
 36 60  1  0  0  0
 36 61  1  0  0  0
 37 38  1  0  0  0
 38 62  1  0  0  0
 38 63  1  0  0  0
 38 64  1  0  0  0
 39 40  1  0  0  0
 40 65  1  0  0  0
 40 66  1  0  0  0
 40 67  1  0  0  0
M  END
> <i_i_glide_confnum>
7

> <i_i_glide_lignum>
1059

> <i_i_glide_posenum>
140

> <i_i_glide_rotatable_bonds>
8

> <i_m_Source_File_Index>
862

> <b_m_subgroup_collapsed>
0

> <r_i_docking_score>
-4.26888

> <r_i_glide_ecoul>
-2.85391

> <r_i_glide_eff_state_penalty>
0

> <r_i_glide_einternal>
8.0651

> <r_i_glide_emodel>
-50.4847

> <r_i_glide_energy>
-43.4797

> <r_i_glide_erotb>
0.30118

> <r_i_glide_esite>
-0.185995

> <r_i_glide_evdw>
-40.6258

> <r_i_glide_gscore>
-4.26888

> <r_i_glide_hbond>
0

> <r_i_glide_ligand_efficiency>
-0.115375

> <r_i_glide_ligand_efficiency_ln>
-0.92582

> <r_i_glide_ligand_efficiency_sa>
-0.384456

> <r_i_glide_lipo>
-2.0696

> <r_i_glide_metal>
0

> <r_i_glide_rewards>
0.144909

> <s_i_glide_gridfile>
wee1_glide-grid

> <s_m_Source_File>
wee1_decoys_glide_SP.sdf

> <s_m_Source_Path>
/Users/zhangxujun/Desktop

> <s_m_entry_id>
1137

> <s_m_entry_name>
wee1_decoys_glide_SP.862

> <s_m_subgroup_title>
wee1_decoys_glide_SP

> <s_m_subgroupid>
wee1_decoys_glide_SP


$$$$
