@<TRIPOS>MOLECULE
ZINC67322466_2843
45   47    1
SMALL
USER_CHARGES


@<TRIPOS>ATOM
      1 C1          1.8661   53.0693   13.3032 C.3       1 UNK         0.0000 
      2 C2          2.4476   53.1482   14.7027 C.ar      1 UNK         0.0000 
      3 C3          1.6100   53.1002   15.8196 C.ar      1 UNK         0.0000 
      4 C4          2.1492   53.1566   17.1044 C.ar      1 UNK         0.0000 
      5 C5          3.5289   53.2754   17.2817 C.ar      1 UNK         0.0000 
      6 C6          4.3798   53.2969   16.1628 C.ar      1 UNK         0.0000 
      7 C7          3.8302   53.2391   14.8809 C.ar      1 UNK         0.0000 
      8 Br8         6.2809   53.3530   16.3337 Br        1 UNK         0.0000 
      9 N9          4.0142   53.2968   18.5914 N.am      1 UNK         0.0000 
     10 C10         4.6046   54.3609   19.1766 C.2       1 UNK         0.0000 
     11 O11         4.7497   55.4536   18.6237 O.2       1 UNK         0.0000 
     12 C12         5.0767   54.1262   20.5285 C.ar      1 UNK         0.0000 
     13 C13         5.9021   54.9833   21.2806 C.ar      1 UNK         0.0000 
     14 N14         6.0647   54.3189   22.4816 N.pl3     1 UNK         0.0000 
     15 N15         5.4009   53.1615   22.4816 N.2       1 UNK         0.0000 
     16 N16         4.7682   53.0657   21.2648 N.2       1 UNK         0.0000 
     17 C17         6.9026   54.6622   23.6351 C.3       1 UNK         0.0000 
     18 C18         6.2003   54.8958   24.9826 C.2       1 UNK         0.0000 
     19 O19         6.7088   55.6968   25.7617 O.2       1 UNK         0.0000 
     20 N20         5.0803   54.1933   25.2517 N.am      1 UNK         0.0000 
     21 C21         4.3326   54.1545   26.4420 C.ar      1 UNK         0.0000 
     22 C22         4.8505   54.4937   27.7029 C.ar      1 UNK         0.0000 
     23 C23         4.0388   54.4209   28.8307 C.ar      1 UNK         0.0000 
     24 C24         2.7179   53.9976   28.7056 C.ar      1 UNK         0.0000 
     25 C25         2.2050   53.6327   27.4630 C.ar      1 UNK         0.0000 
     26 C26         3.0143   53.7060   26.3324 C.ar      1 UNK         0.0000 
     27 Cl27        1.7081   53.9190   30.1011 Cl        1 UNK         0.0000 
     28 C28         6.5490   56.3228   20.9638 C.3       1 UNK         0.0000 
     29 H29         2.4953   52.4495   12.6638 H         1 UNK         0.0000 
     30 H30         0.8749   52.6145   13.3058 H         1 UNK         0.0000 
     31 H31         1.8028   54.0625   12.8586 H         1 UNK         0.0000 
     32 H32         0.5406   53.0167   15.6961 H         1 UNK         0.0000 
     33 H33         1.4924   53.1197   17.9612 H         1 UNK         0.0000 
     34 H34         4.4862   53.2537   14.0232 H         1 UNK         0.0000 
     35 H35         3.9225   52.4395   19.1176 H         1 UNK         0.0000 
     36 H36         7.5043   55.5376   23.3969 H         1 UNK         0.0000 
     37 H37         7.6029   53.8381   23.7745 H         1 UNK         0.0000 
     38 H38         4.7136   53.6346   24.4952 H         1 UNK         0.0000 
     39 H39         5.8742   54.8100   27.8341 H         1 UNK         0.0000 
     40 H40         4.4398   54.6925   29.7958 H         1 UNK         0.0000 
     41 H41         1.1827   53.2941   27.3747 H         1 UNK         0.0000 
     42 H42         2.6057   53.4216   25.3731 H         1 UNK         0.0000 
     43 H43         5.9133   57.1498   21.2806 H         1 UNK         0.0000 
     44 H44         7.5267   56.4519   21.4246 H         1 UNK         0.0000 
     45 H45         6.7152   56.4496   19.8943 H         1 UNK         0.0000 
@<TRIPOS>BOND
     1    1    2 1    
     2    1   29 1    
     3    1   30 1    
     4    1   31 1    
     5    2    7 ar   
     6    2    3 ar   
     7    3    4 ar   
     8    3   32 1    
     9    4    5 ar   
    10    4   33 1    
    11    5    6 ar   
    12    5    9 1    
    13    6    7 ar   
    14    6    8 1    
    15    7   34 1    
    16    9   10 am   BACKBONE|DICT|INTERRES
    17    9   35 1    
    18   10   11 2    
    19   10   12 1    
    20   12   16 ar   
    21   12   13 ar   
    22   13   14 ar   
    23   13   28 1    
    24   14   15 ar   
    25   14   17 1    
    26   15   16 ar   
    27   17   18 1    
    28   17   36 1    
    29   17   37 1    
    30   18   19 2    
    31   18   20 am   BACKBONE|DICT|INTERRES
    32   20   21 1    
    33   20   38 1    
    34   21   26 ar   
    35   21   22 ar   
    36   22   23 ar   
    37   22   39 1    
    38   23   24 ar   
    39   23   40 1    
    40   24   25 ar   
    41   24   27 1    
    42   25   26 ar   
    43   25   41 1    
    44   26   42 1    
    45   28   43 1    
    46   28   44 1    
    47   28   45 1    
@<TRIPOS>SUBSTRUCTURE
     1 UNK         1 GROUP             0       ****    0 ROOT    
