@<TRIPOS>MOLECULE
ZINC64417224_300
58   61    1
SMALL
USER_CHARGES


@<TRIPOS>ATOM
      1 C1         -1.4023   45.4555   18.3880 C.3       1 UNK         0.0000 
      2 C2         -0.7104   46.8047   18.4308 C.ar      1 UNK         0.0000 
      3 C3          0.6824   46.8732   18.4388 C.ar      1 UNK         0.0000 
      4 C4          1.3348   48.1057   18.4734 C.ar      1 UNK         0.0000 
      5 C5          0.5992   49.3011   18.5216 C.ar      1 UNK         0.0000 
      6 C6         -0.8034   49.2158   18.5221 C.ar      1 UNK         0.0000 
      7 C7         -1.4544   47.9838   18.4655 C.ar      1 UNK         0.0000 
      8 O8         -1.6140   50.3355   18.5313 O.3       1 UNK         0.0000 
      9 C9         -1.2130   51.4998   19.1296 C.2       1 UNK         0.0000 
     10 O10        -2.0776   52.3669   19.2767 O.2       1 UNK         0.0000 
     11 C11         0.2824   51.5915   19.5491 C.3       1 UNK         0.0000 
     12 H12         0.5512   52.6372   19.3957 H         1 UNK         0.0000 
     13 C13         1.2107   50.6951   18.6568 C.3       1 UNK         0.0000 
     14 H14         2.1757   50.5972   19.1569 H         1 UNK         0.0000 
     15 C15         1.4841   51.3152   17.2735 C.3       1 UNK         0.0000 
     16 C16         0.3835   51.2721   21.0762 C.3       1 UNK         0.0000 
     17 C17         1.6913   51.6455   21.7934 C.2       1 UNK         0.0000 
     18 O18         1.9048   51.1736   22.9086 O.2       1 UNK         0.0000 
     19 N19         2.5430   52.4994   21.1952 N.am      1 UNK         0.0000 
     20 C20         3.8042   52.9696   21.7707 C.3       1 UNK         0.0000 
     21 C21         3.6023   53.9668   22.9362 C.3       1 UNK         0.0000 
     22 C22         4.8161   54.2040   23.8261 C.2       1 UNK         0.0000 
     23 C23         4.9244   54.2543   25.1678 C.2       1 UNK         0.0000 
     24 C24         3.9035   54.0970   26.2169 C.2       1 UNK         0.0000 
     25 C25         4.2228   54.1686   27.5352 C.2       1 UNK         0.0000 
     26 C26         5.6248   54.4093   27.8514 C.2       1 UNK         0.0000 
     27 C27         6.5826   54.5628   26.9015 C.2       1 UNK         0.0000 
     28 C28         6.2504   54.4944   25.5429 C.2       1 UNK         0.0000 
     29 N29         7.0119   54.6137   24.4792 N.pl3     1 UNK         0.0000 
     30 C30         6.2055   54.4170   23.2644 C.3       1 UNK         0.0000 
     31 O31         3.3510   54.0339   28.5760 O.3       1 UNK         0.0000 
     32 C32         1.9768   53.7620   28.3061 C.3       1 UNK         0.0000 
     33 O33         2.7043   48.0967   18.4820 O.3       1 UNK         0.0000 
     34 H34        -2.4747   45.5394   18.5703 H         1 UNK         0.0000 
     35 H35        -1.2428   44.9786   17.4193 H         1 UNK         0.0000 
     36 H36        -0.9884   44.7980   19.1519 H         1 UNK         0.0000 
     37 H37         1.2659   45.9664   18.4081 H         1 UNK         0.0000 
     38 H38        -2.5335   47.9494   18.4540 H         1 UNK         0.0000 
     39 H39         2.1729   50.6990   16.6945 H         1 UNK         0.0000 
     40 H40         0.5703   51.4218   16.6892 H         1 UNK         0.0000 
     41 H41         1.9372   52.3025   17.3688 H         1 UNK         0.0000 
     42 H42        -0.4052   51.7841   21.6311 H         1 UNK         0.0000 
     43 H43         0.2179   50.2056   21.2391 H         1 UNK         0.0000 
     44 H44         2.2955   52.8688   20.2894 H         1 UNK         0.0000 
     45 H45         4.3782   52.0976   22.0887 H         1 UNK         0.0000 
     46 H46         4.4098   53.4294   20.9878 H         1 UNK         0.0000 
     47 H47         3.2769   54.9229   22.5283 H         1 UNK         0.0000 
     48 H48         2.7910   53.6246   23.5795 H         1 UNK         0.0000 
     49 H49         2.8781   53.9156   25.9344 H         1 UNK         0.0000 
     50 H50         5.9131   54.4692   28.8913 H         1 UNK         0.0000 
     51 H51         7.5943   54.7281   27.2349 H         1 UNK         0.0000 
     52 H52         6.5965   53.5359   22.7636 H         1 UNK         0.0000 
     53 H53         6.3121   55.2962   22.6287 H         1 UNK         0.0000 
     54 H54         1.4358   53.6794   29.2486 H         1 UNK         0.0000 
     55 H55         1.5108   54.5648   27.7311 H         1 UNK         0.0000 
     56 H56         1.8516   52.8169   27.7753 H         1 UNK         0.0000 
     57 H57         3.1470   48.6893   17.8433 H         1 UNK         0.0000 
     58 H58         8.0180   54.7909   24.4609 H         1 UNK         0.0000 
@<TRIPOS>BOND
     1    1    2 1    
     2    1   34 1    
     3    1   35 1    
     4    1   36 1    
     5    2    7 ar   
     6    2    3 ar   
     7    3    4 ar   
     8    3   37 1    
     9    4    5 ar   
    10    4   33 1    
    11    5   13 1    
    12    5    6 ar   
    13    6    7 ar   
    14    6    8 1    
    15    7   38 1    
    16    8    9 1    
    17    9   10 2    
    18    9   11 1    
    19   11   12 1    
    20   11   13 1    
    21   11   16 1    
    22   13   14 1    
    23   13   15 1    
    24   15   39 1    
    25   15   40 1    
    26   15   41 1    
    27   16   17 1    
    28   16   42 1    
    29   16   43 1    
    30   17   18 2    
    31   17   19 am   BACKBONE|DICT|INTERRES
    32   19   20 1    
    33   19   44 1    
    34   20   21 1    
    35   20   45 1    
    36   20   46 1    
    37   21   22 1    
    38   21   47 1    
    39   21   48 1    
    40   22   30 1    
    41   22   23 2    
    42   23   28 1    
    43   23   24 1    
    44   24   25 2    
    45   24   49 1    
    46   25   26 1    
    47   25   31 1    
    48   26   27 2    
    49   26   50 1    
    50   27   28 1    
    51   27   51 1    
    52   28   29 2    
    53   29   30 1    
    54   29   58 1    
    55   30   52 1    
    56   30   53 1    
    57   31   32 1    
    58   32   54 1    
    59   32   55 1    
    60   32   56 1    
    61   33   57 1    
@<TRIPOS>SUBSTRUCTURE
     1 UNK         1 GROUP             0       ****    0 ROOT    
