ZINC39836232_4143
                    3D
 Schrodinger Suite 2024-2.
 69 72  0  0  1  0            999 V2000
    7.5578   56.4428   16.4384 C   0  0  0  0  0  0
    6.7145   55.9109   17.6120 C   0  0  1  0  0  0
    5.8442   56.5643   17.6898 H   0  0  0  0  0  0
    6.2789   54.4550   17.3766 C   0  0  0  0  0  0
    5.2440   53.9788   18.4198 C   0  0  0  0  0  0
    5.6671   54.3925   19.8451 C   0  0  0  0  0  0
    6.7222   55.3068   20.0302 C   0  0  0  0  0  0
    7.1016   55.5707   21.6836 S   0  0  0  0  0  0
    5.8218   54.5066   22.1887 C   0  0  0  0  0  0
    5.1224   53.9359   21.0929 C   0  0  0  0  0  0
    3.9643   53.0468   21.2724 C   0  0  0  0  0  0
    3.4384   52.8966   22.3775 O   0  0  0  0  0  0
    3.5218   52.4135   20.1695 N   0  0  0  0  0  0
    2.4020   51.4755   20.0165 C   0  0  2  0  0  0
    2.2980   51.2150   18.9596 H   0  0  0  0  0  0
    1.0442   52.1076   20.4194 C   0  0  0  0  0  0
   -0.0203   51.0111   20.4840 C   0  0  0  0  0  0
    0.8815   49.5617   21.2443 S   0  0  0  0  0  0
    0.7277   49.5859   22.7019 O   0  0  0  0  0  0
    0.5559   48.3494   20.4826 O   0  0  0  0  0  0
    2.6002   50.1596   20.7990 C   0  0  0  0  0  0
    5.5433   54.2844   23.5376 N   0  0  0  0  0  0
    6.0499   54.8610   24.6529 C   0  0  0  0  0  0
    6.9613   55.6864   24.6916 O   0  0  0  0  0  0
    5.3932   54.4499   25.8694 C   0  0  0  0  0  0
    4.0553   54.2806   25.9547 C   0  0  0  0  0  0
    3.2717   53.8922   27.1378 C   0  0  0  0  0  0
    3.8315   53.7319   28.4109 C   0  0  0  0  0  0
    3.0203   53.3875   29.4911 C   0  0  0  0  0  0
    1.6364   53.2122   29.3270 C   0  0  0  0  0  0
    1.0974   53.3664   28.0439 C   0  0  0  0  0  0
    1.9042   53.6913   26.9642 C   0  0  0  0  0  0
    0.7130   52.8365   30.5129 C   0  0  0  0  0  0
    1.4702   52.1011   31.6424 C   0  0  0  0  0  0
   -0.4394   51.8995   30.0490 C   0  0  0  0  0  0
    0.1197   54.1301   31.1071 C   0  0  0  0  0  0
    7.5229   55.9861   18.9225 C   0  0  0  0  0  0
    8.4645   55.8549   16.2934 H   0  0  0  0  0  0
    6.9944   56.4148   15.5067 H   0  0  0  0  0  0
    7.8584   57.4774   16.6044 H   0  0  0  0  0  0
    5.8362   54.3609   16.3839 H   0  0  0  0  0  0
    7.1504   53.7990   17.3411 H   0  0  0  0  0  0
    5.1722   52.8972   18.3140 H   0  0  0  0  0  0
    4.2619   54.3943   18.1854 H   0  0  0  0  0  0
    4.0584   52.5623   19.3285 H   0  0  0  0  0  0
    1.1133   52.5969   21.3925 H   0  0  0  0  0  0
    0.7655   52.9007   19.7235 H   0  0  0  0  0  0
   -0.9470   51.2120   21.0192 H   0  0  0  0  0  0
   -0.2704   50.7281   19.4621 H   0  0  0  0  0  0
    3.1047   49.3758   20.2395 H   0  0  0  0  0  0
    3.0867   50.3262   21.7597 H   0  0  0  0  0  0
    4.7929   53.6248   23.6846 H   0  0  0  0  0  0
    6.0448   54.3111   26.7196 H   0  0  0  0  0  0
    3.4582   54.4575   25.0668 H   0  0  0  0  0  0
    4.8885   53.8743   28.5757 H   0  0  0  0  0  0
    3.4875   53.2764   30.4550 H   0  0  0  0  0  0
    0.0428   53.2386   27.8610 H   0  0  0  0  0  0
    1.4552   53.7961   25.9869 H   0  0  0  0  0  0
    0.7877   51.6960   32.3929 H   0  0  0  0  0  0
    2.1448   52.7559   32.1785 H   0  0  0  0  0  0
    2.0752   51.2969   31.2456 H   0  0  0  0  0  0
   -1.1802   52.4184   29.4431 H   0  0  0  0  0  0
   -0.0648   51.0646   29.4557 H   0  0  0  0  0  0
   -0.9931   51.4678   30.8815 H   0  0  0  0  0  0
   -0.4963   54.6509   30.3770 H   0  0  0  0  0  0
   -0.4961   53.9206   31.9834 H   0  0  0  0  0  0
    0.8972   54.8286   31.4146 H   0  0  0  0  0  0
    7.7401   57.0240   19.1753 H   0  0  0  0  0  0
    8.4825   55.4804   18.8104 H   0  0  0  0  0  0
  1  2  1  0  0  0
  1 38  1  0  0  0
  1 39  1  0  0  0
  1 40  1  0  0  0
  2  3  1  0  0  0
  2 37  1  0  0  0
  2  4  1  0  0  0
  4  5  1  0  0  0
  4 41  1  0  0  0
  4 42  1  0  0  0
  5  6  1  0  0  0
  5 43  1  0  0  0
  5 44  1  0  0  0
  6 10  1  0  0  0
  6  7  2  0  0  0
  7  8  1  0  0  0
  7 37  1  0  0  0
  8  9  1  0  0  0
  9 10  2  0  0  0
  9 22  1  0  0  0
 10 11  1  0  0  0
 11 12  2  0  0  0
 11 13  1  0  0  0
 13 14  1  0  0  0
 13 45  1  0  0  0
 14 15  1  0  0  0
 14 21  1  0  0  0
 14 16  1  0  0  0
 16 17  1  0  0  0
 16 46  1  0  0  0
 16 47  1  0  0  0
 17 18  1  0  0  0
 17 48  1  0  0  0
 17 49  1  0  0  0
 18 19  2  0  0  0
 18 20  2  0  0  0
 18 21  1  0  0  0
 21 50  1  0  0  0
 21 51  1  0  0  0
 22 23  1  0  0  0
 22 52  1  0  0  0
 23 24  2  0  0  0
 23 25  1  0  0  0
 25 26  2  0  0  0
 25 53  1  0  0  0
 26 27  1  0  0  0
 26 54  1  0  0  0
 27 32  2  0  0  0
 27 28  1  0  0  0
 28 29  2  0  0  0
 28 55  1  0  0  0
 29 30  1  0  0  0
 29 56  1  0  0  0
 30 31  2  0  0  0
 30 33  1  0  0  0
 31 32  1  0  0  0
 31 57  1  0  0  0
 32 58  1  0  0  0
 33 34  1  0  0  0
 33 35  1  0  0  0
 33 36  1  0  0  0
 34 59  1  0  0  0
 34 60  1  0  0  0
 34 61  1  0  0  0
 35 62  1  0  0  0
 35 63  1  0  0  0
 35 64  1  0  0  0
 36 65  1  0  0  0
 36 66  1  0  0  0
 36 67  1  0  0  0
 37 68  1  0  0  0
 37 69  1  0  0  0
M  END
> <i_i_glide_confnum>
401

> <i_i_glide_lignum>
4144

> <i_i_glide_posenum>
311

> <i_i_glide_rotatable_bonds>
8

> <i_m_Source_File_Index>
3497

> <b_m_subgroup_collapsed>
0

> <r_i_docking_score>
-5.42038

> <r_i_glide_ecoul>
-1.90889

> <r_i_glide_eff_state_penalty>
0

> <r_i_glide_einternal>
8.14811

> <r_i_glide_emodel>
-65.5108

> <r_i_glide_energy>
-51.0109

> <r_i_glide_erotb>
0.542056

> <r_i_glide_esite>
-0.0175323

> <r_i_glide_evdw>
-49.102

> <r_i_glide_gscore>
-5.42038

> <r_i_glide_hbond>
-0.17459

> <r_i_glide_ligand_efficiency>
-0.154868

> <r_i_glide_ligand_efficiency_ln>
-1.18989

> <r_i_glide_ligand_efficiency_sa>
-0.506583

> <r_i_glide_lipo>
-2.3611

> <r_i_glide_metal>
0

> <r_i_glide_rewards>
-0.66778

> <s_i_glide_gridfile>
wee1_glide-grid

> <s_m_Source_File>
wee1_decoys_glide_SP.sdf

> <s_m_Source_Path>
/Users/zhangxujun/Desktop

> <s_m_entry_id>
3772

> <s_m_entry_name>
wee1_decoys_glide_SP.3497

> <s_m_subgroup_title>
wee1_decoys_glide_SP

> <s_m_subgroupid>
wee1_decoys_glide_SP


$$$$
