@<TRIPOS>MOLECULE
ZINC59384736_4458
51   53    1
SMALL
USER_CHARGES


@<TRIPOS>ATOM
      1 C1          6.3666   53.5063   18.5593 C.3       1 UNK         0.0000 
      2 C2          5.3528   53.5698   19.7008 C.2       1 UNK         0.0000 
      3 C3          5.2569   54.5282   20.6701 C.2       1 UNK         0.0000 
      4 C4          4.2071   54.3621   21.8242 C.3       1 UNK         0.0000 
      5 H5          3.5867   55.2585   21.8075 H         1 UNK         0.0000 
      6 N6          3.3025   53.2348   21.4928 N.pl3     1 UNK         0.0000 
      7 C7          3.4906   52.2785   20.5425 C.2       1 UNK         0.0000 
      8 S8          2.5208   50.9417   20.4630 S.2       1 UNK         0.0000 
      9 N9          4.5226   52.4967   19.6841 N.pl3     1 UNK         0.0000 
     10 C10         4.6706   54.2821   23.2875 C.ar      1 UNK         0.0000 
     11 C11         5.9974   54.0562   23.6595 C.ar      1 UNK         0.0000 
     12 C12         6.3661   54.0967   25.0024 C.ar      1 UNK         0.0000 
     13 C13         5.4180   54.3234   26.0141 C.ar      1 UNK         0.0000 
     14 C14         4.0826   54.5058   25.6267 C.ar      1 UNK         0.0000 
     15 C15         3.7169   54.4951   24.2856 C.ar      1 UNK         0.0000 
     16 N16         5.7964   54.3829   27.3847 N.pl3     1 UNK         0.0000 
     17 C17         4.7824   54.4748   28.4364 C.3       1 UNK         0.0000 
     18 C18         7.1042   53.8824   27.8011 C.3       1 UNK         0.0000 
     19 C19         6.0901   55.7255   20.6794 C.2       1 UNK         0.0000 
     20 O20         6.7045   56.0958   21.6816 O.2       1 UNK         0.0000 
     21 N21         6.1570   56.3788   19.4993 N.am      1 UNK         0.0000 
     22 N22         7.1054   57.3048   19.2575 N.2       1 UNK         0.0000 
     23 C23         7.1160   57.7368   18.0612 C.2       1 UNK         0.0000 
     24 C24         8.1769   58.6116   17.5463 C.ar      1 UNK         0.0000 
     25 C25         7.9031   59.4786   16.4828 C.ar      1 UNK         0.0000 
     26 C26         8.8925   60.3193   15.9791 C.ar      1 UNK         0.0000 
     27 C27        10.1699   60.2899   16.5298 C.ar      1 UNK         0.0000 
     28 C28        10.4657   59.4244   17.5783 C.ar      1 UNK         0.0000 
     29 C29         9.4739   58.5871   18.0822 C.ar      1 UNK         0.0000 
     30 F30        11.1290   61.1113   16.0474 F         1 UNK         0.0000 
     31 H31         7.2620   54.0972   18.7531 H         1 UNK         0.0000 
     32 H32         6.7042   52.4837   18.3879 H         1 UNK         0.0000 
     33 H33         5.9123   53.8590   17.6327 H         1 UNK         0.0000 
     34 H34         2.4837   53.0843   22.0622 H         1 UNK         0.0000 
     35 H35         4.6565   51.7413   19.0141 H         1 UNK         0.0000 
     36 H36         6.7572   53.8729   22.9145 H         1 UNK         0.0000 
     37 H37         7.4076   53.9481   25.2308 H         1 UNK         0.0000 
     38 H38         3.3034   54.6764   26.3517 H         1 UNK         0.0000 
     39 H39         2.6839   54.6711   24.0224 H         1 UNK         0.0000 
     40 H40         4.0790   55.2854   28.2460 H         1 UNK         0.0000 
     41 H41         5.2297   54.6606   29.4138 H         1 UNK         0.0000 
     42 H42         4.2123   53.5464   28.4924 H         1 UNK         0.0000 
     43 H43         7.9039   54.4189   27.2932 H         1 UNK         0.0000 
     44 H44         7.2650   53.9886   28.8749 H         1 UNK         0.0000 
     45 H45         7.2016   52.8250   27.5545 H         1 UNK         0.0000 
     46 H46         5.5844   56.1097   18.7131 H         1 UNK         0.0000 
     47 H47         6.3515   57.4746   17.3305 H         1 UNK         0.0000 
     48 H48         6.9091   59.5344   16.0583 H         1 UNK         0.0000 
     49 H49         8.6650   60.9987   15.1711 H         1 UNK         0.0000 
     50 H50        11.4613   59.4003   17.9957 H         1 UNK         0.0000 
     51 H51         9.7206   57.9173   18.8952 H         1 UNK         0.0000 
@<TRIPOS>BOND
     1    1    2 1    
     2    1   31 1    
     3    1   32 1    
     4    1   33 1    
     5    2    9 1    
     6    2    3 2    
     7    3    4 1    
     8    3   19 1    
     9    4    5 1    
    10    4    6 1    
    11    4   10 1    
    12    6    7 1    
    13    6   34 1    
    14    7    8 2    
    15    7    9 1    
    16    9   35 1    
    17   10   15 ar   
    18   10   11 ar   
    19   11   12 ar   
    20   11   36 1    
    21   12   13 ar   
    22   12   37 1    
    23   13   14 ar   
    24   13   16 1    
    25   14   15 ar   
    26   14   38 1    
    27   15   39 1    
    28   16   17 1    
    29   16   18 1    
    30   17   40 1    
    31   17   41 1    
    32   17   42 1    
    33   18   43 1    
    34   18   44 1    
    35   18   45 1    
    36   19   20 2    
    37   19   21 am   BACKBONE|DICT|INTERRES
    38   21   22 1    
    39   21   46 1    
    40   22   23 2    
    41   23   24 1    
    42   23   47 1    
    43   24   29 ar   
    44   24   25 ar   
    45   25   26 ar   
    46   25   48 1    
    47   26   27 ar   
    48   26   49 1    
    49   27   28 ar   
    50   27   30 1    
    51   28   29 ar   
    52   28   50 1    
    53   29   51 1    
@<TRIPOS>SUBSTRUCTURE
     1 UNK         1 GROUP             0       ****    0 ROOT    
