@<TRIPOS>MOLECULE
ZINC09781233_5062
58   62    1
SMALL
USER_CHARGES


@<TRIPOS>ATOM
      1 C1          0.5131   49.0037   22.2230 C.3       1 UNK         0.0000 
      2 C2          0.3090   49.7575   23.5290 C.ar      1 UNK         0.0000 
      3 C3         -0.5610   49.2204   24.4843 C.ar      1 UNK         0.0000 
      4 C4         -0.7947   49.8901   25.6823 C.ar      1 UNK         0.0000 
      5 C5         -0.1679   51.1069   25.9390 C.ar      1 UNK         0.0000 
      6 C6          0.7000   51.6543   24.9955 C.ar      1 UNK         0.0000 
      7 C7          0.9519   50.9829   23.7875 C.ar      1 UNK         0.0000 
      8 N8          1.8895   51.4767   22.8627 N.am      1 UNK         0.0000 
      9 C9          2.0902   52.7626   22.5057 C.2       1 UNK         0.0000 
     10 O10         1.4057   53.6956   22.9296 O.2       1 UNK         0.0000 
     11 C11         3.2270   52.9999   21.6250 C.2       1 UNK         0.0000 
     12 C12         3.5226   52.2077   20.5468 C.2       1 UNK         0.0000 
     13 N13         4.5527   52.4966   19.6748 N.pl3     1 UNK         0.0000 
     14 C14         5.2740   53.6512   19.8135 C.ar      1 UNK         0.0000 
     15 N15         6.2347   54.1026   19.0639 N.2       1 UNK         0.0000 
     16 C16         6.5866   55.2198   19.6820 C.ar      1 UNK         0.0000 
     17 N17         5.9038   55.5137   20.7730 N.2       1 UNK         0.0000 
     18 N18         5.0504   54.4796   20.8801 N.pl3     1 UNK         0.0000 
     19 C19         4.0904   54.2489   21.9886 C.3       1 UNK         0.0000 
     20 H20         3.4590   55.1401   22.0326 H         1 UNK         0.0000 
     21 C21         4.7617   54.2306   23.3814 C.ar      1 UNK         0.0000 
     22 C22         6.1451   54.0467   23.5254 C.ar      1 UNK         0.0000 
     23 C23         6.7184   54.1780   24.7857 C.ar      1 UNK         0.0000 
     24 N24         6.0074   54.4355   25.9079 N.ar      1 UNK         0.0000 
     25 C25         4.6679   54.5774   25.7738 C.ar      1 UNK         0.0000 
     26 C26         4.0168   54.4967   24.5421 C.ar      1 UNK         0.0000 
     27 S27         7.9386   56.2149   19.1380 S.3       1 UNK         0.0000 
     28 C28         7.9847   55.8068   17.3546 C.3       1 UNK         0.0000 
     29 C29         8.7862   54.5426   17.0506 C.ar      1 UNK         0.0000 
     30 C30         8.1300   53.3658   16.6622 C.ar      1 UNK         0.0000 
     31 C31         8.8566   52.2066   16.3840 C.ar      1 UNK         0.0000 
     32 C32        10.2479   52.2179   16.4831 C.ar      1 UNK         0.0000 
     33 C33        10.9096   53.3849   16.8700 C.ar      1 UNK         0.0000 
     34 C34        10.1836   54.5470   17.1401 C.ar      1 UNK         0.0000 
     35 F35        10.8414   55.6824   17.4691 F         1 UNK         0.0000 
     36 C36         2.7468   50.9848   20.0599 C.3       1 UNK         0.0000 
     37 H37         1.5635   48.7350   22.1024 H         1 UNK         0.0000 
     38 H38        -0.0959   48.0996   22.1705 H         1 UNK         0.0000 
     39 H39         0.2272   49.6351   21.3812 H         1 UNK         0.0000 
     40 H40        -1.0581   48.2782   24.3045 H         1 UNK         0.0000 
     41 H41        -1.4513   49.4576   26.4253 H         1 UNK         0.0000 
     42 H42        -0.3421   51.6129   26.8778 H         1 UNK         0.0000 
     43 H43         1.1990   52.5835   25.2267 H         1 UNK         0.0000 
     44 H44         2.3902   50.7775   22.3391 H         1 UNK         0.0000 
     45 H45         4.8025   51.8166   18.9527 H         1 UNK         0.0000 
     46 H46         6.7848   53.8473   22.6805 H         1 UNK         0.0000 
     47 H47         7.7870   54.0975   24.8810 H         1 UNK         0.0000 
     48 H48         4.1172   54.7945   26.6768 H         1 UNK         0.0000 
     49 H49         2.9574   54.6853   24.5011 H         1 UNK         0.0000 
     50 H50         6.9671   55.7213   16.9680 H         1 UNK         0.0000 
     51 H51         8.4181   56.6515   16.8158 H         1 UNK         0.0000 
     52 H52         7.0521   53.3408   16.5810 H         1 UNK         0.0000 
     53 H53         8.3396   51.3020   16.0927 H         1 UNK         0.0000 
     54 H54        10.8107   51.3206   16.2709 H         1 UNK         0.0000 
     55 H55        11.9870   53.3929   16.9506 H         1 UNK         0.0000 
     56 H56         3.1546   50.0739   20.4980 H         1 UNK         0.0000 
     57 H57         1.6865   51.0543   20.2963 H         1 UNK         0.0000 
     58 H58         2.7954   50.8761   18.9735 H         1 UNK         0.0000 
@<TRIPOS>BOND
     1    1    2 1    
     2    1   37 1    
     3    1   38 1    
     4    1   39 1    
     5    2    7 ar   
     6    2    3 ar   
     7    3    4 ar   
     8    3   40 1    
     9    4    5 ar   
    10    4   41 1    
    11    5    6 ar   
    12    5   42 1    
    13    6    7 ar   
    14    6   43 1    
    15    7    8 1    
    16    8    9 am   BACKBONE|DICT|INTERRES
    17    8   44 1    
    18    9   10 2    
    19    9   11 1    
    20   11   19 1    
    21   11   12 2    
    22   12   13 1    
    23   12   36 1    
    24   13   14 1    
    25   13   45 1    
    26   14   18 ar   
    27   14   15 ar   
    28   15   16 ar   
    29   16   17 ar   
    30   16   27 1    
    31   17   18 ar   
    32   18   19 1    
    33   19   20 1    
    34   19   21 1    
    35   21   26 ar   
    36   21   22 ar   
    37   22   23 ar   
    38   22   46 1    
    39   23   24 ar   
    40   23   47 1    
    41   24   25 ar   
    42   25   26 ar   
    43   25   48 1    
    44   26   49 1    
    45   27   28 1    
    46   28   29 1    
    47   28   50 1    
    48   28   51 1    
    49   29   34 ar   
    50   29   30 ar   
    51   30   31 ar   
    52   30   52 1    
    53   31   32 ar   
    54   31   53 1    
    55   32   33 ar   
    56   32   54 1    
    57   33   34 ar   
    58   33   55 1    
    59   34   35 1    
    60   36   56 1    
    61   36   57 1    
    62   36   58 1    
@<TRIPOS>SUBSTRUCTURE
     1 UNK         1 GROUP             0       ****    0 ROOT    
