ZINC32961641_5975
                    3D
 Schrodinger Suite 2024-2.
 65 68  0  0  1  0            999 V2000
    3.4745   54.1762   30.0301 C   0  0  0  0  0  0
    4.1436   54.2215   28.6731 C   0  0  0  0  0  0
    5.5038   54.4953   28.5714 C   0  0  0  0  0  0
    6.1272   54.4845   27.3296 C   0  0  0  0  0  0
    5.3999   54.1999   26.1716 C   0  0  0  0  0  0
    4.0102   53.9380   26.2549 C   0  0  0  0  0  0
    3.4041   53.9639   27.5198 C   0  0  0  0  0  0
    3.2294   53.6984   25.1247 N   0  0  0  0  0  0
    3.0853   54.7471   24.1020 C   0  0  0  0  0  0
    2.3361   54.3493   22.8153 C   0  0  0  0  0  0
    2.1718   52.9047   22.6270 N   0  0  0  0  0  0
    1.5532   52.2913   23.8098 C   0  0  0  0  0  0
    2.0106   52.8748   25.1748 C   0  0  0  0  0  0
    2.1897   52.3349   21.3530 C   0  0  0  0  0  0
    1.0859   51.5651   20.9576 C   0  0  0  0  0  0
    0.9734   51.0668   19.6624 C   0  0  0  0  0  0
    1.9608   51.3376   18.7148 C   0  0  0  0  0  0
    3.0832   52.0665   19.1057 C   0  0  0  0  0  0
    3.2401   52.5362   20.4175 C   0  0  0  0  0  0
    4.5289   53.2182   20.7671 C   0  0  0  0  0  0
    5.1039   52.8668   21.8241 O   0  0  0  0  0  0
    4.9757   54.0720   19.9674 O   0  5  0  0  0  0
    1.9045   50.8962   17.3838 N   0  0  0  0  0  0
    0.4977   50.1614   16.5920 S   0  0  0  0  0  0
   -0.7190   50.7754   17.1401 O   0  0  0  0  0  0
    0.7759   50.2046   15.1523 O   0  0  0  0  0  0
    0.5453   48.4403   17.0764 C   0  0  0  0  0  0
   -0.2913   47.9476   18.0818 C   0  0  0  0  0  0
   -0.2237   46.6009   18.4535 C   0  0  0  0  0  0
    0.6696   45.7463   17.8000 C   0  0  0  0  0  0
    1.5073   46.2360   16.7950 C   0  0  0  0  0  0
    1.4514   47.5854   16.4450 C   0  0  0  0  0  0
    2.4823   45.3182   16.0815 C   0  0  0  0  0  0
   -1.1313   46.0665   19.5463 C   0  0  0  0  0  0
    6.1844   54.0966   24.8691 C   0  0  0  0  0  0
    2.8301   53.3011   30.1004 H   0  0  0  0  0  0
    4.2165   54.0970   30.8255 H   0  0  0  0  0  0
    2.8576   55.0634   30.1652 H   0  0  0  0  0  0
    6.0839   54.7073   29.4561 H   0  0  0  0  0  0
    7.1888   54.6758   27.2806 H   0  0  0  0  0  0
    2.3456   53.7748   27.6188 H   0  0  0  0  0  0
    2.7043   55.6955   24.4813 H   0  0  0  0  0  0
    4.0963   54.8966   23.7359 H   0  0  0  0  0  0
    2.7065   54.8881   21.9447 H   0  0  0  0  0  0
    1.3052   54.6900   22.9225 H   0  0  0  0  0  0
    1.9215   51.2643   23.7852 H   0  0  0  0  0  0
    0.4638   52.2776   23.7634 H   0  0  0  0  0  0
    2.0051   52.1203   25.9621 H   0  0  0  0  0  0
    1.2480   53.6007   25.4630 H   0  0  0  0  0  0
    0.2768   51.3744   21.6461 H   0  0  0  0  0  0
    0.1003   50.4883   19.4121 H   0  0  0  0  0  0
    3.8751   52.2322   18.3851 H   0  0  0  0  0  0
    2.7925   50.7233   16.9248 H   0  0  0  0  0  0
   -0.9917   48.6083   18.5727 H   0  0  0  0  0  0
    0.7170   44.7034   18.0787 H   0  0  0  0  0  0
    2.1143   47.9721   15.6830 H   0  0  0  0  0  0
    2.3681   44.2765   16.3886 H   0  0  0  0  0  0
    2.3334   45.3748   15.0018 H   0  0  0  0  0  0
    3.5044   45.6382   16.2870 H   0  0  0  0  0  0
   -1.3590   45.0109   19.3879 H   0  0  0  0  0  0
   -0.6614   46.1837   20.5237 H   0  0  0  0  0  0
   -2.0842   46.5970   19.5533 H   0  0  0  0  0  0
    5.7621   53.3267   24.2229 H   0  0  0  0  0  0
    6.2014   55.0474   24.3362 H   0  0  0  0  0  0
    7.2130   53.7871   25.0496 H   0  0  0  0  0  0
  1  2  1  0  0  0
  1 36  1  0  0  0
  1 37  1  0  0  0
  1 38  1  0  0  0
  2  7  2  0  0  0
  2  3  1  0  0  0
  3  4  2  0  0  0
  3 39  1  0  0  0
  4  5  1  0  0  0
  4 40  1  0  0  0
  5  6  2  0  0  0
  5 35  1  0  0  0
  6  7  1  0  0  0
  6  8  1  0  0  0
  7 41  1  0  0  0
  8 13  1  0  0  0
  8  9  1  0  0  0
  9 10  1  0  0  0
  9 42  1  0  0  0
  9 43  1  0  0  0
 10 11  1  0  0  0
 10 44  1  0  0  0
 10 45  1  0  0  0
 11 12  1  0  0  0
 11 14  1  0  0  0
 12 13  1  0  0  0
 12 46  1  0  0  0
 12 47  1  0  0  0
 13 48  1  0  0  0
 13 49  1  0  0  0
 14 19  2  0  0  0
 14 15  1  0  0  0
 15 16  2  0  0  0
 15 50  1  0  0  0
 16 17  1  0  0  0
 16 51  1  0  0  0
 17 18  2  0  0  0
 17 23  1  0  0  0
 18 19  1  0  0  0
 18 52  1  0  0  0
 19 20  1  0  0  0
 20 21  2  0  0  0
 20 22  1  0  0  0
 23 24  1  0  0  0
 23 53  1  0  0  0
 24 25  2  0  0  0
 24 26  2  0  0  0
 24 27  1  0  0  0
 27 32  2  0  0  0
 27 28  1  0  0  0
 28 29  2  0  0  0
 28 54  1  0  0  0
 29 30  1  0  0  0
 29 34  1  0  0  0
 30 31  2  0  0  0
 30 55  1  0  0  0
 31 32  1  0  0  0
 31 33  1  0  0  0
 32 56  1  0  0  0
 33 57  1  0  0  0
 33 58  1  0  0  0
 33 59  1  0  0  0
 34 60  1  0  0  0
 34 61  1  0  0  0
 34 62  1  0  0  0
 35 63  1  0  0  0
 35 64  1  0  0  0
 35 65  1  0  0  0
M  CHG  1  22  -1
M  END
> <i_i_glide_confnum>
488

> <i_i_glide_lignum>
5976

> <i_i_glide_posenum>
119

> <i_i_glide_rotatable_bonds>
6

> <i_m_Source_File_Index>
5478

> <b_m_subgroup_collapsed>
0

> <r_i_docking_score>
-5.03722

> <r_i_glide_ecoul>
-2.47196

> <r_i_glide_eff_state_penalty>
0

> <r_i_glide_einternal>
5.2897

> <r_i_glide_emodel>
-51.079

> <r_i_glide_energy>
-40.5978

> <r_i_glide_erotb>
0.419626

> <r_i_glide_esite>
-0.143158

> <r_i_glide_evdw>
-38.1259

> <r_i_glide_gscore>
-5.03722

> <r_i_glide_hbond>
-0.117427

> <r_i_glide_ligand_efficiency>
-0.143921

> <r_i_glide_ligand_efficiency_ln>
-1.10578

> <r_i_glide_ligand_efficiency_sa>
-0.470774

> <r_i_glide_lipo>
-2.37366

> <r_i_glide_metal>
0

> <r_i_glide_rewards>
-0.545506

> <s_i_glide_gridfile>
wee1_glide-grid

> <s_m_Source_File>
wee1_decoys_glide_SP.sdf

> <s_m_Source_Path>
/Users/zhangxujun/Desktop

> <s_m_entry_id>
5753

> <s_m_entry_name>
wee1_decoys_glide_SP.5478

> <s_m_subgroup_title>
wee1_decoys_glide_SP

> <s_m_subgroupid>
wee1_decoys_glide_SP


$$$$
