@<TRIPOS>MOLECULE
ZINC32832437_1436
50   53    1
SMALL
USER_CHARGES


@<TRIPOS>ATOM
      1 C1         10.1405   55.0895   16.8770 C.3       1 UNK         0.0000 
      2 C2          8.7564   55.2901   17.4429 C.ar      1 UNK         0.0000 
      3 C3          7.5934   55.7331   16.8071 C.ar      1 UNK         0.0000 
      4 C4          6.5963   55.7439   17.7762 C.ar      1 UNK         0.0000 
      5 N5          7.2234   55.3005   18.9227 N.pl3     1 UNK         0.0000 
      6 N6          8.5256   55.0354   18.7090 N.2       1 UNK         0.0000 
      7 C7          6.6874   55.0870   20.2123 C.ar      1 UNK         0.0000 
      8 C8          5.5044   54.3573   20.3793 C.ar      1 UNK         0.0000 
      9 C9          5.0500   54.0606   21.6635 C.ar      1 UNK         0.0000 
     10 C10         5.7612   54.4967   22.7854 C.ar      1 UNK         0.0000 
     11 C11         6.9255   55.2569   22.6065 C.ar      1 UNK         0.0000 
     12 C12         7.3888   55.5467   21.3298 C.ar      1 UNK         0.0000 
     13 N13         5.2102   54.1797   24.0416 N.am      1 UNK         0.0000 
     14 C14         5.6323   54.4982   25.2885 C.2       1 UNK         0.0000 
     15 O15         6.7047   55.0480   25.5537 O.2       1 UNK         0.0000 
     16 C16         4.6816   54.1252   26.4067 C.ar      1 UNK         0.0000 
     17 C17         5.1659   54.0001   27.7155 C.ar      1 UNK         0.0000 
     18 C18         4.3070   53.6652   28.7577 C.ar      1 UNK         0.0000 
     19 C19         2.9449   53.4558   28.5133 C.ar      1 UNK         0.0000 
     20 C20         2.4523   53.5902   27.2120 C.ar      1 UNK         0.0000 
     21 C21         3.3116   53.9238   26.1699 C.ar      1 UNK         0.0000 
     22 N22         2.0643   53.1243   29.5727 N.pl3     1 UNK         0.0000 
     23 C23         0.7127   53.3769   29.6572 C.ar      1 UNK         0.0000 
     24 C24         0.3044   52.8872   30.8812 C.ar      1 UNK         0.0000 
     25 C25         1.4618   52.3715   31.4605 C.ar      1 UNK         0.0000 
     26 N26         2.5108   52.4967   30.6806 N.2       1 UNK         0.0000 
     27 N27         5.2571   56.1049   17.7471 N.am      1 UNK         0.0000 
     28 C28         4.5657   56.4561   16.6465 C.2       1 UNK         0.0000 
     29 O29         5.0188   56.4990   15.5031 O.2       1 UNK         0.0000 
     30 C30         3.1051   56.8110   16.8812 C.3       1 UNK         0.0000 
     31 H31        10.1936   55.3629   15.8233 H         1 UNK         0.0000 
     32 H32        10.8809   55.6929   17.4036 H         1 UNK         0.0000 
     33 H33        10.4585   54.0494   16.9561 H         1 UNK         0.0000 
     34 H34         7.4957   56.0167   15.7696 H         1 UNK         0.0000 
     35 H35         4.9618   53.9758   19.5249 H         1 UNK         0.0000 
     36 H36         4.1429   53.4838   21.7741 H         1 UNK         0.0000 
     37 H37         7.5043   55.6308   23.4344 H         1 UNK         0.0000 
     38 H38         8.3132   56.0971   21.2183 H         1 UNK         0.0000 
     39 H39         4.3439   53.6685   23.9976 H         1 UNK         0.0000 
     40 H40         6.2124   54.1601   27.9373 H         1 UNK         0.0000 
     41 H41         4.7043   53.5780   29.7563 H         1 UNK         0.0000 
     42 H42         1.4075   53.4288   26.9909 H         1 UNK         0.0000 
     43 H43         2.8861   54.0282   25.1824 H         1 UNK         0.0000 
     44 H44         0.1784   53.8761   28.8632 H         1 UNK         0.0000 
     45 H45        -0.6888   52.8920   31.3085 H         1 UNK         0.0000 
     46 H46         1.5247   51.9094   32.4370 H         1 UNK         0.0000 
     47 H47         4.7640   56.0839   18.6262 H         1 UNK         0.0000 
     48 H48         2.6441   56.1165   17.5854 H         1 UNK         0.0000 
     49 H49         2.5465   56.7670   15.9463 H         1 UNK         0.0000 
     50 H50         3.0274   57.8235   17.2799 H         1 UNK         0.0000 
@<TRIPOS>BOND
     1    1    2 1    
     2    1   31 1    
     3    1   32 1    
     4    1   33 1    
     5    2    6 ar   
     6    2    3 ar   
     7    3    4 ar   
     8    3   34 1    
     9    4    5 ar   
    10    4   27 1    
    11    5    6 ar   
    12    5    7 1    
    13    7   12 ar   
    14    7    8 ar   
    15    8    9 ar   
    16    8   35 1    
    17    9   10 ar   
    18    9   36 1    
    19   10   11 ar   
    20   10   13 1    
    21   11   12 ar   
    22   11   37 1    
    23   12   38 1    
    24   13   14 am   BACKBONE|DICT|INTERRES
    25   13   39 1    
    26   14   15 2    
    27   14   16 1    
    28   16   21 ar   
    29   16   17 ar   
    30   17   18 ar   
    31   17   40 1    
    32   18   19 ar   
    33   18   41 1    
    34   19   20 ar   
    35   19   22 1    
    36   20   21 ar   
    37   20   42 1    
    38   21   43 1    
    39   22   26 ar   
    40   22   23 ar   
    41   23   24 ar   
    42   23   44 1    
    43   24   25 ar   
    44   24   45 1    
    45   25   26 ar   
    46   25   46 1    
    47   27   28 am   BACKBONE|DICT|INTERRES
    48   27   47 1    
    49   28   29 2    
    50   28   30 1    
    51   30   48 1    
    52   30   49 1    
    53   30   50 1    
@<TRIPOS>SUBSTRUCTURE
     1 UNK         1 GROUP             0       ****    0 ROOT    
