@<TRIPOS>MOLECULE
ZINC44579450_1748
36   37    1
SMALL
USER_CHARGES


@<TRIPOS>ATOM
      1 C1          1.2784   55.7499   30.4817 C.3       1 UNK         0.0000 
      2 C2          1.9086   54.5499   29.7943 C.2       1 UNK         0.0000 
      3 N3          3.1630   54.4018   29.6088 N.2       1 UNK         0.0000 
      4 C4          3.3976   53.1844   28.8590 C.3       1 UNK         0.0000 
      5 N5          2.0638   52.7448   28.4462 N.3       1 UNK         0.0000 
      6 C6          1.1009   53.3252   29.3657 C.3       1 UNK         0.0000 
      7 C7         -0.0956   53.6643   28.4926 C.3       1 UNK         0.0000 
      8 C8          0.6161   52.4967   30.5914 C.3       1 UNK         0.0000 
      9 O9          1.9328   51.3630   28.4466 O.3       1 UNK         0.0000 
     10 C10         4.1261   52.1714   29.7903 C.3       1 UNK         0.0000 
     11 C11         4.2928   53.6153   27.6581 C.ar      1 UNK         0.0000 
     12 C12         5.6286   54.0006   27.8738 C.ar      1 UNK         0.0000 
     13 C13         6.4362   54.4251   26.8207 C.ar      1 UNK         0.0000 
     14 C14         5.9132   54.4966   25.5326 C.ar      1 UNK         0.0000 
     15 C15         4.5882   54.1401   25.2979 C.ar      1 UNK         0.0000 
     16 C16         3.7876   53.6970   26.3487 C.ar      1 UNK         0.0000 
     17 N17         6.7044   54.9266   24.4670 N.pl3     1 UNK         0.0000 
     18 H18         1.1043   55.5343   31.5347 H         1 UNK         0.0000 
     19 H19         1.9211   56.6294   30.4291 H         1 UNK         0.0000 
     20 H20         0.3086   56.0132   30.0741 H         1 UNK         0.0000 
     21 H21         0.2056   54.3283   27.6848 H         1 UNK         0.0000 
     22 H22        -0.5379   52.7737   28.0423 H         1 UNK         0.0000 
     23 H23        -0.8750   54.1340   29.0857 H         1 UNK         0.0000 
     24 H24        -0.0124   53.0915   31.2563 H         1 UNK         0.0000 
     25 H25         0.0047   51.6520   30.2769 H         1 UNK         0.0000 
     26 H26         1.4333   52.1052   31.1943 H         1 UNK         0.0000 
     27 H27         1.4877   51.2155   27.6081 H         1 UNK         0.0000 
     28 H28         3.5743   51.9600   30.7038 H         1 UNK         0.0000 
     29 H29         4.2969   51.2308   29.2817 H         1 UNK         0.0000 
     30 H30         5.1044   52.4967   30.0817 H         1 UNK         0.0000 
     31 H31         6.0537   53.9973   28.8659 H         1 UNK         0.0000 
     32 H32         7.4580   54.7069   27.0226 H         1 UNK         0.0000 
     33 H33         4.1731   54.1969   24.3023 H         1 UNK         0.0000 
     34 H34         2.7650   53.4310   26.1284 H         1 UNK         0.0000 
     35 H35         7.7129   54.8966   24.5347 H         1 UNK         0.0000 
     36 H36         6.2867   54.8934   23.5488 H         1 UNK         0.0000 
@<TRIPOS>BOND
     1    1    2 1    
     2    1   18 1    
     3    1   19 1    
     4    1   20 1    
     5    2    6 1    
     6    2    3 2    
     7    3    4 1    
     8    4    5 1    
     9    4   10 1    
    10    4   11 1    
    11    5    6 1    
    12    5    9 1    
    13    6    7 1    
    14    6    8 1    
    15    7   21 1    
    16    7   22 1    
    17    7   23 1    
    18    8   24 1    
    19    8   25 1    
    20    8   26 1    
    21    9   27 1    
    22   10   28 1    
    23   10   29 1    
    24   10   30 1    
    25   11   16 ar   
    26   11   12 ar   
    27   12   13 ar   
    28   12   31 1    
    29   13   14 ar   
    30   13   32 1    
    31   14   15 ar   
    32   14   17 1    
    33   15   16 ar   
    34   15   33 1    
    35   16   34 1    
    36   17   35 1    
    37   17   36 1    
@<TRIPOS>SUBSTRUCTURE
     1 UNK         1 GROUP             0       ****    0 ROOT    
