@<TRIPOS>MOLECULE
ZINC40984686_4855
64   67    1
SMALL
USER_CHARGES


@<TRIPOS>ATOM
      1 C1          7.1034   54.5148   23.0593 C.3       1 UNK         0.0000 
      2 C2          5.6311   54.2541   23.2271 C.2       1 UNK         0.0000 
      3 C3          4.5657   54.0139   22.3711 C.2       1 UNK         0.0000 
      4 N4          3.4587   53.8533   23.0847 N.2       1 UNK         0.0000 
      5 C5          3.8328   53.9607   24.3418 C.2       1 UNK         0.0000 
      6 O6          5.1545   54.2213   24.4921 O.3       1 UNK         0.0000 
      7 C7          3.0247   53.6968   25.5709 C.ar      1 UNK         0.0000 
      8 C8          3.5079   54.0878   26.8233 C.ar      1 UNK         0.0000 
      9 C9          2.8028   53.7631   27.9801 C.ar      1 UNK         0.0000 
     10 C10         1.6178   53.0318   27.9080 C.ar      1 UNK         0.0000 
     11 C11         1.1173   52.6632   26.6502 C.ar      1 UNK         0.0000 
     12 C12         1.8126   53.0015   25.4902 C.ar      1 UNK         0.0000 
     13 O13         1.0176   52.7149   29.1111 O.3       1 UNK         0.0000 
     14 C14        -0.1290   51.8683   29.1157 C.3       1 UNK         0.0000 
     15 C15         4.5785   53.9255   20.8485 C.3       1 UNK         0.0000 
     16 N16         3.4623   52.9932   20.3173 N.4       1 UNK         0.0000 
     17 C17         3.2822   53.1917   18.7936 C.3       1 UNK         0.0000 
     18 C18         2.0541   52.3789   18.3518 C.3       1 UNK         0.0000 
     19 C19         2.2738   50.8860   18.6966 C.3       1 UNK         0.0000 
     20 C20         2.5372   50.6758   20.2082 C.3       1 UNK         0.0000 
     21 C21         3.7560   51.5097   20.6464 C.3       1 UNK         0.0000 
     22 C22         1.0316   50.0687   18.2921 C.2       1 UNK         0.0000 
     23 O23        -0.0885   50.4242   18.6609 O.2       1 UNK         0.0000 
     24 N24         1.2475   48.9836   17.5270 N.am      1 UNK         0.0000 
     25 C25         0.2197   48.0631   17.0338 C.3       1 UNK         0.0000 
     26 C26        -0.4604   47.2142   18.1076 C.ar      1 UNK         0.0000 
     27 C27        -1.5941   47.6989   18.7695 C.ar      1 UNK         0.0000 
     28 C28        -2.2591   46.9094   19.7036 C.ar      1 UNK         0.0000 
     29 C29        -1.8189   45.6127   19.9604 C.ar      1 UNK         0.0000 
     30 C30        -0.7063   45.0950   19.2836 C.ar      1 UNK         0.0000 
     31 C31        -0.0271   45.9067   18.3636 C.ar      1 UNK         0.0000 
     32 C32        -0.2657   43.6562   19.5379 C.3       1 UNK         0.0000 
     33 F33        -0.9638   42.8443   18.7466 F         1 UNK         0.0000 
     34 F34         1.0291   43.4706   19.2825 F         1 UNK         0.0000 
     35 F35        -0.4943   43.2960   20.8023 F         1 UNK         0.0000 
     36 H36         7.6974   53.6282   23.2822 H         1 UNK         0.0000 
     37 H37         7.3540   54.8355   22.0481 H         1 UNK         0.0000 
     38 H38         7.4437   55.3078   23.7308 H         1 UNK         0.0000 
     39 H39         4.4404   54.6261   26.9101 H         1 UNK         0.0000 
     40 H40         3.1936   54.0561   28.9439 H         1 UNK         0.0000 
     41 H41         0.1987   52.1038   26.5548 H         1 UNK         0.0000 
     42 H42         1.4243   52.6858   24.5329 H         1 UNK         0.0000 
     43 H43        -0.4462   51.6951   30.1435 H         1 UNK         0.0000 
     44 H44        -0.9650   52.3227   28.5844 H         1 UNK         0.0000 
     45 H45         0.0884   50.8971   28.6681 H         1 UNK         0.0000 
     46 H46         5.5151   53.5600   20.4250 H         1 UNK         0.0000 
     47 H47         4.3662   54.8969   20.4071 H         1 UNK         0.0000 
     48 H48         4.2039   52.8764   18.2983 H         1 UNK         0.0000 
     49 H49         3.1061   54.2562   18.6207 H         1 UNK         0.0000 
     50 H50         1.9560   52.5253   17.2745 H         1 UNK         0.0000 
     51 H51         1.2021   52.8024   18.8862 H         1 UNK         0.0000 
     52 H52         3.1044   50.4979   18.1068 H         1 UNK         0.0000 
     53 H53         1.6984   51.0228   20.8162 H         1 UNK         0.0000 
     54 H54         2.7795   49.6335   20.4264 H         1 UNK         0.0000 
     55 H55         4.6754   51.2338   20.1254 H         1 UNK         0.0000 
     56 H56         3.9017   51.4303   21.7245 H         1 UNK         0.0000 
     57 H57         2.2009   48.8115   17.2258 H         1 UNK         0.0000 
     58 H58         0.6798   47.4036   16.2951 H         1 UNK         0.0000 
     59 H59        -0.5365   48.6274   16.4830 H         1 UNK         0.0000 
     60 H60        -1.9584   48.6965   18.5657 H         1 UNK         0.0000 
     61 H61        -3.1252   47.3003   20.2190 H         1 UNK         0.0000 
     62 H62        -2.3549   45.0094   20.6771 H         1 UNK         0.0000 
     63 H63         0.8294   45.5178   17.8311 H         1 UNK         0.0000 
     64 H64         2.6077   53.2831   20.7756 H         1 UNK         0.0000 
@<TRIPOS>BOND
     1    1    2 1    
     2    1   36 1    
     3    1   37 1    
     4    1   38 1    
     5    2    6 1    
     6    2    3 2    
     7    3    4 1    
     8    3   15 1    
     9    4    5 2    
    10    5    6 1    
    11    5    7 1    
    12    7   12 ar   
    13    7    8 ar   
    14    8    9 ar   
    15    8   39 1    
    16    9   10 ar   
    17    9   40 1    
    18   10   11 ar   
    19   10   13 1    
    20   11   12 ar   
    21   11   41 1    
    22   12   42 1    
    23   13   14 1    
    24   14   43 1    
    25   14   44 1    
    26   14   45 1    
    27   15   16 1    
    28   15   46 1    
    29   15   47 1    
    30   16   21 1    
    31   16   17 1    
    32   16   64 1    
    33   17   18 1    
    34   17   48 1    
    35   17   49 1    
    36   18   19 1    
    37   18   50 1    
    38   18   51 1    
    39   19   20 1    
    40   19   22 1    
    41   19   52 1    
    42   20   21 1    
    43   20   53 1    
    44   20   54 1    
    45   21   55 1    
    46   21   56 1    
    47   22   23 2    
    48   22   24 am   BACKBONE|DICT|INTERRES
    49   24   25 1    
    50   24   57 1    
    51   25   26 1    
    52   25   58 1    
    53   25   59 1    
    54   26   31 ar   
    55   26   27 ar   
    56   27   28 ar   
    57   27   60 1    
    58   28   29 ar   
    59   28   61 1    
    60   29   30 ar   
    61   29   62 1    
    62   30   31 ar   
    63   30   32 1    
    64   31   63 1    
    65   32   33 1    
    66   32   34 1    
    67   32   35 1    
@<TRIPOS>SUBSTRUCTURE
     1 UNK         1 GROUP             0       ****    0 ROOT    
