ZINC35684478_2685
                    3D
 Schrodinger Suite 2024-2.
 52 55  0  0  1  0            999 V2000
    6.7831   54.6185   22.6557 C   0  0  0  0  0  0
    5.7507   54.3543   23.7329 C   0  0  0  0  0  0
    4.4164   54.1182   23.3930 C   0  0  0  0  0  0
    3.4712   53.9117   24.3976 C   0  0  0  0  0  0
    3.8595   53.9239   25.7421 C   0  0  0  0  0  0
    5.2056   54.1310   26.0682 C   0  0  0  0  0  0
    6.1465   54.3568   25.0692 C   0  0  0  0  0  0
    2.8570   53.6765   26.8234 C   0  0  0  0  0  0
    2.7822   54.2934   28.0916 C   0  0  0  0  0  0
    1.6978   53.7268   28.6973 C   0  0  0  0  0  0
    1.3356   52.6704   27.8793 N   0  0  0  0  0  0
    1.9312   52.7424   26.6884 N   0  0  0  0  0  0
    0.3389   51.6525   28.2798 C   0  0  1  0  0  0
    0.6179   50.6773   27.8718 H   0  0  0  0  0  0
    0.3038   51.6860   29.8508 C   0  0  0  0  0  0
    0.4527   53.0779   30.4459 C   0  0  0  0  0  0
    1.1538   53.9877   29.9233 N   0  0  0  0  0  0
   -0.0903   53.2954   31.6820 O   0  0  0  0  0  0
   -1.0494   51.8842   27.6852 C   0  0  0  0  0  0
   -1.2942   52.9920   27.2530 O   0  0  0  0  0  0
   -1.9671   50.8969   27.6942 N   0  0  0  0  0  0
   -3.3106   51.0255   27.2888 C   0  0  0  0  0  0
   -4.2728   50.2796   27.9713 C   0  0  0  0  0  0
   -5.6273   50.4594   27.6853 C   0  0  0  0  0  0
   -6.0283   51.3915   26.7259 C   0  0  0  0  0  0
   -5.0756   52.1239   25.9995 C   0  0  0  0  0  0
   -3.7197   51.8928   26.2636 C   0  0  0  0  0  0
   -5.5001   53.1778   25.0183 C   0  0  0  0  0  0
   -6.6605   53.5617   24.8844 O   0  0  0  0  0  0
   -4.4289   53.8162   24.1305 C   0  0  0  0  0  0
    3.6486   55.3177   28.7402 C   0  0  0  0  0  0
    7.6622   53.9955   22.8286 H   0  0  0  0  0  0
    6.3923   54.4076   21.6578 H   0  0  0  0  0  0
    7.1109   55.6592   22.6950 H   0  0  0  0  0  0
    4.1065   54.1100   22.3562 H   0  0  0  0  0  0
    2.4384   53.7380   24.1332 H   0  0  0  0  0  0
    5.5401   54.0975   27.0944 H   0  0  0  0  0  0
    7.1799   54.5236   25.3368 H   0  0  0  0  0  0
   -0.5264   51.1365   30.2902 H   0  0  0  0  0  0
    1.2606   51.2337   30.0849 H   0  0  0  0  0  0
   -0.6142   52.5398   31.9987 H   0  0  0  0  0  0
   -1.7069   49.9915   28.0968 H   0  0  0  0  0  0
   -3.9729   49.5856   28.7459 H   0  0  0  0  0  0
   -6.3692   49.8966   28.2279 H   0  0  0  0  0  0
   -7.0861   51.5379   26.5557 H   0  0  0  0  0  0
   -2.9646   52.4187   25.6991 H   0  0  0  0  0  0
   -3.5966   54.1681   24.7327 H   0  0  0  0  0  0
   -4.0277   53.0885   23.4208 H   0  0  0  0  0  0
   -4.8344   54.6746   23.5990 H   0  0  0  0  0  0
    3.0505   56.1631   29.0759 H   0  0  0  0  0  0
    4.1144   54.9266   29.6442 H   0  0  0  0  0  0
    4.4299   55.6951   28.0907 H   0  0  0  0  0  0
  1  2  1  0  0  0
  1 32  1  0  0  0
  1 33  1  0  0  0
  1 34  1  0  0  0
  2  7  2  0  0  0
  2  3  1  0  0  0
  3  4  2  0  0  0
  3 35  1  0  0  0
  4  5  1  0  0  0
  4 36  1  0  0  0
  5  6  2  0  0  0
  5  8  1  0  0  0
  6  7  1  0  0  0
  6 37  1  0  0  0
  7 38  1  0  0  0
  8 12  2  0  0  0
  8  9  1  0  0  0
  9 10  2  0  0  0
  9 31  1  0  0  0
 10 17  1  0  0  0
 10 11  1  0  0  0
 11 12  1  0  0  0
 11 13  1  0  0  0
 13 14  1  0  0  0
 13 15  1  0  0  0
 13 19  1  0  0  0
 15 16  1  0  0  0
 15 39  1  0  0  0
 15 40  1  0  0  0
 16 17  2  0  0  0
 16 18  1  0  0  0
 18 41  1  0  0  0
 19 20  2  0  0  0
 19 21  1  0  0  0
 21 22  1  0  0  0
 21 42  1  0  0  0
 22 27  2  0  0  0
 22 23  1  0  0  0
 23 24  2  0  0  0
 23 43  1  0  0  0
 24 25  1  0  0  0
 24 44  1  0  0  0
 25 26  2  0  0  0
 25 45  1  0  0  0
 26 27  1  0  0  0
 26 28  1  0  0  0
 27 46  1  0  0  0
 28 29  2  0  0  0
 28 30  1  0  0  0
 30 47  1  0  0  0
 30 48  1  0  0  0
 30 49  1  0  0  0
 31 50  1  0  0  0
 31 51  1  0  0  0
 31 52  1  0  0  0
M  END
> <i_i_glide_confnum>
13

> <i_i_glide_lignum>
2686

> <i_i_glide_posenum>
230

> <i_i_glide_rotatable_bonds>
6

> <i_m_Source_File_Index>
2296

> <b_m_subgroup_collapsed>
0

> <r_i_docking_score>
-6.49692

> <r_i_glide_ecoul>
-9.58499

> <r_i_glide_eff_state_penalty>
0

> <r_i_glide_einternal>
3.25106

> <r_i_glide_emodel>
-50.4422

> <r_i_glide_energy>
-37.7364

> <r_i_glide_erotb>
0.484651

> <r_i_glide_esite>
-0.145457

> <r_i_glide_evdw>
-28.1515

> <r_i_glide_gscore>
-6.49692

> <r_i_glide_hbond>
-0.304

> <r_i_glide_ligand_efficiency>
-0.216564

> <r_i_glide_ligand_efficiency_ln>
-1.47617

> <r_i_glide_ligand_efficiency_sa>
-0.672915

> <r_i_glide_lipo>
-2.64152

> <r_i_glide_metal>
0

> <r_i_glide_rewards>
-1.04527

> <s_i_glide_gridfile>
wee1_glide-grid

> <s_m_Source_File>
wee1_decoys_glide_SP.sdf

> <s_m_Source_Path>
/Users/zhangxujun/Desktop

> <s_m_entry_id>
2571

> <s_m_entry_name>
wee1_decoys_glide_SP.2296

> <s_m_subgroup_title>
wee1_decoys_glide_SP

> <s_m_subgroupid>
wee1_decoys_glide_SP


$$$$
