@<TRIPOS>MOLECULE
ZINC03884797_1978
38   40    1
SMALL
USER_CHARGES


@<TRIPOS>ATOM
      1 C1          2.3990   52.0967   31.6319 C.2       1 UNK         0.0000 
      2 C2          3.1061   52.7530   30.6215 C.2       1 UNK         0.0000 
      3 C3          2.3414   53.7542   30.0418 C.2       1 UNK         0.0000 
      4 S4          0.7029   53.7718   30.5991 S.3       1 UNK         0.0000 
      5 C5          1.0717   52.4966   31.7066 C.2       1 UNK         0.0000 
      6 S6          2.9137   54.8877   28.7899 S.o2      1 UNK         0.0000 
      7 O7          2.0855   56.0936   28.8825 O.2       1 UNK         0.0000 
      8 O8          4.3757   54.8964   28.8916 O.2       1 UNK         0.0000 
      9 N9          2.3958   53.9682   27.3852 N.pl3     1 UNK         0.0000 
     10 C10         2.9931   53.9677   26.1228 C.ar      1 UNK         0.0000 
     11 C11         4.2918   54.4009   25.8440 C.ar      1 UNK         0.0000 
     12 C12         4.8228   54.2880   24.5495 C.ar      1 UNK         0.0000 
     13 C13         4.0079   53.7404   23.5372 C.ar      1 UNK         0.0000 
     14 C14         2.7051   53.3001   23.8064 C.ar      1 UNK         0.0000 
     15 C15         2.2145   53.4380   25.1024 C.ar      1 UNK         0.0000 
     16 N16         1.9483   52.6986   22.7866 N.pl3     1 UNK         0.0000 
     17 S17         0.2175   52.2729   22.8969 S.o2      1 UNK         0.0000 
     18 O18        -0.4783   53.2967   23.6818 O.2       1 UNK         0.0000 
     19 O19        -0.2100   51.9436   21.5333 O.2       1 UNK         0.0000 
     20 C20         0.1355   50.7351   23.8435 C.2       1 UNK         0.0000 
     21 C21         0.1301   49.4553   23.3060 C.2       1 UNK         0.0000 
     22 C22        -0.0896   48.4692   24.2747 C.2       1 UNK         0.0000 
     23 C23        -0.2103   48.9907   25.5547 C.2       1 UNK         0.0000 
     24 S24        -0.0958   50.7159   25.5670 S.3       1 UNK         0.0000 
     25 C25         6.2370   54.7180   24.2697 C.2       1 UNK         0.0000 
     26 O26         6.7031   54.4732   23.1330 O.co2     1 UNK         0.0000 
     27 H27         2.8226   51.3330   32.2682 H         1 UNK         0.0000 
     28 H28         4.1419   52.5618   30.3754 H         1 UNK         0.0000 
     29 H29         0.3046   52.1251   32.3727 H         1 UNK         0.0000 
     30 H30         1.3939   53.8709   27.3376 H         1 UNK         0.0000 
     31 H31         4.9140   54.8056   26.6252 H         1 UNK         0.0000 
     32 H32         4.4014   53.6346   22.5352 H         1 UNK         0.0000 
     33 H33         1.2215   53.1035   25.3465 H         1 UNK         0.0000 
     34 H34         2.4123   52.4644   21.9227 H         1 UNK         0.0000 
     35 H35         0.2448   49.2506   22.2518 H         1 UNK         0.0000 
     36 H36        -0.1431   47.4136   24.0579 H         1 UNK         0.0000 
     37 H37        -0.3770   48.4563   26.4816 H         1 UNK         0.0000 
     38 O38         6.8713   55.2945   25.1881 O.co2     1 UNK         0.0000 
@<TRIPOS>BOND
     1    1    5 2    
     2    1    2 1    
     3    1   27 1    
     4    2    3 2    
     5    2   28 1    
     6    3    4 1    
     7    3    6 1    
     8    4    5 1    
     9    5   29 1    
    10    6    7 2    
    11    6    8 2    
    12    6    9 1    
    13    9   10 1    
    14    9   30 1    
    15   10   15 ar   
    16   10   11 ar   
    17   11   12 ar   
    18   11   31 1    
    19   12   13 ar   
    20   12   25 1    
    21   13   14 ar   
    22   13   32 1    
    23   14   15 ar   
    24   14   16 1    
    25   15   33 1    
    26   16   17 1    
    27   16   34 1    
    28   17   18 2    
    29   17   19 2    
    30   17   20 1    
    31   20   24 1    
    32   20   21 2    
    33   21   22 1    
    34   21   35 1    
    35   22   23 2    
    36   22   36 1    
    37   23   24 1    
    38   23   37 1    
    39   25   26 2    
    40   25   38 1    
@<TRIPOS>SUBSTRUCTURE
     1 UNK         1 GROUP             0       ****    0 ROOT    
