ZINC13059450_2590
                    3D
 Schrodinger Suite 2024-2.
 46 48  0  0  1  0            999 V2000
    5.3482   54.3633   21.6967 C   0  0  0  0  0  0
    4.3893   53.3680   21.8527 C   0  0  0  0  0  0
    3.8263   52.7626   20.7314 C   0  0  0  0  0  0
    4.2635   53.1111   19.4522 C   0  0  0  0  0  0
    5.2352   54.0952   19.2972 C   0  0  0  0  0  0
    5.7775   54.7463   20.4173 C   0  0  0  0  0  0
    6.8031   55.8254   20.2557 C   0  0  0  0  0  0
    7.1041   56.4967   21.2708 O   0  0  0  0  0  0
    2.5089   51.5648   20.9394 S   0  0  0  0  0  0
    2.0910   51.1241   19.6052 O   0  0  0  0  0  0
    2.9562   50.5989   21.9485 O   0  0  0  0  0  0
    1.1698   52.4968   21.6138 N   0  0  0  0  0  0
    1.3693   52.9242   22.9145 N   0  0  0  0  0  0
    0.8318   52.2738   23.9666 C   0  0  0  0  0  0
    0.0220   51.3481   23.8701 O   0  0  0  0  0  0
    1.2252   52.7638   25.2637 C   0  0  0  0  0  0
    0.5920   52.4968   26.4710 C   0  0  0  0  0  0
    1.1674   53.1306   27.5821 C   0  0  0  0  0  0
    2.3506   53.7965   27.2479 C   0  0  0  0  0  0
    2.6673   53.6966   25.5367 S   0  0  0  0  0  0
    3.2887   54.5460   28.1667 C   0  0  0  0  0  0
    4.3290   53.6520   28.8615 C   0  0  0  0  0  0
    3.7936   52.3492   29.4869 C   0  0  0  0  0  0
    2.6213   52.4967   30.4818 C   0  0  0  0  0  0
    1.2316   52.0969   29.9348 C   0  0  0  0  0  0
    0.5652   53.1000   28.9757 C   0  0  0  0  0  0
    5.7576   54.8355   22.5795 H   0  0  0  0  0  0
    4.0758   53.0895   22.8465 H   0  0  0  0  0  0
    3.8547   52.6290   18.5757 H   0  0  0  0  0  0
    5.5545   54.3608   18.2988 H   0  0  0  0  0  0
    0.8739   53.2704   21.0094 H   0  0  0  0  0  0
    2.0474   53.6629   23.0302 H   0  0  0  0  0  0
   -0.3105   51.9029   26.5401 H   0  0  0  0  0  0
    3.8303   55.2966   27.5988 H   0  0  0  0  0  0
    2.7219   55.0950   28.9188 H   0  0  0  0  0  0
    5.1003   53.3852   28.1371 H   0  0  0  0  0  0
    4.8391   54.2410   29.6239 H   0  0  0  0  0  0
    3.5037   51.6774   28.6803 H   0  0  0  0  0  0
    4.6260   51.8494   29.9858 H   0  0  0  0  0  0
    2.8306   51.8653   31.3463 H   0  0  0  0  0  0
    2.5817   53.5071   30.8802 H   0  0  0  0  0  0
    1.2739   51.1151   29.4622 H   0  0  0  0  0  0
    0.5650   51.9809   30.7910 H   0  0  0  0  0  0
    0.5814   54.0952   29.4203 H   0  0  0  0  0  0
   -0.4970   52.8581   28.9094 H   0  0  0  0  0  0
    7.2935   56.0113   19.1184 O   0  5  0  0  0  0
  1  6  2  0  0  0
  1  2  1  0  0  0
  1 27  1  0  0  0
  2  3  2  0  0  0
  2 28  1  0  0  0
  3  4  1  0  0  0
  3  9  1  0  0  0
  4  5  2  0  0  0
  4 29  1  0  0  0
  5  6  1  0  0  0
  5 30  1  0  0  0
  6  7  1  0  0  0
  7  8  2  0  0  0
  7 46  1  0  0  0
  9 10  2  0  0  0
  9 11  2  0  0  0
  9 12  1  0  0  0
 12 13  1  0  0  0
 12 31  1  0  0  0
 13 14  1  0  0  0
 13 32  1  0  0  0
 14 15  2  0  0  0
 14 16  1  0  0  0
 16 20  1  0  0  0
 16 17  2  0  0  0
 17 18  1  0  0  0
 17 33  1  0  0  0
 18 26  1  0  0  0
 18 19  2  0  0  0
 19 20  1  0  0  0
 19 21  1  0  0  0
 21 22  1  0  0  0
 21 34  1  0  0  0
 21 35  1  0  0  0
 22 23  1  0  0  0
 22 36  1  0  0  0
 22 37  1  0  0  0
 23 24  1  0  0  0
 23 38  1  0  0  0
 23 39  1  0  0  0
 24 25  1  0  0  0
 24 40  1  0  0  0
 24 41  1  0  0  0
 25 26  1  0  0  0
 25 42  1  0  0  0
 25 43  1  0  0  0
 26 44  1  0  0  0
 26 45  1  0  0  0
M  CHG  1  46  -1
M  END
> <i_i_glide_confnum>
122

> <i_i_glide_lignum>
2591

> <i_i_glide_posenum>
352

> <i_i_glide_rotatable_bonds>
6

> <i_m_Source_File_Index>
1006

> <b_m_subgroup_collapsed>
0

> <r_i_docking_score>
-4.87416

> <r_i_glide_ecoul>
-2.01314

> <r_i_glide_eff_state_penalty>
0

> <r_i_glide_einternal>
4.25865

> <r_i_glide_emodel>
-52.2886

> <r_i_glide_energy>
-42.2324

> <r_i_glide_erotb>
0.473903

> <r_i_glide_esite>
-0.0455649

> <r_i_glide_evdw>
-40.2193

> <r_i_glide_gscore>
-4.87416

> <r_i_glide_hbond>
-0.294683

> <r_i_glide_ligand_efficiency>
-0.180524

> <r_i_glide_ligand_efficiency_ln>
-1.13462

> <r_i_glide_ligand_efficiency_sa>
-0.541573

> <r_i_glide_lipo>
-2.13821

> <r_i_glide_metal>
0

> <r_i_glide_rewards>
-0.556668

> <s_i_glide_gridfile>
wee1_glide-grid

> <s_m_Source_File>
wee1_decoys_glide_SP.sdf

> <s_m_Source_Path>
/Users/zhangxujun/Desktop

> <s_m_entry_id>
1281

> <s_m_entry_name>
wee1_decoys_glide_SP.1006

> <s_m_subgroup_title>
wee1_decoys_glide_SP

> <s_m_subgroupid>
wee1_decoys_glide_SP


$$$$
