@<TRIPOS>MOLECULE
ZINC63752613_145
52   55    1
SMALL
USER_CHARGES


@<TRIPOS>ATOM
      1 C1          0.8806   52.6518   26.6297 C.3       1 UNK         0.0000 
      2 O2          0.8438   52.4210   25.2267 O.3       1 UNK         0.0000 
      3 C3          0.4205   51.1869   24.7694 C.ar      1 UNK         0.0000 
      4 C4          0.1580   50.0974   25.6198 C.ar      1 UNK         0.0000 
      5 C5         -0.2965   48.8855   25.1087 C.ar      1 UNK         0.0000 
      6 C6         -0.4988   48.7419   23.7397 C.ar      1 UNK         0.0000 
      7 C7         -0.2440   49.8107   22.8829 C.ar      1 UNK         0.0000 
      8 C8          0.2342   51.0277   23.3855 C.ar      1 UNK         0.0000 
      9 C9          0.4651   52.1905   22.4162 C.3       1 UNK         0.0000 
     10 N10         1.8642   52.4889   22.0839 N.am      1 UNK         0.0000 
     11 C11         2.7244   51.6055   21.5457 C.2       1 UNK         0.0000 
     12 O12         2.4157   50.4406   21.2990 O.2       1 UNK         0.0000 
     13 C13         4.1607   52.0500   21.2109 C.3       1 UNK         0.0000 
     14 H14         4.8203   51.2478   21.5417 H         1 UNK         0.0000 
     15 C15         4.6739   53.4167   21.6466 C.2       1 UNK         0.0000 
     16 C16         5.1035   54.0875   20.5554 C.2       1 UNK         0.0000 
     17 C17         5.7431   55.4017   20.3781 C.2       1 UNK         0.0000 
     18 C18         6.1058   55.8382   19.1540 C.2       1 UNK         0.0000 
     19 C19         5.8544   54.9656   18.0157 C.2       1 UNK         0.0000 
     20 C20         5.2615   53.7523   18.1580 C.2       1 UNK         0.0000 
     21 C21         4.8734   53.2978   19.4229 C.2       1 UNK         0.0000 
     22 N22         4.3058   52.1577   19.7463 N.pl3     1 UNK         0.0000 
     23 N23         4.6772   53.6968   22.9831 N.am      1 UNK         0.0000 
     24 C24         5.6477   54.3198   23.6825 C.2       1 UNK         0.0000 
     25 O25         6.7023   54.7327   23.1967 O.2       1 UNK         0.0000 
     26 C26         5.4024   54.4192   25.1706 C.ar      1 UNK         0.0000 
     27 C27         6.4936   54.4509   26.0509 C.ar      1 UNK         0.0000 
     28 C28         6.2918   54.4798   27.4291 C.ar      1 UNK         0.0000 
     29 C29         4.9929   54.4962   27.9334 C.ar      1 UNK         0.0000 
     30 C30         3.9043   54.4972   27.0731 C.ar      1 UNK         0.0000 
     31 C31         4.1012   54.4630   25.6970 C.ar      1 UNK         0.0000 
     32 Cl32        4.7044   54.5336   29.6323 Cl        1 UNK         0.0000 
     33 H33         1.1009   53.7008   26.8038 H         1 UNK         0.0000 
     34 H34        -0.0791   52.4439   27.1056 H         1 UNK         0.0000 
     35 H35         1.6598   52.0615   27.1136 H         1 UNK         0.0000 
     36 H36         0.2861   50.1657   26.6886 H         1 UNK         0.0000 
     37 H37        -0.4979   48.0666   25.7861 H         1 UNK         0.0000 
     38 H38        -0.8570   47.8031   23.3447 H         1 UNK         0.0000 
     39 H39        -0.4055   49.6839   21.8207 H         1 UNK         0.0000 
     40 H40        -0.1199   52.0601   21.5039 H         1 UNK         0.0000 
     41 H41         0.0510   53.0847   22.8822 H         1 UNK         0.0000 
     42 H42         2.1265   53.4644   22.0947 H         1 UNK         0.0000 
     43 H43         5.9226   56.0623   21.2126 H         1 UNK         0.0000 
     44 H44         6.5627   56.8082   19.0170 H         1 UNK         0.0000 
     45 H45         6.1525   55.2936   17.0297 H         1 UNK         0.0000 
     46 H46         5.1081   53.1365   17.2824 H         1 UNK         0.0000 
     47 H47         3.9307   53.2857   23.5227 H         1 UNK         0.0000 
     48 H48         7.5040   54.4281   25.6674 H         1 UNK         0.0000 
     49 H49         7.1348   54.4885   28.1035 H         1 UNK         0.0000 
     50 H50         2.9112   54.5494   27.4898 H         1 UNK         0.0000 
     51 H51         3.2300   54.4696   25.0563 H         1 UNK         0.0000 
     52 H52         4.1309   51.3982   19.0826 H         1 UNK         0.0000 
@<TRIPOS>BOND
     1    1    2 1    
     2    1   33 1    
     3    1   34 1    
     4    1   35 1    
     5    2    3 1    
     6    3    8 ar   
     7    3    4 ar   
     8    4    5 ar   
     9    4   36 1    
    10    5    6 ar   
    11    5   37 1    
    12    6    7 ar   
    13    6   38 1    
    14    7    8 ar   
    15    7   39 1    
    16    8    9 1    
    17    9   10 1    
    18    9   40 1    
    19    9   41 1    
    20   10   11 am   BACKBONE|DICT|INTERRES
    21   10   42 1    
    22   11   12 2    
    23   11   13 1    
    24   13   14 1    
    25   13   22 1    
    26   13   15 1    
    27   15   16 2    
    28   15   23 1    
    29   16   21 1    
    30   16   17 1    
    31   17   18 2    
    32   17   43 1    
    33   18   19 1    
    34   18   44 1    
    35   19   20 2    
    36   19   45 1    
    37   20   21 1    
    38   20   46 1    
    39   21   22 2    
    40   22   52 1    
    41   23   24 am   BACKBONE|DICT|INTERRES
    42   23   47 1    
    43   24   25 2    
    44   24   26 1    
    45   26   31 ar   
    46   26   27 ar   
    47   27   28 ar   
    48   27   48 1    
    49   28   29 ar   
    50   28   49 1    
    51   29   30 ar   
    52   29   32 1    
    53   30   31 ar   
    54   30   50 1    
    55   31   51 1    
@<TRIPOS>SUBSTRUCTURE
     1 UNK         1 GROUP             0       ****    0 ROOT    
