ZINC62411912_5872
                    3D
 Schrodinger Suite 2024-2.
 61 64  0  0  1  0            999 V2000
   -2.7702   50.0014   16.0634 C   0  0  0  0  0  0
   -2.3660   50.2449   17.5275 C   0  0  0  0  0  0
   -1.5508   51.5404   17.7716 C   0  0  1  0  0  0
   -2.3102   52.8331   17.3997 C   0  0  0  0  0  0
   -0.9908   51.6042   19.1269 N   0  0  0  0  0  0
   -1.6658   51.6956   20.2901 C   0  0  0  0  0  0
   -2.8956   51.6966   20.3429 O   0  0  0  0  0  0
   -0.8387   51.8386   21.5508 C   0  0  0  0  0  0
   -1.4409   51.7183   22.8105 C   0  0  0  0  0  0
   -0.7044   51.9179   23.9783 C   0  0  0  0  0  0
    0.6490   52.2630   23.9235 C   0  0  0  0  0  0
    1.2799   52.3529   22.6580 C   0  0  0  0  0  0
    0.5300   52.1379   21.4998 C   0  0  0  0  0  0
    2.7576   52.6514   22.4446 C   0  0  0  0  0  0
    1.2778   52.4670   25.1723 N   0  0  0  0  0  0
    2.0529   53.5180   25.5238 C   0  0  0  0  0  0
    2.3043   54.4189   24.7167 O   0  0  0  0  0  0
    2.4447   53.5879   26.8384 N   0  0  0  0  0  0
    2.4331   52.4419   27.7721 C   0  0  0  0  0  0
    3.7279   52.2439   28.6295 C   0  0  1  0  0  0
    5.0960   52.4968   27.9093 C   0  0  0  0  0  0
    5.5335   53.9567   27.7528 C   0  0  2  0  0  0
    5.4799   54.6610   29.0938 C   0  0  0  0  0  0
    4.0748   54.4749   29.7219 C   0  0  2  0  0  0
    3.7074   53.0085   29.9511 C   0  0  0  0  0  0
    3.0247   55.1596   28.8204 C   0  0  0  0  0  0
    3.1711   54.7847   27.3099 C   0  0  1  0  0  0
    4.6352   54.7206   26.7895 C   0  0  0  0  0  0
   -3.4756   50.7522   15.7074 H   0  0  0  0  0  0
   -1.9018   50.0138   15.4035 H   0  0  0  0  0  0
   -3.2524   49.0297   15.9530 H   0  0  0  0  0  0
   -3.2598   50.2387   18.1526 H   0  0  0  0  0  0
   -1.7725   49.3905   17.8571 H   0  0  0  0  0  0
   -0.6786   51.4908   17.1160 H   0  0  0  0  0  0
   -1.6716   53.7123   17.4936 H   0  0  0  0  0  0
   -2.6597   52.8045   16.3682 H   0  0  0  0  0  0
   -3.1973   52.9738   18.0175 H   0  0  0  0  0  0
    0.0142   51.5418   19.1826 H   0  0  0  0  0  0
   -2.4921   51.4803   22.8968 H   0  0  0  0  0  0
   -1.2057   51.8254   24.9315 H   0  0  0  0  0  0
    1.0349   52.2458   20.5499 H   0  0  0  0  0  0
    3.1752   51.9950   21.6800 H   0  0  0  0  0  0
    2.8891   53.6801   22.1065 H   0  0  0  0  0  0
    3.3506   52.4967   23.3357 H   0  0  0  0  0  0
    0.9998   51.8367   25.9082 H   0  0  0  0  0  0
    1.6268   52.6321   28.4813 H   0  0  0  0  0  0
    2.1803   51.5052   27.2817 H   0  0  0  0  0  0
    3.6829   51.2168   28.9543 H   0  0  0  0  0  0
    5.8850   52.0185   28.4817 H   0  0  0  0  0  0
    5.1044   52.0967   26.9064 H   0  0  0  0  0  0
    6.5553   53.9852   27.3686 H   0  0  0  0  0  0
    6.3449   54.4133   29.6817 H   0  0  0  0  0  0
    5.6697   55.6967   28.9270 H   0  0  0  0  0  0
    4.0642   54.8967   30.7045 H   0  0  0  0  0  0
    2.7328   52.9211   30.4346 H   0  0  0  0  0  0
    4.4116   52.5492   30.6453 H   0  0  0  0  0  0
    2.0136   54.9402   29.1670 H   0  0  0  0  0  0
    3.1044   56.2392   28.9356 H   0  0  0  0  0  0
    2.7044   55.6484   26.8817 H   0  0  0  0  0  0
    5.0552   55.6967   26.6376 H   0  0  0  0  0  0
    4.6985   54.2679   25.7988 H   0  0  0  0  0  0
  1  2  1  0  0  0
  1 29  1  0  0  0
  1 30  1  0  0  0
  1 31  1  0  0  0
  2  3  1  0  0  0
  2 32  1  0  0  0
  2 33  1  0  0  0
  3  4  1  0  0  0
  3  5  1  0  0  0
  3 34  1  0  0  0
  4 35  1  0  0  0
  4 36  1  0  0  0
  4 37  1  0  0  0
  5  6  1  0  0  0
  5 38  1  0  0  0
  6  7  2  0  0  0
  6  8  1  0  0  0
  8 13  2  0  0  0
  8  9  1  0  0  0
  9 10  2  0  0  0
  9 39  1  0  0  0
 10 11  1  0  0  0
 10 40  1  0  0  0
 11 12  2  0  0  0
 11 15  1  0  0  0
 12 13  1  0  0  0
 12 14  1  0  0  0
 13 41  1  0  0  0
 14 42  1  0  0  0
 14 43  1  0  0  0
 14 44  1  0  0  0
 15 16  1  0  0  0
 15 45  1  0  0  0
 16 17  2  0  0  0
 16 18  1  0  0  0
 18 27  1  0  0  0
 18 19  1  0  0  0
 19 20  1  0  0  0
 19 46  1  0  0  0
 19 47  1  0  0  0
 20 25  1  0  0  0
 20 21  1  0  0  0
 20 48  1  0  0  0
 21 22  1  0  0  0
 21 49  1  0  0  0
 21 50  1  0  0  0
 22 28  1  0  0  0
 22 23  1  0  0  0
 22 51  1  0  0  0
 23 24  1  0  0  0
 23 52  1  0  0  0
 23 53  1  0  0  0
 24 25  1  0  0  0
 24 26  1  0  0  0
 24 54  1  0  0  0
 25 55  1  0  0  0
 25 56  1  0  0  0
 26 27  1  0  0  0
 26 57  1  0  0  0
 26 58  1  0  0  0
 27 28  1  0  0  0
 27 59  1  0  0  0
 28 60  1  0  0  0
 28 61  1  0  0  0
M  END
> <i_i_glide_confnum>
9

> <i_i_glide_lignum>
5873

> <i_i_glide_posenum>
377

> <i_i_glide_rotatable_bonds>
7

> <i_m_Source_File_Index>
782

> <b_m_subgroup_collapsed>
0

> <r_i_docking_score>
-3.63081

> <r_i_glide_ecoul>
-2.75632

> <r_i_glide_eff_state_penalty>
0

> <r_i_glide_einternal>
2.16148

> <r_i_glide_emodel>
-21.4257

> <r_i_glide_energy>
-13.4142

> <r_i_glide_erotb>
0.792685

> <r_i_glide_esite>
-0.0421404

> <r_i_glide_evdw>
-10.6579

> <r_i_glide_gscore>
-3.63081

> <r_i_glide_hbond>
-0.186692

> <r_i_glide_ligand_efficiency>
-0.129672

> <r_i_glide_ligand_efficiency_ln>
-0.838097

> <r_i_glide_ligand_efficiency_sa>
-0.39376

> <r_i_glide_lipo>
-1.94311

> <r_i_glide_metal>
0

> <r_i_glide_rewards>
-1.30521

> <s_i_glide_gridfile>
wee1_glide-grid

> <s_m_Source_File>
wee1_decoys_glide_SP.sdf

> <s_m_Source_Path>
/Users/zhangxujun/Desktop

> <s_m_entry_id>
1057

> <s_m_entry_name>
wee1_decoys_glide_SP.782

> <s_m_subgroup_title>
wee1_decoys_glide_SP

> <s_m_subgroupid>
wee1_decoys_glide_SP


$$$$
