@<TRIPOS>MOLECULE
ZINC39665262_638
72   75    1
SMALL
USER_CHARGES


@<TRIPOS>ATOM
      1 C1          1.0631   51.9093   26.2138 C.3       1 UNK         0.0000 
      2 C2          1.7013   52.4574   24.9197 C.3       1 UNK         0.0000 
      3 C3          2.5167   53.7866   25.0091 C.3       1 UNK         0.0000 
      4 H4          1.7705   54.5664   24.8822 H         1 UNK         0.0000 
      5 C5          3.1431   54.0113   26.4243 C.ar      1 UNK         0.0000 
      6 C6          4.4823   53.6963   26.7133 C.ar      1 UNK         0.0000 
      7 C7          5.0112   53.8996   27.9841 C.ar      1 UNK         0.0000 
      8 C8          4.1999   54.4049   28.9948 C.ar      1 UNK         0.0000 
      9 C9          2.8637   54.7012   28.7443 C.ar      1 UNK         0.0000 
     10 C10         2.3416   54.4938   27.4696 C.ar      1 UNK         0.0000 
     11 C11         3.5083   54.1162   23.8258 C.2       1 UNK         0.0000 
     12 O12         4.4313   54.8958   24.0824 O.2       1 UNK         0.0000 
     13 N13         3.3902   53.6259   22.5540 N.am      1 UNK         0.0000 
     14 C14         4.3910   53.9622   21.5251 C.3       1 UNK         0.0000 
     15 C15         3.7066   53.5951   20.1889 C.3       1 UNK         0.0000 
     16 H16         3.1094   54.4266   19.8245 H         1 UNK         0.0000 
     17 C17         2.7681   52.4181   20.5571 C.3       1 UNK         0.0000 
     18 C18         2.2763   52.8815   21.9519 C.3       1 UNK         0.0000 
     19 C19         1.6411   52.1992   19.5153 C.3       1 UNK         0.0000 
     20 C20         0.6146   51.1567   20.0010 C.3       1 UNK         0.0000 
     21 N21         1.3564   49.8165   20.2257 N.4       1 UNK         0.0000 
     22 C22         2.5746   49.9114   21.1727 C.3       1 UNK         0.0000 
     23 C23         3.4935   51.0359   20.6491 C.3       1 UNK         0.0000 
     24 C24         4.7659   53.2968   19.0996 C.2       1 UNK         0.0000 
     25 O25         5.8968   52.9125   19.3900 O.2       1 UNK         0.0000 
     26 N26         4.3988   53.5391   17.8287 N.am      1 UNK         0.0000 
     27 C27         5.2073   53.1769   16.6599 C.3       1 UNK         0.0000 
     28 C28         6.2117   54.2522   16.1537 C.3       1 UNK         0.0000 
     29 H29         5.5925   54.9943   15.6467 H         1 UNK         0.0000 
     30 C30         6.9916   55.0723   17.2083 C.3       1 UNK         0.0000 
     31 O31         7.0582   53.7450   15.1118 O.3       1 UNK         0.0000 
     32 C32         8.0091   52.7553   15.3094 C.ar      1 UNK         0.0000 
     33 C33         8.7129   52.3561   14.1707 C.ar      1 UNK         0.0000 
     34 C34         9.6897   51.3667   14.2436 C.ar      1 UNK         0.0000 
     35 C35         9.9698   50.7667   15.4689 C.ar      1 UNK         0.0000 
     36 C36         9.2844   51.1546   16.6168 C.ar      1 UNK         0.0000 
     37 C37         8.3049   52.1413   16.5383 C.ar      1 UNK         0.0000 
     38 H38         0.5302   50.9763   26.0211 H         1 UNK         0.0000 
     39 H39         1.8093   51.6981   26.9821 H         1 UNK         0.0000 
     40 H40         0.3397   52.6085   26.6312 H         1 UNK         0.0000 
     41 H41         0.8639   52.6155   24.2379 H         1 UNK         0.0000 
     42 H42         2.3072   51.6674   24.4842 H         1 UNK         0.0000 
     43 H43         5.1297   53.2968   25.9476 H         1 UNK         0.0000 
     44 H44         6.0469   53.6657   28.1836 H         1 UNK         0.0000 
     45 H45         4.6140   54.5657   29.9788 H         1 UNK         0.0000 
     46 H46         2.2334   55.0910   29.5296 H         1 UNK         0.0000 
     47 H47         1.3034   54.7259   27.2902 H         1 UNK         0.0000 
     48 H48         4.6858   55.0129   21.5234 H         1 UNK         0.0000 
     49 H49         5.2401   53.3020   21.7106 H         1 UNK         0.0000 
     50 H50         1.8452   52.0617   22.5072 H         1 UNK         0.0000 
     51 H51         1.4677   53.5985   21.8046 H         1 UNK         0.0000 
     52 H52         1.1115   53.1436   19.3519 H         1 UNK         0.0000 
     53 H53         2.0500   51.9341   18.5380 H         1 UNK         0.0000 
     54 H54         0.1325   51.4210   20.9430 H         1 UNK         0.0000 
     55 H55        -0.1543   50.9568   19.2509 H         1 UNK         0.0000 
     56 H56         0.7112   49.1160   20.5650 H         1 UNK         0.0000 
     57 H57         2.1995   50.0602   22.1828 H         1 UNK         0.0000 
     58 H58         3.0561   48.9334   21.1404 H         1 UNK         0.0000 
     59 H59         3.9044   50.7498   19.6819 H         1 UNK         0.0000 
     60 H60         4.3484   51.1105   21.3220 H         1 UNK         0.0000 
     61 H61         3.4803   53.9162   17.6509 H         1 UNK         0.0000 
     62 H62         5.6973   52.2189   16.8479 H         1 UNK         0.0000 
     63 H63         4.5171   52.9508   15.8463 H         1 UNK         0.0000 
     64 H64         6.3136   55.5710   17.9005 H         1 UNK         0.0000 
     65 H65         7.6803   54.4787   17.8060 H         1 UNK         0.0000 
     66 H66         7.5789   55.8520   16.7225 H         1 UNK         0.0000 
     67 H67         8.4933   52.8202   13.2204 H         1 UNK         0.0000 
     68 H68        10.2254   51.0624   13.3544 H         1 UNK         0.0000 
     69 H69        10.7264   49.9978   15.5275 H         1 UNK         0.0000 
     70 H70         9.5049   50.6864   17.5656 H         1 UNK         0.0000 
     71 H71         7.7830   52.3965   17.4443 H         1 UNK         0.0000 
     72 H72         1.6898   49.4888   19.3277 H         1 UNK         0.0000 
@<TRIPOS>BOND
     1    1    2 1    
     2    1   38 1    
     3    1   39 1    
     4    1   40 1    
     5    2    3 1    
     6    2   41 1    
     7    2   42 1    
     8    3    4 1    
     9    3    5 1    
    10    3   11 1    
    11    5   10 ar   
    12    5    6 ar   
    13    6    7 ar   
    14    6   43 1    
    15    7    8 ar   
    16    7   44 1    
    17    8    9 ar   
    18    8   45 1    
    19    9   10 ar   
    20    9   46 1    
    21   10   47 1    
    22   11   12 2    
    23   11   13 am   BACKBONE|DICT|INTERRES
    24   13   18 1    
    25   13   14 1    
    26   14   15 1    
    27   14   48 1    
    28   14   49 1    
    29   15   16 1    
    30   15   17 1    
    31   15   24 1    
    32   17   23 1    
    33   17   18 1    
    34   17   19 1    
    35   18   50 1    
    36   18   51 1    
    37   19   20 1    
    38   19   52 1    
    39   19   53 1    
    40   20   21 1    
    41   20   54 1    
    42   20   55 1    
    43   21   22 1    
    44   21   56 1    
    45   21   72 1    
    46   22   23 1    
    47   22   57 1    
    48   22   58 1    
    49   23   59 1    
    50   23   60 1    
    51   24   25 2    
    52   24   26 am   BACKBONE|DICT|INTERRES
    53   26   27 1    
    54   26   61 1    
    55   27   28 1    
    56   27   62 1    
    57   27   63 1    
    58   28   29 1    
    59   28   30 1    
    60   28   31 1    
    61   30   64 1    
    62   30   65 1    
    63   30   66 1    
    64   31   32 1    
    65   32   37 ar   
    66   32   33 ar   
    67   33   34 ar   
    68   33   67 1    
    69   34   35 ar   
    70   34   68 1    
    71   35   36 ar   
    72   35   69 1    
    73   36   37 ar   
    74   36   70 1    
    75   37   71 1    
@<TRIPOS>SUBSTRUCTURE
     1 UNK         1 GROUP             0       ****    0 ROOT    
