@<TRIPOS>MOLECULE
ZINC08984482_4418
44   46    1
SMALL
USER_CHARGES


@<TRIPOS>ATOM
      1 C1          6.7060   55.1974   21.8778 C.ar      1 UNK         0.0000 
      2 C2          5.6280   54.9018   21.0462 C.ar      1 UNK         0.0000 
      3 C3          4.4662   54.3526   21.5817 C.ar      1 UNK         0.0000 
      4 C4          4.3823   54.0684   22.9466 C.ar      1 UNK         0.0000 
      5 C5          5.4820   54.3197   23.7859 C.ar      1 UNK         0.0000 
      6 C6          6.6384   54.8945   23.2365 C.ar      1 UNK         0.0000 
      7 N7          5.4207   53.9122   25.1310 N.am      1 UNK         0.0000 
      8 C8          6.0444   54.4425   26.2024 C.2       1 UNK         0.0000 
      9 O9          6.7043   55.4813   26.1717 O.2       1 UNK         0.0000 
     10 C10         5.9524   53.6348   27.5035 C.3       1 UNK         0.0000 
     11 S11         5.1143   54.4966   28.8775 S.3       1 UNK         0.0000 
     12 C12         3.7487   53.4206   29.1057 C.ar      1 UNK         0.0000 
     13 N13         3.4916   52.7874   30.2231 N.2       1 UNK         0.0000 
     14 N14         2.2973   52.0966   30.0441 N.2       1 UNK         0.0000 
     15 C15         1.8580   52.3813   28.8437 C.ar      1 UNK         0.0000 
     16 N16         2.7057   53.2742   28.2255 N.pl3     1 UNK         0.0000 
     17 N17         2.5498   53.9006   27.0060 N.3       1 UNK         0.0000 
     18 C18         0.6028   51.7947   28.2119 C.3       1 UNK         0.0000 
     19 C19        -0.4931   52.8431   27.9246 C.3       1 UNK         0.0000 
     20 C20        -1.7057   52.2946   27.1426 C.3       1 UNK         0.0000 
     21 C21        -1.2909   51.5428   25.8726 C.3       1 UNK         0.0000 
     22 C22        -0.3264   50.4084   26.2292 C.3       1 UNK         0.0000 
     23 C23         0.9170   50.9147   26.9792 C.3       1 UNK         0.0000 
     24 I24         2.5785   53.2642   23.6464 I         1 UNK         0.0000 
     25 H25         7.6074   55.6300   21.4685 H         1 UNK         0.0000 
     26 H26         5.6856   55.1149   19.9882 H         1 UNK         0.0000 
     27 H27         3.6253   54.1478   20.9350 H         1 UNK         0.0000 
     28 H28         7.5034   55.0947   23.8486 H         1 UNK         0.0000 
     29 H29         4.9330   53.0403   25.2734 H         1 UNK         0.0000 
     30 H30         5.5051   52.6551   27.3333 H         1 UNK         0.0000 
     31 H31         6.9749   53.4358   27.8276 H         1 UNK         0.0000 
     32 H32         2.4862   54.9032   27.1028 H         1 UNK         0.0000 
     33 H33         3.2239   53.6042   26.3192 H         1 UNK         0.0000 
     34 H34         0.1079   51.1014   28.8976 H         1 UNK         0.0000 
     35 H35        -0.8378   53.2902   28.8570 H         1 UNK         0.0000 
     36 H36        -0.0578   53.6044   27.2838 H         1 UNK         0.0000 
     37 H37        -2.2789   51.6256   27.7891 H         1 UNK         0.0000 
     38 H38        -2.3792   53.1078   26.8727 H         1 UNK         0.0000 
     39 H39        -2.1727   51.1393   25.3742 H         1 UNK         0.0000 
     40 H40        -0.8189   52.2283   25.1672 H         1 UNK         0.0000 
     41 H41        -0.8514   49.6967   26.8605 H         1 UNK         0.0000 
     42 H42        -0.0296   49.8632   25.3317 H         1 UNK         0.0000 
     43 H43         1.4679   51.5123   26.2546 H         1 UNK         0.0000 
     44 H44         1.5045   50.0496   27.2813 H         1 UNK         0.0000 
@<TRIPOS>BOND
     1    1    6 ar   
     2    1    2 ar   
     3    1   25 1    
     4    2    3 ar   
     5    2   26 1    
     6    3    4 ar   
     7    3   27 1    
     8    4    5 ar   
     9    4   24 1    
    10    5    6 ar   
    11    5    7 1    
    12    6   28 1    
    13    7    8 am   BACKBONE|DICT|INTERRES
    14    7   29 1    
    15    8    9 2    
    16    8   10 1    
    17   10   11 1    
    18   10   30 1    
    19   10   31 1    
    20   11   12 1    
    21   12   16 ar   
    22   12   13 ar   
    23   13   14 ar   
    24   14   15 ar   
    25   15   16 ar   
    26   15   18 1    
    27   16   17 1    
    28   17   32 1    
    29   17   33 1    
    30   18   23 1    
    31   18   19 1    
    32   18   34 1    
    33   19   20 1    
    34   19   35 1    
    35   19   36 1    
    36   20   21 1    
    37   20   37 1    
    38   20   38 1    
    39   21   22 1    
    40   21   39 1    
    41   21   40 1    
    42   22   23 1    
    43   22   41 1    
    44   22   42 1    
    45   23   43 1    
    46   23   44 1    
@<TRIPOS>SUBSTRUCTURE
     1 UNK         1 GROUP             0       ****    0 ROOT    
