@<TRIPOS>MOLECULE
ZINC15879939_2407
54   57    1
SMALL
USER_CHARGES


@<TRIPOS>ATOM
      1 C1          3.6873   58.1592   16.6044 C.ar      1 UNK         0.0000 
      2 C2          4.8164   57.5505   17.1566 C.ar      1 UNK         0.0000 
      3 C3          4.9216   56.1546   17.1632 C.ar      1 UNK         0.0000 
      4 C4          3.8887   55.3726   16.6403 C.ar      1 UNK         0.0000 
      5 C5          2.7628   55.9810   16.0953 C.ar      1 UNK         0.0000 
      6 C6          2.6598   57.3738   16.0613 C.ar      1 UNK         0.0000 
      7 C7          1.4392   58.0055   15.3903 C.3       1 UNK         0.0000 
      8 F8          1.5297   59.3346   15.2887 F         1 UNK         0.0000 
      9 F9          0.3412   57.7053   16.0865 F         1 UNK         0.0000 
     10 F10         1.3002   57.5114   14.1586 F         1 UNK         0.0000 
     11 S11         6.4016   55.3322   17.7771 S.o2      1 UNK         0.0000 
     12 O12         6.5655   54.1292   16.9546 O.2       1 UNK         0.0000 
     13 O13         7.4697   56.3343   17.8471 O.2       1 UNK         0.0000 
     14 N14         6.0330   54.7922   19.4280 N.pl3     1 UNK         0.0000 
     15 C15         4.7873   54.0202   19.6146 C.3       1 UNK         0.0000 
     16 C16         4.9192   53.0941   20.8333 C.3       1 UNK         0.0000 
     17 C17         5.4926   53.7306   22.1413 C.3       1 UNK         0.0000 
     18 C18         6.4868   54.9158   21.8626 C.3       1 UNK         0.0000 
     19 C19         6.3350   55.7083   20.5457 C.3       1 UNK         0.0000 
     20 N20         4.3596   54.1596   22.9608 N.pl3     1 UNK         0.0000 
     21 C21         4.4935   54.2473   24.3712 C.ar      1 UNK         0.0000 
     22 N22         5.7112   54.4892   24.9308 N.pl3     1 UNK         0.0000 
     23 H23         6.5066   54.6452   24.3389 H         1 UNK         0.0000 
     24 C24         5.9765   54.5823   26.2456 C.ar      1 UNK         0.0000 
     25 O25         7.1042   54.8863   26.6179 O.2       1 UNK         0.0000 
     26 C26         4.8260   54.3022   27.0918 C.ar      1 UNK         0.0000 
     27 C27         3.6180   54.0811   26.4928 C.ar      1 UNK         0.0000 
     28 N28         3.4704   54.0940   25.1299 N.2       1 UNK         0.0000 
     29 C29         2.3672   53.7050   27.2848 C.3       1 UNK         0.0000 
     30 C30         2.6969   53.2352   28.7174 C.3       1 UNK         0.0000 
     31 C31         3.7245   54.1612   29.3840 C.3       1 UNK         0.0000 
     32 C32         5.0534   54.1998   28.6045 C.3       1 UNK         0.0000 
     33 H33         3.6236   59.2407   16.5869 H         1 UNK         0.0000 
     34 H34         5.6149   58.1693   17.5473 H         1 UNK         0.0000 
     35 H35         3.9636   54.2924   16.6311 H         1 UNK         0.0000 
     36 H36         1.9767   55.3670   15.6788 H         1 UNK         0.0000 
     37 H37         3.9694   54.7135   19.8209 H         1 UNK         0.0000 
     38 H38         4.5645   53.4409   18.7173 H         1 UNK         0.0000 
     39 H39         3.9644   52.6007   21.0277 H         1 UNK         0.0000 
     40 H40         5.5322   52.2324   20.5620 H         1 UNK         0.0000 
     41 H41         6.0790   52.9432   22.6221 H         1 UNK         0.0000 
     42 H42         7.4956   54.4977   21.9059 H         1 UNK         0.0000 
     43 H43         6.5209   55.6232   22.6918 H         1 UNK         0.0000 
     44 H44         7.2504   56.2635   20.3376 H         1 UNK         0.0000 
     45 H45         5.5049   56.3956   20.6748 H         1 UNK         0.0000 
     46 H46         3.4568   53.8578   22.6231 H         1 UNK         0.0000 
     47 H47         1.7110   54.5742   27.3279 H         1 UNK         0.0000 
     48 H48         1.7988   52.9313   26.7698 H         1 UNK         0.0000 
     49 H49         1.7831   53.1845   29.3113 H         1 UNK         0.0000 
     50 H50         3.0920   52.2183   28.6861 H         1 UNK         0.0000 
     51 H51         3.3162   55.1708   29.4527 H         1 UNK         0.0000 
     52 H52         3.9156   53.8373   30.4085 H         1 UNK         0.0000 
     53 H53         5.6146   53.2862   28.8065 H         1 UNK         0.0000 
     54 H54         5.6791   55.0148   28.9774 H         1 UNK         0.0000 
@<TRIPOS>BOND
     1    1    6 ar   
     2    1    2 ar   
     3    1   33 1    
     4    2    3 ar   
     5    2   34 1    
     6    3    4 ar   
     7    3   11 1    
     8    4    5 ar   
     9    4   35 1    
    10    5    6 ar   
    11    5   36 1    
    12    6    7 1    
    13    7    8 1    
    14    7    9 1    
    15    7   10 1    
    16   11   12 2    
    17   11   13 2    
    18   11   14 1    
    19   14   19 1    
    20   14   15 1    
    21   15   16 1    
    22   15   37 1    
    23   15   38 1    
    24   16   17 1    
    25   16   39 1    
    26   16   40 1    
    27   17   18 1    
    28   17   20 1    
    29   17   41 1    
    30   18   19 1    
    31   18   42 1    
    32   18   43 1    
    33   19   44 1    
    34   19   45 1    
    35   20   21 1    
    36   20   46 1    
    37   21   28 ar   
    38   21   22 ar   
    39   22   23 1    
    40   22   24 ar   
    41   24   25 2    
    42   24   26 ar   
    43   26   32 1    
    44   26   27 ar   
    45   27   28 ar   
    46   27   29 1    
    47   29   30 1    
    48   29   47 1    
    49   29   48 1    
    50   30   31 1    
    51   30   49 1    
    52   30   50 1    
    53   31   32 1    
    54   31   51 1    
    55   31   52 1    
    56   32   53 1    
    57   32   54 1    
@<TRIPOS>SUBSTRUCTURE
     1 UNK         1 GROUP             0       ****    0 ROOT    
