ZINC13569315_2628
                    3D
 Schrodinger Suite 2024-2.
 49 52  0  0  1  0            999 V2000
    3.5786   53.9214   26.6310 C   0  0  0  0  0  0
    2.5117   54.0713   27.7080 C   0  0  0  0  0  0
    2.7039   55.0551   28.6837 C   0  0  0  0  0  0
    1.7978   55.2173   29.7285 C   0  0  0  0  0  0
    0.7045   54.3634   29.8373 C   0  0  0  0  0  0
    0.4985   53.3741   28.8781 C   0  0  0  0  0  0
    1.3774   53.2350   27.7978 C   0  0  0  0  0  0
    1.0562   52.2130   26.8945 N   0  0  0  0  0  0
    0.8869   52.3191   25.5591 C   0  0  0  0  0  0
    1.1617   53.3240   24.9032 O   0  0  0  0  0  0
    0.3015   51.1346   24.9536 C   0  0  0  0  0  0
    0.6521   50.6292   23.7247 C   0  0  0  0  0  0
    0.0196   49.5568   23.1415 N   0  0  0  0  0  0
   -0.7445   48.8090   23.8522 C   0  0  0  0  0  0
   -1.5388   47.6682   23.5197 C   0  0  0  0  0  0
   -2.2288   47.3229   24.6307 C   0  0  0  0  0  0
   -1.9932   48.1962   25.6817 N   0  0  0  0  0  0
   -0.9683   49.0347   25.2263 N   0  0  0  0  0  0
   -0.8223   50.4019   25.7382 C   0  0  2  0  0  0
   -0.4889   50.2439   26.7653 H   0  0  0  0  0  0
   -2.1326   51.1977   25.8741 C   0  0  0  0  0  0
   -2.9444   50.9813   26.9901 C   0  0  0  0  0  0
   -4.1255   51.6968   27.1512 C   0  0  0  0  0  0
   -4.5024   52.6700   26.2139 C   0  0  0  0  0  0
   -3.6952   52.8673   25.0836 C   0  0  0  0  0  0
   -2.5278   52.1303   24.9089 C   0  0  0  0  0  0
   -5.7280   53.5089   26.4323 C   0  0  0  0  0  0
   -5.8964   54.4967   25.6815 O   0  0  0  0  0  0
   -6.4957   53.2056   27.3755 O   0  5  0  0  0  0
   -1.6157   47.0317   22.2492 C   0  0  0  0  0  0
   -1.6959   46.4728   21.2389 N   0  0  0  0  0  0
    1.7598   51.1340   22.8057 C   0  0  0  0  0  0
    4.5650   54.1674   27.0243 H   0  0  0  0  0  0
    3.6463   52.8968   26.2712 H   0  0  0  0  0  0
    3.3719   54.5808   25.7884 H   0  0  0  0  0  0
    3.5687   55.6967   28.6373 H   0  0  0  0  0  0
    1.9527   55.9924   30.4656 H   0  0  0  0  0  0
    0.0109   54.4718   30.6584 H   0  0  0  0  0  0
   -0.3631   52.7270   28.9714 H   0  0  0  0  0  0
    0.6965   51.3710   27.3153 H   0  0  0  0  0  0
   -2.9170   46.5024   24.7658 H   0  0  0  0  0  0
   -1.7464   47.9507   26.6493 H   0  0  0  0  0  0
   -2.6623   50.2527   27.7370 H   0  0  0  0  0  0
   -4.7302   51.5122   28.0285 H   0  0  0  0  0  0
   -3.9635   53.6029   24.3380 H   0  0  0  0  0  0
   -1.9237   52.3040   24.0304 H   0  0  0  0  0  0
    2.3773   51.9061   23.2590 H   0  0  0  0  0  0
    2.4277   50.3161   22.5311 H   0  0  0  0  0  0
    1.3327   51.5457   21.8909 H   0  0  0  0  0  0
  1  2  1  0  0  0
  1 33  1  0  0  0
  1 34  1  0  0  0
  1 35  1  0  0  0
  2  7  2  0  0  0
  2  3  1  0  0  0
  3  4  2  0  0  0
  3 36  1  0  0  0
  4  5  1  0  0  0
  4 37  1  0  0  0
  5  6  2  0  0  0
  5 38  1  0  0  0
  6  7  1  0  0  0
  6 39  1  0  0  0
  7  8  1  0  0  0
  8  9  1  0  0  0
  8 40  1  0  0  0
  9 10  2  0  0  0
  9 11  1  0  0  0
 11 19  1  0  0  0
 11 12  2  0  0  0
 12 13  1  0  0  0
 12 32  1  0  0  0
 13 14  2  0  0  0
 14 18  1  0  0  0
 14 15  1  0  0  0
 15 16  2  0  0  0
 15 30  1  0  0  0
 16 17  1  0  0  0
 16 41  1  0  0  0
 17 18  1  0  0  0
 17 42  1  0  0  0
 18 19  1  0  0  0
 19 20  1  0  0  0
 19 21  1  0  0  0
 21 26  2  0  0  0
 21 22  1  0  0  0
 22 23  2  0  0  0
 22 43  1  0  0  0
 23 24  1  0  0  0
 23 44  1  0  0  0
 24 25  2  0  0  0
 24 27  1  0  0  0
 25 26  1  0  0  0
 25 45  1  0  0  0
 26 46  1  0  0  0
 27 28  2  0  0  0
 27 29  1  0  0  0
 30 31  3  0  0  0
 32 47  1  0  0  0
 32 48  1  0  0  0
 32 49  1  0  0  0
M  CHG  1  29  -1
M  END
> <i_i_glide_confnum>
27

> <i_i_glide_lignum>
2629

> <i_i_glide_posenum>
233

> <i_i_glide_rotatable_bonds>
6

> <i_m_Source_File_Index>
1775

> <b_m_subgroup_collapsed>
0

> <r_i_docking_score>
-5.79498

> <r_i_glide_ecoul>
-8.48326

> <r_i_glide_eff_state_penalty>
0

> <r_i_glide_einternal>
7.93312

> <r_i_glide_emodel>
-58.9646

> <r_i_glide_energy>
-43.8735

> <r_i_glide_erotb>
0.463723

> <r_i_glide_esite>
-0.186065

> <r_i_glide_evdw>
-35.3902

> <r_i_glide_gscore>
-5.79498

> <r_i_glide_hbond>
-0.32

> <r_i_glide_ligand_efficiency>
-0.186935

> <r_i_glide_ligand_efficiency_ln>
-1.30695

> <r_i_glide_ligand_efficiency_sa>
-0.587234

> <r_i_glide_lipo>
-1.9177

> <r_i_glide_metal>
0

> <r_i_glide_rewards>
-0.792939

> <s_i_glide_gridfile>
wee1_glide-grid

> <s_m_Source_File>
wee1_decoys_glide_SP.sdf

> <s_m_Source_Path>
/Users/zhangxujun/Desktop

> <s_m_entry_id>
2050

> <s_m_entry_name>
wee1_decoys_glide_SP.1775

> <s_m_subgroup_title>
wee1_decoys_glide_SP

> <s_m_subgroupid>
wee1_decoys_glide_SP


$$$$
