@<TRIPOS>MOLECULE
ZINC37581870_1784
33   34    1
SMALL
USER_CHARGES


@<TRIPOS>ATOM
      1 C1          3.6312   50.9437   20.7666 C.ar      1 UNK         0.0000 
      2 C2          3.7184   52.3199   20.9122 C.ar      1 UNK         0.0000 
      3 C3          2.8761   52.9667   21.8063 C.ar      1 UNK         0.0000 
      4 C4          1.9448   52.2508   22.5746 C.ar      1 UNK         0.0000 
      5 C5          1.8585   50.8512   22.4105 C.ar      1 UNK         0.0000 
      6 C6          2.7044   50.2103   21.5019 C.ar      1 UNK         0.0000 
      7 C7          0.9155   50.0244   23.1467 C.1       1 UNK         0.0000 
      8 C8          0.1107   49.3812   23.8003 C.1       1 UNK         0.0000 
      9 C9         -0.8487   48.7230   24.6861 C.3       1 UNK         0.0000 
     10 N10        -0.2632   48.8967   26.0817 N.4       1 UNK         0.0000 
     11 S11         0.8954   53.2117   23.6991 S.o2      1 UNK         0.0000 
     12 O12         1.1044   54.5978   23.2817 O.2       1 UNK         0.0000 
     13 O13        -0.4612   52.6771   23.5371 O.2       1 UNK         0.0000 
     14 N14         1.5182   52.8965   25.1050 N.2       1 UNK         0.0000 
     15 C15         2.7033   53.4447   25.5294 C.ar      1 UNK         0.0000 
     16 C16         3.0388   53.2967   26.8819 C.ar      1 UNK         0.0000 
     17 C17         4.2708   53.7551   27.3539 C.ar      1 UNK         0.0000 
     18 C18         5.1511   54.3670   26.4644 C.ar      1 UNK         0.0000 
     19 C19         4.7559   54.5294   25.1428 C.ar      1 UNK         0.0000 
     20 N20         3.5591   54.0950   24.6865 N.ar      1 UNK         0.0000 
     21 Cl21        6.7044   54.8967   26.9715 Cl        1 UNK         0.0000 
     22 H22         4.2978   50.4524   20.0817 H         1 UNK         0.0000 
     23 H23         4.4325   52.8826   20.3286 H         1 UNK         0.0000 
     24 H24         2.9561   54.0412   21.8927 H         1 UNK         0.0000 
     25 H25         2.6643   49.1382   21.3628 H         1 UNK         0.0000 
     26 H26        -0.9341   47.6509   24.5039 H         1 UNK         0.0000 
     27 H27        -1.8199   49.2216   24.6843 H         1 UNK         0.0000 
     28 H28        -0.8956   48.5468   26.8067 H         1 UNK         0.0000 
     29 H29        -0.0962   49.8738   26.2740 H         1 UNK         0.0000 
     30 H30         2.3621   52.7949   27.5575 H         1 UNK         0.0000 
     31 H31         4.5461   53.6162   28.3888 H         1 UNK         0.0000 
     32 H32         5.4045   55.0062   24.4228 H         1 UNK         0.0000 
     33 H33         0.5953   48.3699   26.1716 H         1 UNK         0.0000 
@<TRIPOS>BOND
     1    1    6 ar   
     2    1    2 ar   
     3    1   22 1    
     4    2    3 ar   
     5    2   23 1    
     6    3    4 ar   
     7    3   24 1    
     8    4    5 ar   
     9    4   11 1    
    10    5    6 ar   
    11    5    7 1    
    12    6   25 1    
    13    7    8 3    
    14    8    9 1    
    15    9   10 1    
    16    9   26 1    
    17    9   27 1    
    18   10   28 1    
    19   10   29 1    
    20   10   33 1    
    21   11   12 2    
    22   11   13 2    
    23   11   14 1    
    24   14   15 1    
    25   15   20 ar   
    26   15   16 ar   
    27   16   17 ar   
    28   16   30 1    
    29   17   18 ar   
    30   17   31 1    
    31   18   19 ar   
    32   18   21 1    
    33   19   20 ar   
    34   19   32 1    
@<TRIPOS>SUBSTRUCTURE
     1 UNK         1 GROUP             0       ****    0 ROOT    
