@<TRIPOS>MOLECULE
ZINC09104733_4159
53   57    1
SMALL
USER_CHARGES


@<TRIPOS>ATOM
      1 C1          2.3077   49.5372   22.5116 C.3       1 UNK         0.0000 
      2 O2          2.5637   50.5913   21.5901 O.3       1 UNK         0.0000 
      3 C3          2.1617   50.4551   20.2729 C.ar      1 UNK         0.0000 
      4 C4          1.5026   49.3085   19.7877 C.ar      1 UNK         0.0000 
      5 C5          1.0558   49.2427   18.4710 C.ar      1 UNK         0.0000 
      6 C6          1.2477   50.3225   17.6132 C.ar      1 UNK         0.0000 
      7 C7          1.9100   51.4567   18.0684 C.ar      1 UNK         0.0000 
      8 C8          2.3872   51.5231   19.3809 C.ar      1 UNK         0.0000 
      9 N9          3.0479   52.7055   19.7512 N.am      1 UNK         0.0000 
     10 C10         4.2928   52.7958   20.2631 C.2       1 UNK         0.0000 
     11 O11         5.0161   51.8301   20.5054 O.2       1 UNK         0.0000 
     12 C12         4.7977   54.2247   20.5828 C.3       1 UNK         0.0000 
     13 H13         3.9845   54.8971   20.3165 H         1 UNK         0.0000 
     14 C14         6.0691   54.5705   19.7438 C.3       1 UNK         0.0000 
     15 C15         6.9387   55.6930   20.3563 C.3       1 UNK         0.0000 
     16 C16         7.4687   55.3367   21.7650 C.3       1 UNK         0.0000 
     17 C17         6.2934   54.8650   22.6021 C.2       1 UNK         0.0000 
     18 C18         5.0867   54.3704   22.0799 C.2       1 UNK         0.0000 
     19 N19         4.1693   54.0685   22.9782 N.2       1 UNK         0.0000 
     20 C20         4.5785   54.2418   24.2036 C.2       1 UNK         0.0000 
     21 S21         6.2223   54.8167   24.3497 S.3       1 UNK         0.0000 
     22 N22         3.7059   53.9422   25.2339 N.am      1 UNK         0.0000 
     23 C23         3.8851   54.0375   26.5642 C.2       1 UNK         0.0000 
     24 O24         4.8976   54.4947   27.1003 O.2       1 UNK         0.0000 
     25 C25         2.7139   53.5468   27.3977 C.ar      1 UNK         0.0000 
     26 C26         1.5909   52.8973   26.8134 C.ar      1 UNK         0.0000 
     27 C27         0.5215   52.4341   27.5902 C.ar      1 UNK         0.0000 
     28 C28         0.5924   52.6256   28.9610 C.ar      1 UNK         0.0000 
     29 C29         1.6626   53.2397   29.5415 C.ar      1 UNK         0.0000 
     30 C30         2.7401   53.7135   28.7976 C.ar      1 UNK         0.0000 
     31 O31         1.4703   53.2988   30.8820 O.3       1 UNK         0.0000 
     32 C32         0.2608   52.6296   31.1437 C.3       1 UNK         0.0000 
     33 O33        -0.3198   52.2947   29.9106 O.3       1 UNK         0.0000 
     34 Cl34        0.6750   50.2463   15.9865 Cl        1 UNK         0.0000 
     35 H35         2.7033   49.8059   23.4902 H         1 UNK         0.0000 
     36 H36         1.2367   49.3644   22.6299 H         1 UNK         0.0000 
     37 H37         2.7897   48.6086   22.2047 H         1 UNK         0.0000 
     38 H38         1.3177   48.4563   20.4216 H         1 UNK         0.0000 
     39 H39         0.5589   48.3543   18.1109 H         1 UNK         0.0000 
     40 H40         2.0773   52.2793   17.3873 H         1 UNK         0.0000 
     41 H41         2.5704   53.5669   19.5238 H         1 UNK         0.0000 
     42 H42         5.7691   54.8428   18.7302 H         1 UNK         0.0000 
     43 H43         6.7042   53.6969   19.6154 H         1 UNK         0.0000 
     44 H44         6.3516   56.6110   20.4039 H         1 UNK         0.0000 
     45 H45         7.7813   55.9073   19.6970 H         1 UNK         0.0000 
     46 H46         7.9556   56.1984   22.2192 H         1 UNK         0.0000 
     47 H47         8.2306   54.5607   21.7006 H         1 UNK         0.0000 
     48 H48         2.8084   53.5963   24.9317 H         1 UNK         0.0000 
     49 H49         1.5216   52.7270   25.7511 H         1 UNK         0.0000 
     50 H50        -0.3251   51.9418   27.1331 H         1 UNK         0.0000 
     51 H51         3.5738   54.1938   29.2886 H         1 UNK         0.0000 
     52 H52         0.4520   51.7168   31.7102 H         1 UNK         0.0000 
     53 H53        -0.4158   53.2784   31.7011 H         1 UNK         0.0000 
@<TRIPOS>BOND
     1    1    2 1    
     2    1   35 1    
     3    1   36 1    
     4    1   37 1    
     5    2    3 1    
     6    3    8 ar   
     7    3    4 ar   
     8    4    5 ar   
     9    4   38 1    
    10    5    6 ar   
    11    5   39 1    
    12    6    7 ar   
    13    6   34 1    
    14    7    8 ar   
    15    7   40 1    
    16    8    9 1    
    17    9   10 am   BACKBONE|DICT|INTERRES
    18    9   41 1    
    19   10   11 2    
    20   10   12 1    
    21   12   13 1    
    22   12   18 1    
    23   12   14 1    
    24   14   15 1    
    25   14   42 1    
    26   14   43 1    
    27   15   16 1    
    28   15   44 1    
    29   15   45 1    
    30   16   17 1    
    31   16   46 1    
    32   16   47 1    
    33   17   21 1    
    34   17   18 2    
    35   18   19 1    
    36   19   20 2    
    37   20   21 1    
    38   20   22 am   BACKBONE|DICT|INTERRES
    39   22   23 am   BACKBONE|DICT|INTERRES
    40   22   48 1    
    41   23   24 2    
    42   23   25 1    
    43   25   30 ar   
    44   25   26 ar   
    45   26   27 ar   
    46   26   49 1    
    47   27   28 ar   
    48   27   50 1    
    49   28   33 1    
    50   28   29 ar   
    51   29   30 ar   
    52   29   31 1    
    53   30   51 1    
    54   31   32 1    
    55   32   33 1    
    56   32   52 1    
    57   32   53 1    
@<TRIPOS>SUBSTRUCTURE
     1 UNK         1 GROUP             0       ****    0 ROOT    
