@<TRIPOS>MOLECULE
ZINC04236997_408
78   81    1
SMALL
USER_CHARGES


@<TRIPOS>ATOM
      1 C1          1.6774   51.2890   27.4819 C.3       1 UNK         0.0000 
      2 C2          0.8197   52.5114   27.1836 C.3       1 UNK         0.0000 
      3 C3         -0.6072   52.2928   27.7640 C.3       1 UNK         0.0000 
      4 C4         -0.6440   52.1620   29.3069 C.3       1 UNK         0.0000 
      5 C5         -0.0084   53.3897   29.9992 C.3       1 UNK         0.0000 
      6 H6         -0.6527   54.2276   29.7232 H         1 UNK         0.0000 
      7 C7          1.4414   53.7732   29.5129 C.3       1 UNK         0.0000 
      8 C8          1.4402   53.7905   27.9106 C.3       1 UNK         0.0000 
      9 H9          0.7550   54.6064   27.6817 H         1 UNK         0.0000 
     10 C10         2.8404   54.2284   27.3747 C.3       1 UNK         0.0000 
     11 C11         2.9466   54.0156   25.8845 C.2       1 UNK         0.0000 
     12 C12         2.0284   53.3605   25.0565 C.2       1 UNK         0.0000 
     13 N13         2.3500   53.3943   23.7651 N.2       1 UNK         0.0000 
     14 C14         3.5214   53.9392   23.5242 C.2       1 UNK         0.0000 
     15 S15         4.3345   54.4960   24.9598 S.3       1 UNK         0.0000 
     16 N16         4.0394   54.0343   22.2252 N.am      1 UNK         0.0000 
     17 C17         5.2593   54.4930   21.8412 C.2       1 UNK         0.0000 
     18 O18         6.1244   54.8962   22.6148 O.2       1 UNK         0.0000 
     19 C19         5.5492   54.4528   20.3212 C.3       1 UNK         0.0000 
     20 C20         6.5484   55.4876   19.6768 C.3       1 UNK         0.0000 
     21 C21         7.9858   55.4502   20.2531 C.3       1 UNK         0.0000 
     22 C22         6.0325   56.9334   19.8066 C.3       1 UNK         0.0000 
     23 C23         6.6503   55.1488   18.1687 C.3       1 UNK         0.0000 
     24 C24         0.7497   52.6646   25.5894 C.3       1 UNK         0.0000 
     25 H25        -0.1001   53.2968   25.3867 H         1 UNK         0.0000 
     26 C26         0.4087   51.3512   24.7921 C.3       1 UNK         0.0000 
     27 C27        -0.2221   51.5632   23.3957 C.2       1 UNK         0.0000 
     28 O28        -1.0136   52.4981   23.2532 O.2       1 UNK         0.0000 
     29 N29         0.0181   50.6740   22.3909 N.am      1 UNK         0.0000 
     30 C30         1.0575   49.6313   22.4355 C.3       1 UNK         0.0000 
     31 C31         2.3352   50.2330   21.8058 C.3       1 UNK         0.0000 
     32 C32         2.0801   50.7903   20.3843 C.3       1 UNK         0.0000 
     33 C33         0.8119   51.6718   20.3307 C.3       1 UNK         0.0000 
     34 C34        -0.4044   50.9961   21.0144 C.3       1 UNK         0.0000 
     35 C35         1.6668   55.2475   29.9906 C.3       1 UNK         0.0000 
     36 C36         2.4932   52.7641   30.1553 C.3       1 UNK         0.0000 
     37 O37         3.7501   53.2983   30.4817 O.3       1 UNK         0.0000 
     38 O38        -0.0953   53.2965   31.4139 O.3       1 UNK         0.0000 
     39 H39         1.4537   50.4138   26.8818 H         1 UNK         0.0000 
     40 H40         2.6943   51.6397   27.2916 H         1 UNK         0.0000 
     41 H41         1.5701   50.8963   28.4796 H         1 UNK         0.0000 
     42 H42        -1.2617   53.0995   27.4355 H         1 UNK         0.0000 
     43 H43        -1.0505   51.3922   27.3359 H         1 UNK         0.0000 
     44 H44        -0.1412   51.2532   29.6275 H         1 UNK         0.0000 
     45 H45        -1.6768   52.0353   29.6302 H         1 UNK         0.0000 
     46 H46         3.6346   53.6682   27.8657 H         1 UNK         0.0000 
     47 H47         3.0119   55.2855   27.5918 H         1 UNK         0.0000 
     48 H48         3.4272   53.7032   21.4926 H         1 UNK         0.0000 
     49 H49         4.5947   54.5349   19.7996 H         1 UNK         0.0000 
     50 H50         5.9040   53.4448   20.1039 H         1 UNK         0.0000 
     51 H51         8.6202   56.1977   19.7732 H         1 UNK         0.0000 
     52 H52         8.4666   54.4970   20.0676 H         1 UNK         0.0000 
     53 H53         8.0380   55.6524   21.3214 H         1 UNK         0.0000 
     54 H54         5.0894   57.0540   19.2813 H         1 UNK         0.0000 
     55 H55         5.9036   57.2391   20.8450 H         1 UNK         0.0000 
     56 H56         6.7250   57.6474   19.3558 H         1 UNK         0.0000 
     57 H57         5.6827   55.2115   17.6682 H         1 UNK         0.0000 
     58 H58         7.3237   55.8276   17.6448 H         1 UNK         0.0000 
     59 H59         7.0255   54.1360   18.0148 H         1 UNK         0.0000 
     60 H60         1.3195   50.7678   24.7057 H         1 UNK         0.0000 
     61 H61        -0.3036   50.7366   25.3401 H         1 UNK         0.0000 
     62 H62         1.1671   49.1576   23.4083 H         1 UNK         0.0000 
     63 H63         0.6984   48.8094   21.8162 H         1 UNK         0.0000 
     64 H64         2.7376   51.0141   22.4538 H         1 UNK         0.0000 
     65 H65         3.1036   49.4631   21.7600 H         1 UNK         0.0000 
     66 H66         1.9644   49.9574   19.6889 H         1 UNK         0.0000 
     67 H67         2.9465   51.3530   20.0327 H         1 UNK         0.0000 
     68 H68         0.5695   51.8913   19.2906 H         1 UNK         0.0000 
     69 H69         1.0080   52.6378   20.8005 H         1 UNK         0.0000 
     70 H70        -0.6497   50.0539   20.5203 H         1 UNK         0.0000 
     71 H71        -1.3345   51.5624   20.9802 H         1 UNK         0.0000 
     72 H72         1.5032   55.3538   31.0611 H         1 UNK         0.0000 
     73 H73         2.6843   55.5901   29.7998 H         1 UNK         0.0000 
     74 H74         0.9998   55.9590   29.4999 H         1 UNK         0.0000 
     75 H75         2.1112   52.2627   31.0471 H         1 UNK         0.0000 
     76 H76         2.8271   51.9726   29.5096 H         1 UNK         0.0000 
     77 H77         4.3322   52.5783   30.7490 H         1 UNK         0.0000 
     78 H78        -0.7065   52.5923   31.6827 H         1 UNK         0.0000 
@<TRIPOS>BOND
     1    1    2 1    
     2    1   39 1    
     3    1   40 1    
     4    1   41 1    
     5    2    8 1    
     6    2   24 1    
     7    2    3 1    
     8    3    4 1    
     9    3   42 1    
    10    3   43 1    
    11    4    5 1    
    12    4   44 1    
    13    4   45 1    
    14    5    6 1    
    15    5    7 1    
    16    5   38 1    
    17    7    8 1    
    18    7   35 1    
    19    7   36 1    
    20    8    9 1    
    21    8   10 1    
    22   10   11 1    
    23   10   46 1    
    24   10   47 1    
    25   11   15 1    
    26   11   12 2    
    27   12   13 1    
    28   12   24 1    
    29   13   14 2    
    30   14   15 1    
    31   14   16 am   BACKBONE|DICT|INTERRES
    32   16   17 am   BACKBONE|DICT|INTERRES
    33   16   48 1    
    34   17   18 2    
    35   17   19 1    
    36   19   20 1    
    37   19   49 1    
    38   19   50 1    
    39   20   21 1    
    40   20   22 1    
    41   20   23 1    
    42   21   51 1    
    43   21   52 1    
    44   21   53 1    
    45   22   54 1    
    46   22   55 1    
    47   22   56 1    
    48   23   57 1    
    49   23   58 1    
    50   23   59 1    
    51   24   25 1    
    52   24   26 1    
    53   26   27 1    
    54   26   60 1    
    55   26   61 1    
    56   27   28 2    
    57   27   29 am   BACKBONE|DICT|INTERRES
    58   29   34 1    
    59   29   30 1    
    60   30   31 1    
    61   30   62 1    
    62   30   63 1    
    63   31   32 1    
    64   31   64 1    
    65   31   65 1    
    66   32   33 1    
    67   32   66 1    
    68   32   67 1    
    69   33   34 1    
    70   33   68 1    
    71   33   69 1    
    72   34   70 1    
    73   34   71 1    
    74   35   72 1    
    75   35   73 1    
    76   35   74 1    
    77   36   37 1    
    78   36   75 1    
    79   36   76 1    
    80   37   77 1    
    81   38   78 1    
@<TRIPOS>SUBSTRUCTURE
     1 UNK         1 GROUP             0       ****    0 ROOT    
