@<TRIPOS>MOLECULE
ZINC39676077_3079
75   79    1
SMALL
USER_CHARGES


@<TRIPOS>ATOM
      1 C1          0.8934   50.8666   24.2829 C.3       1 UNK         0.0000 
      2 C2          0.5393   51.2192   25.7496 C.3       1 UNK         0.0000 
      3 C3          1.4392   52.2492   26.5260 C.3       1 UNK         0.0000 
      4 H4          2.3044   51.7053   26.8818 H         1 UNK         0.0000 
      5 C5          0.8353   52.6893   27.8902 C.ar      1 UNK         0.0000 
      6 C6          1.1558   53.9213   28.4910 C.ar      1 UNK         0.0000 
      7 C7          0.7039   54.2328   29.7718 C.ar      1 UNK         0.0000 
      8 C8         -0.0773   53.3174   30.4708 C.ar      1 UNK         0.0000 
      9 C9         -0.4113   52.0969   29.8979 C.ar      1 UNK         0.0000 
     10 C10         0.0481   51.7841   28.6228 C.ar      1 UNK         0.0000 
     11 C11         1.9470   53.4192   25.6227 C.2       1 UNK         0.0000 
     12 O12         1.1879   53.8714   24.7641 O.2       1 UNK         0.0000 
     13 N13         3.1724   53.9703   25.8308 N.am      1 UNK         0.0000 
     14 C14         3.6288   55.1442   25.0941 C.3       1 UNK         0.0000 
     15 C15         5.1521   55.1184   25.1650 C.3       1 UNK         0.0000 
     16 H16         5.4985   56.1435   25.3080 H         1 UNK         0.0000 
     17 C17         5.4893   54.3097   26.4454 C.3       1 UNK         0.0000 
     18 C18         4.2613   53.3791   26.6033 C.3       1 UNK         0.0000 
     19 C19         6.8861   53.6529   26.4481 C.3       1 UNK         0.0000 
     20 C20         7.0421   52.7789   27.6816 C.3       1 UNK         0.0000 
     21 N21         7.0238   53.6967   28.8817 N.4       1 UNK         0.0000 
     22 C22         5.7178   54.4972   29.0084 C.3       1 UNK         0.0000 
     23 C23         5.5309   55.2387   27.6795 C.3       1 UNK         0.0000 
     24 C24         5.8322   54.6224   23.8624 C.2       1 UNK         0.0000 
     25 O25         5.5213   53.5480   23.3564 O.2       1 UNK         0.0000 
     26 N26         6.7044   55.4776   23.3010 N.am      1 UNK         0.0000 
     27 C27         7.4488   55.2976   22.0525 C.3       1 UNK         0.0000 
     28 C28         6.5840   55.4161   20.8094 C.ar      1 UNK         0.0000 
     29 C29         6.7026   56.3184   19.7382 C.ar      1 UNK         0.0000 
     30 N30         5.7793   56.1768   18.8147 N.2       1 UNK         0.0000 
     31 N31         5.0441   55.1415   19.2343 N.pl3     1 UNK         0.0000 
     32 C32         5.5023   54.6374   20.4205 C.ar      1 UNK         0.0000 
     33 C33         3.8683   54.7155   18.4797 C.3       1 UNK         0.0000 
     34 C34         4.1429   54.2667   17.0487 C.ar      1 UNK         0.0000 
     35 C35         4.2041   52.9033   16.7416 C.ar      1 UNK         0.0000 
     36 C36         4.4435   52.4968   15.4320 C.ar      1 UNK         0.0000 
     37 C37         4.6230   53.4510   14.4332 C.ar      1 UNK         0.0000 
     38 C38         4.5616   54.8107   14.7313 C.ar      1 UNK         0.0000 
     39 C39         4.3181   55.2196   16.0399 C.ar      1 UNK         0.0000 
     40 H40         0.3122   50.0054   23.9506 H         1 UNK         0.0000 
     41 H41         0.6546   51.6811   23.6000 H         1 UNK         0.0000 
     42 H42         1.9432   50.6191   24.1375 H         1 UNK         0.0000 
     43 H43         0.5364   50.2748   26.2954 H         1 UNK         0.0000 
     44 H44        -0.4928   51.5742   25.7573 H         1 UNK         0.0000 
     45 H45         1.7728   54.6504   27.9887 H         1 UNK         0.0000 
     46 H46         0.9598   55.1817   30.2211 H         1 UNK         0.0000 
     47 H47        -0.4214   53.5424   31.4711 H         1 UNK         0.0000 
     48 H48        -1.0105   51.3852   30.4496 H         1 UNK         0.0000 
     49 H49        -0.2111   50.8123   28.2308 H         1 UNK         0.0000 
     50 H50         3.2568   55.2700   24.0740 H         1 UNK         0.0000 
     51 H51         3.3863   56.0226   25.6817 H         1 UNK         0.0000 
     52 H52         4.0119   53.0435   27.6072 H         1 UNK         0.0000 
     53 H53         4.5493   52.4967   26.0816 H         1 UNK         0.0000 
     54 H54         7.0323   53.0037   25.5884 H         1 UNK         0.0000 
     55 H55         7.6531   54.4233   26.3792 H         1 UNK         0.0000 
     56 H56         6.2127   52.0973   27.8540 H         1 UNK         0.0000 
     57 H57         7.9766   52.2464   27.7501 H         1 UNK         0.0000 
     58 H58         7.1740   53.1656   29.7300 H         1 UNK         0.0000 
     59 H59         4.9233   53.8004   29.2756 H         1 UNK         0.0000 
     60 H60         5.8582   55.1911   29.8399 H         1 UNK         0.0000 
     61 H61         6.3044   56.0090   27.5844 H         1 UNK         0.0000 
     62 H62         4.5523   55.6966   27.7484 H         1 UNK         0.0000 
     63 H63         6.9321   56.3182   23.8081 H         1 UNK         0.0000 
     64 H64         8.2477   56.0392   22.0332 H         1 UNK         0.0000 
     65 H65         7.9711   54.3477   22.0819 H         1 UNK         0.0000 
     66 H66         7.4614   57.0787   19.6337 H         1 UNK         0.0000 
     67 H67         5.0075   53.7994   20.8891 H         1 UNK         0.0000 
     68 H68         3.3760   53.9117   19.0285 H         1 UNK         0.0000 
     69 H69         3.1530   55.5393   18.4800 H         1 UNK         0.0000 
     70 H70         4.0730   52.1544   17.5121 H         1 UNK         0.0000 
     71 H71         4.4920   51.4420   15.1992 H         1 UNK         0.0000 
     72 H72         4.8138   53.1323   13.4195 H         1 UNK         0.0000 
     73 H73         4.7052   55.5450   13.9524 H         1 UNK         0.0000 
     74 H74         4.2732   56.2749   16.2697 H         1 UNK         0.0000 
     75 H75         7.7820   54.3662   28.8365 H         1 UNK         0.0000 
@<TRIPOS>BOND
     1    1    2 1    
     2    1   40 1    
     3    1   41 1    
     4    1   42 1    
     5    2    3 1    
     6    2   43 1    
     7    2   44 1    
     8    3    4 1    
     9    3    5 1    
    10    3   11 1    
    11    5   10 ar   
    12    5    6 ar   
    13    6    7 ar   
    14    6   45 1    
    15    7    8 ar   
    16    7   46 1    
    17    8    9 ar   
    18    8   47 1    
    19    9   10 ar   
    20    9   48 1    
    21   10   49 1    
    22   11   12 2    
    23   11   13 am   BACKBONE|DICT|INTERRES
    24   13   18 1    
    25   13   14 1    
    26   14   15 1    
    27   14   50 1    
    28   14   51 1    
    29   15   16 1    
    30   15   17 1    
    31   15   24 1    
    32   17   23 1    
    33   17   18 1    
    34   17   19 1    
    35   18   52 1    
    36   18   53 1    
    37   19   20 1    
    38   19   54 1    
    39   19   55 1    
    40   20   21 1    
    41   20   56 1    
    42   20   57 1    
    43   21   22 1    
    44   21   58 1    
    45   21   75 1    
    46   22   23 1    
    47   22   59 1    
    48   22   60 1    
    49   23   61 1    
    50   23   62 1    
    51   24   25 2    
    52   24   26 am   BACKBONE|DICT|INTERRES
    53   26   27 1    
    54   26   63 1    
    55   27   28 1    
    56   27   64 1    
    57   27   65 1    
    58   28   32 ar   
    59   28   29 ar   
    60   29   30 ar   
    61   29   66 1    
    62   30   31 ar   
    63   31   32 ar   
    64   31   33 1    
    65   32   67 1    
    66   33   34 1    
    67   33   68 1    
    68   33   69 1    
    69   34   39 ar   
    70   34   35 ar   
    71   35   36 ar   
    72   35   70 1    
    73   36   37 ar   
    74   36   71 1    
    75   37   38 ar   
    76   37   72 1    
    77   38   39 ar   
    78   38   73 1    
    79   39   74 1    
@<TRIPOS>SUBSTRUCTURE
     1 UNK         1 GROUP             0       ****    0 ROOT    
