@<TRIPOS>MOLECULE
ZINC32697618_2874
59   62    1
SMALL
USER_CHARGES


@<TRIPOS>ATOM
      1 C1          6.5869   56.5211   20.3540 C.3       1 UNK         0.0000 
      2 C2          7.0963   55.3030   21.1395 C.3       1 UNK         0.0000 
      3 O3          6.1242   54.8754   22.0907 O.3       1 UNK         0.0000 
      4 C4          5.1048   54.0495   21.7451 C.2       1 UNK         0.0000 
      5 O5          4.9650   53.5781   20.6131 O.2       1 UNK         0.0000 
      6 C6          4.1526   53.7985   22.8564 C.2       1 UNK         0.0000 
      7 C7          4.3515   54.0972   24.2486 C.2       1 UNK         0.0000 
      8 C8          3.2062   53.8213   25.0284 C.2       1 UNK         0.0000 
      9 S9          1.8972   53.2046   24.0686 S.3       1 UNK         0.0000 
     10 C10         2.8912   53.1971   22.6453 C.2       1 UNK         0.0000 
     11 N11         2.4644   52.6357   21.4382 N.am      1 UNK         0.0000 
     12 C12         1.2733   52.0967   21.1030 C.2       1 UNK         0.0000 
     13 O13         0.2703   52.0964   21.8165 O.2       1 UNK         0.0000 
     14 C14         1.2440   51.4388   19.7135 C.3       1 UNK         0.0000 
     15 S15        -0.4230   51.0996   19.0397 S.3       1 UNK         0.0000 
     16 C16        -0.7851   52.5983   18.1774 C.ar      1 UNK         0.0000 
     17 N17         0.1190   53.6038   17.9090 N.pl3     1 UNK         0.0000 
     18 H18         1.0879   53.5750   18.1938 H         1 UNK         0.0000 
     19 C19        -0.5575   54.6222   17.2817 C.ar      1 UNK         0.0000 
     20 C20        -0.1893   55.8916   16.8269 C.ar      1 UNK         0.0000 
     21 C21        -1.2044   56.6625   16.2537 C.ar      1 UNK         0.0000 
     22 C22        -2.5168   56.1959   16.1278 C.ar      1 UNK         0.0000 
     23 C23        -2.8682   54.9179   16.5779 C.ar      1 UNK         0.0000 
     24 C24        -1.8784   54.1278   17.1757 C.ar      1 UNK         0.0000 
     25 N25        -1.9855   52.8789   17.7296 N.2       1 UNK         0.0000 
     26 C26        -3.5709   57.0745   15.4800 C.3       1 UNK         0.0000 
     27 C27         3.0072   54.0750   26.4488 C.2       1 UNK         0.0000 
     28 O28         3.7053   54.8959   27.0404 O.2       1 UNK         0.0000 
     29 N29         2.0099   53.3712   27.0328 N.am      1 UNK         0.0000 
     30 C30         1.4723   53.5152   28.3251 C.ar      1 UNK         0.0000 
     31 C31         1.5806   54.6931   29.0840 C.ar      1 UNK         0.0000 
     32 C32         0.9977   54.7653   30.3459 C.ar      1 UNK         0.0000 
     33 C33         0.3048   53.6681   30.8518 C.ar      1 UNK         0.0000 
     34 C34         0.1707   52.5059   30.0975 C.ar      1 UNK         0.0000 
     35 C35         0.7522   52.4302   28.8335 C.ar      1 UNK         0.0000 
     36 C36         5.6823   54.5386   24.8596 C.3       1 UNK         0.0000 
     37 H37         7.3547   56.8947   19.6763 H         1 UNK         0.0000 
     38 H38         5.7114   56.2718   19.7526 H         1 UNK         0.0000 
     39 H39         6.3043   57.3281   21.0299 H         1 UNK         0.0000 
     40 H40         8.0013   55.5712   21.6834 H         1 UNK         0.0000 
     41 H41         7.3646   54.4973   20.4543 H         1 UNK         0.0000 
     42 H42         3.1684   52.6676   20.7119 H         1 UNK         0.0000 
     43 H43         1.7249   50.4673   19.8283 H         1 UNK         0.0000 
     44 H44         1.8536   51.9812   18.9923 H         1 UNK         0.0000 
     45 H45         0.8190   56.2655   16.9202 H         1 UNK         0.0000 
     46 H46        -0.9570   57.6530   15.8925 H         1 UNK         0.0000 
     47 H47        -3.8794   54.5521   16.4821 H         1 UNK         0.0000 
     48 H48        -3.1309   57.6926   14.6945 H         1 UNK         0.0000 
     49 H49        -4.0309   57.7285   16.2212 H         1 UNK         0.0000 
     50 H50        -4.3493   56.4757   15.0061 H         1 UNK         0.0000 
     51 H51         1.5811   52.6523   26.4712 H         1 UNK         0.0000 
     52 H52         2.0967   55.5618   28.7067 H         1 UNK         0.0000 
     53 H53         1.0796   55.6710   30.9320 H         1 UNK         0.0000 
     54 H54        -0.1465   53.7162   31.8334 H         1 UNK         0.0000 
     55 H55        -0.3890   51.6712   30.4984 H         1 UNK         0.0000 
     56 H56         0.6392   51.5215   28.2599 H         1 UNK         0.0000 
     57 H57         6.5385   54.0809   24.3609 H         1 UNK         0.0000 
     58 H58         5.8148   55.6192   24.8242 H         1 UNK         0.0000 
     59 H59         5.7998   54.2205   25.8932 H         1 UNK         0.0000 
@<TRIPOS>BOND
     1    1    2 1    
     2    1   37 1    
     3    1   38 1    
     4    1   39 1    
     5    2    3 1    
     6    2   40 1    
     7    2   41 1    
     8    3    4 1    
     9    4    5 2    
    10    4    6 1    
    11    6   10 2    
    12    6    7 1    
    13    7    8 2    
    14    7   36 1    
    15    8    9 1    
    16    8   27 1    
    17    9   10 1    
    18   10   11 am   BACKBONE|DICT|INTERRES
    19   11   12 am   BACKBONE|DICT|INTERRES
    20   11   42 1    
    21   12   13 2    
    22   12   14 1    
    23   14   15 1    
    24   14   43 1    
    25   14   44 1    
    26   15   16 1    
    27   16   25 ar   
    28   16   17 ar   
    29   17   18 1    
    30   17   19 ar   
    31   19   24 ar   
    32   19   20 ar   
    33   20   21 ar   
    34   20   45 1    
    35   21   22 ar   
    36   21   46 1    
    37   22   23 ar   
    38   22   26 1    
    39   23   24 ar   
    40   23   47 1    
    41   24   25 ar   
    42   26   48 1    
    43   26   49 1    
    44   26   50 1    
    45   27   28 2    
    46   27   29 am   BACKBONE|DICT|INTERRES
    47   29   30 1    
    48   29   51 1    
    49   30   35 ar   
    50   30   31 ar   
    51   31   32 ar   
    52   31   52 1    
    53   32   33 ar   
    54   32   53 1    
    55   33   34 ar   
    56   33   54 1    
    57   34   35 ar   
    58   34   55 1    
    59   35   56 1    
    60   36   57 1    
    61   36   58 1    
    62   36   59 1    
@<TRIPOS>SUBSTRUCTURE
     1 UNK         1 GROUP             0       ****    0 ROOT    
