@<TRIPOS>MOLECULE
ZINC35684478_2686
52   55    1
SMALL
USER_CHARGES


@<TRIPOS>ATOM
      1 C1          4.2752   53.4695   22.9066 C.3       1 UNK         0.0000 
      2 C2          5.1561   54.2235   21.9334 C.ar      1 UNK         0.0000 
      3 C3          4.8059   54.2538   20.5851 C.ar      1 UNK         0.0000 
      4 C4          5.5856   54.9708   19.6857 C.ar      1 UNK         0.0000 
      5 C5          6.7166   55.6646   20.1268 C.ar      1 UNK         0.0000 
      6 C6          7.0918   55.5900   21.4733 C.ar      1 UNK         0.0000 
      7 C7          6.3080   54.8772   22.3772 C.ar      1 UNK         0.0000 
      8 C8          7.4950   56.4930   19.1574 C.ar      1 UNK         0.0000 
      9 C9          6.9757   57.3134   18.1248 C.ar      1 UNK         0.0000 
     10 C10         8.1087   57.8593   17.5517 C.ar      1 UNK         0.0000 
     11 N11         9.1862   57.3911   18.2588 N.pl3     1 UNK         0.0000 
     12 N12         8.8135   56.5442   19.2248 N.2       1 UNK         0.0000 
     13 C13        10.5450   57.9164   18.0649 C.3       1 UNK         0.0000 
     14 H14        11.2738   57.2200   18.4805 H         1 UNK         0.0000 
     15 C15        10.6988   58.1165   16.5099 C.3       1 UNK         0.0000 
     16 C16         9.5127   58.8933   15.8551 C.2       1 UNK         0.0000 
     17 O17         9.6301   59.5989   14.8584 O.2       1 UNK         0.0000 
     18 N18         8.3248   58.7004   16.4731 N.am      1 UNK         0.0000 
     19 C19        10.7929   59.2758   18.7794 C.2       1 UNK         0.0000 
     20 O20         9.8789   60.0967   18.8817 O.2       1 UNK         0.0000 
     21 N21        12.0389   59.5233   19.2379 N.am      1 UNK         0.0000 
     22 C22        12.4791   60.7660   19.7274 C.ar      1 UNK         0.0000 
     23 C23        12.3045   61.9405   18.9838 C.ar      1 UNK         0.0000 
     24 C24        12.7619   63.1585   19.4824 C.ar      1 UNK         0.0000 
     25 C25        13.4018   63.2107   20.7203 C.ar      1 UNK         0.0000 
     26 C26        13.6033   62.0449   21.4745 C.ar      1 UNK         0.0000 
     27 C27        13.1413   60.8239   20.9572 C.ar      1 UNK         0.0000 
     28 C28        14.3037   62.1324   22.7980 C.2       1 UNK         0.0000 
     29 O29        14.7320   63.1836   23.2726 O.2       1 UNK         0.0000 
     30 C30        14.4765   60.8501   23.6120 C.3       1 UNK         0.0000 
     31 C31         5.5367   57.6220   17.7667 C.3       1 UNK         0.0000 
     32 H32         3.3519   54.0212   23.0853 H         1 UNK         0.0000 
     33 H33         4.0063   52.5008   22.4820 H         1 UNK         0.0000 
     34 H34         4.7781   53.2969   23.8591 H         1 UNK         0.0000 
     35 H35         3.9221   53.7397   20.2340 H         1 UNK         0.0000 
     36 H36         5.2989   54.9911   18.6441 H         1 UNK         0.0000 
     37 H37         7.9780   56.0966   21.8288 H         1 UNK         0.0000 
     38 H38         6.5940   54.8434   23.4185 H         1 UNK         0.0000 
     39 H39        11.6135   58.6566   16.2608 H         1 UNK         0.0000 
     40 H40        10.7335   57.1457   16.0142 H         1 UNK         0.0000 
     41 H41         7.5569   59.2165   16.0686 H         1 UNK         0.0000 
     42 H42        12.6912   58.7548   19.2806 H         1 UNK         0.0000 
     43 H43        11.8222   61.9089   18.0165 H         1 UNK         0.0000 
     44 H44        12.6327   64.0625   18.9042 H         1 UNK         0.0000 
     45 H45        13.7494   64.1688   21.0826 H         1 UNK         0.0000 
     46 H46        13.2795   59.9119   21.5136 H         1 UNK         0.0000 
     47 H47        15.0710   60.1255   23.0574 H         1 UNK         0.0000 
     48 H48        14.9756   61.0578   24.5581 H         1 UNK         0.0000 
     49 H49        13.5056   60.4045   23.8236 H         1 UNK         0.0000 
     50 H50         5.3946   58.6989   17.6681 H         1 UNK         0.0000 
     51 H51         5.2549   57.1878   16.8077 H         1 UNK         0.0000 
     52 H52         4.8209   57.2969   18.5197 H         1 UNK         0.0000 
@<TRIPOS>BOND
     1    1    2 1    
     2    1   32 1    
     3    1   33 1    
     4    1   34 1    
     5    2    7 ar   
     6    2    3 ar   
     7    3    4 ar   
     8    3   35 1    
     9    4    5 ar   
    10    4   36 1    
    11    5    6 ar   
    12    5    8 1    
    13    6    7 ar   
    14    6   37 1    
    15    7   38 1    
    16    8   12 ar   
    17    8    9 ar   
    18    9   10 ar   
    19    9   31 1    
    20   10   18 1    
    21   10   11 ar   
    22   11   12 ar   
    23   11   13 1    
    24   13   14 1    
    25   13   15 1    
    26   13   19 1    
    27   15   16 1    
    28   15   39 1    
    29   15   40 1    
    30   16   17 2    
    31   16   18 am   BACKBONE|DICT|INTERRES
    32   18   41 1    
    33   19   20 2    
    34   19   21 am   BACKBONE|DICT|INTERRES
    35   21   22 1    
    36   21   42 1    
    37   22   27 ar   
    38   22   23 ar   
    39   23   24 ar   
    40   23   43 1    
    41   24   25 ar   
    42   24   44 1    
    43   25   26 ar   
    44   25   45 1    
    45   26   27 ar   
    46   26   28 1    
    47   27   46 1    
    48   28   29 2    
    49   28   30 1    
    50   30   47 1    
    51   30   48 1    
    52   30   49 1    
    53   31   50 1    
    54   31   51 1    
    55   31   52 1    
@<TRIPOS>SUBSTRUCTURE
     1 UNK         1 GROUP             0       ****    0 ROOT    
