ZINC65359919_6214
                    3D
 Schrodinger Suite 2024-2.
 58 60  0  0  1  0            999 V2000
    5.3807   54.0227   28.8819 C   0  0  0  0  0  0
    5.1706   54.4250   27.4209 C   0  0  1  0  0  0
    6.3893   54.0494   26.5721 C   0  0  0  0  0  0
    6.2205   54.5530   25.1316 C   0  0  0  0  0  0
    4.9397   53.9069   24.5231 N   0  3  1  0  0  0
    3.6827   54.2207   25.3813 C   0  0  0  0  0  0
    3.9266   53.7504   26.8249 C   0  0  0  0  0  0
    4.6687   54.2322   23.0190 C   0  0  2  0  0  0
    3.8734   53.0704   22.3769 C   0  0  0  0  0  0
    5.9890   54.5330   22.2600 C   0  0  0  0  0  0
    5.8375   54.6119   20.8059 N   0  0  0  0  0  0
    5.9726   55.7252   20.0764 C   0  0  0  0  0  0
    6.5766   56.7317   20.4625 O   0  0  0  0  0  0
    5.2993   55.6030   18.9185 N   0  0  0  0  0  0
    5.1042   56.5872   17.9416 C   0  0  0  0  0  0
    6.0623   57.5584   17.6189 C   0  0  0  0  0  0
    5.7878   58.4968   16.6272 C   0  0  0  0  0  0
    4.5647   58.4851   15.9591 C   0  0  0  0  0  0
    3.6066   57.5187   16.2770 C   0  0  0  0  0  0
    3.8881   56.5626   17.2565 C   0  0  0  0  0  0
    2.0263   57.4974   15.4331 S   0  0  0  0  0  0
    2.3096   57.3402   14.0025 O   0  0  0  0  0  0
    1.1717   56.5364   16.1397 O   0  0  0  0  0  0
    1.3137   59.0872   15.6817 N   0  0  0  0  0  0
    1.7744   60.2675   14.9328 C   0  0  0  0  0  0
    1.4127   60.3360   13.4618 C   0  0  0  0  0  0
    0.6943   61.2146   14.4556 C   0  0  0  0  0  0
    5.5004   52.9420   28.9861 H   0  0  0  0  0  0
    4.5417   54.3317   29.5071 H   0  0  0  0  0  0
    6.2795   54.4966   29.2810 H   0  0  0  0  0  0
    5.0422   55.5028   27.3679 H   0  0  0  0  0  0
    7.2892   54.4795   27.0134 H   0  0  0  0  0  0
    6.5629   52.9714   26.5997 H   0  0  0  0  0  0
    6.1248   55.6370   25.0560 H   0  0  0  0  0  0
    7.0889   54.2115   24.5676 H   0  0  0  0  0  0
    3.5009   55.2952   25.3142 H   0  0  0  0  0  0
    2.8378   53.6730   24.9633 H   0  0  0  0  0  0
    4.0203   52.6656   26.8818 H   0  0  0  0  0  0
    3.0540   53.9754   27.4398 H   0  0  0  0  0  0
    4.0278   55.1155   23.0345 H   0  0  0  0  0  0
    3.4623   53.3755   21.4132 H   0  0  0  0  0  0
    4.5051   52.2028   22.1841 H   0  0  0  0  0  0
    3.0242   52.7445   22.9765 H   0  0  0  0  0  0
    6.4360   55.4567   22.6396 H   0  0  0  0  0  0
    6.7073   53.7430   22.4793 H   0  0  0  0  0  0
    5.6238   53.7516   20.3210 H   0  0  0  0  0  0
    4.7476   54.7661   18.7981 H   0  0  0  0  0  0
    7.0147   57.5922   18.1253 H   0  0  0  0  0  0
    6.5176   59.2591   16.3912 H   0  0  0  0  0  0
    4.3661   59.2296   15.2036 H   0  0  0  0  0  0
    3.1490   55.8100   17.4982 H   0  0  0  0  0  0
    1.0207   59.2813   16.6512 H   0  0  0  0  0  0
    2.7043   60.7155   15.2804 H   0  0  0  0  0  0
    2.1397   60.7772   12.7791 H   0  0  0  0  0  0
    0.8845   59.4927   13.0137 H   0  0  0  0  0  0
   -0.3438   60.9927   14.7057 H   0  0  0  0  0  0
    0.9060   62.2829   14.4741 H   0  0  0  0  0  0
    5.0863   52.9067   24.5782 H   0  0  0  0  0  0
  1  2  1  0  0  0
  1 28  1  0  0  0
  1 29  1  0  0  0
  1 30  1  0  0  0
  2  7  1  0  0  0
  2  3  1  0  0  0
  2 31  1  0  0  0
  3  4  1  0  0  0
  3 32  1  0  0  0
  3 33  1  0  0  0
  4  5  1  0  0  0
  4 34  1  0  0  0
  4 35  1  0  0  0
  5  6  1  0  0  0
  5  8  1  0  0  0
  5 58  1  0  0  0
  6  7  1  0  0  0
  6 36  1  0  0  0
  6 37  1  0  0  0
  7 38  1  0  0  0
  7 39  1  0  0  0
  8  9  1  0  0  0
  8 10  1  0  0  0
  8 40  1  0  0  0
  9 41  1  0  0  0
  9 42  1  0  0  0
  9 43  1  0  0  0
 10 11  1  0  0  0
 10 44  1  0  0  0
 10 45  1  0  0  0
 11 12  1  0  0  0
 11 46  1  0  0  0
 12 13  2  0  0  0
 12 14  1  0  0  0
 14 15  1  0  0  0
 14 47  1  0  0  0
 15 20  2  0  0  0
 15 16  1  0  0  0
 16 17  2  0  0  0
 16 48  1  0  0  0
 17 18  1  0  0  0
 17 49  1  0  0  0
 18 19  2  0  0  0
 18 50  1  0  0  0
 19 20  1  0  0  0
 19 21  1  0  0  0
 20 51  1  0  0  0
 21 22  2  0  0  0
 21 23  2  0  0  0
 21 24  1  0  0  0
 24 25  1  0  0  0
 24 52  1  0  0  0
 25 27  1  0  0  0
 25 26  1  0  0  0
 25 53  1  0  0  0
 26 27  1  0  0  0
 26 54  1  0  0  0
 26 55  1  0  0  0
 27 56  1  0  0  0
 27 57  1  0  0  0
M  CHG  1   5   1
M  END
> <i_i_glide_confnum>
12

> <i_i_glide_lignum>
6215

> <i_i_glide_posenum>
13

> <i_i_glide_rotatable_bonds>
9

> <i_m_Source_File_Index>
5935

> <b_m_subgroup_collapsed>
0

> <r_i_docking_score>
-4.06794

> <r_i_glide_ecoul>
-7.88419

> <r_i_glide_eff_state_penalty>
0

> <r_i_glide_einternal>
12.7076

> <r_i_glide_emodel>
-38.0619

> <r_i_glide_energy>
-34.6372

> <r_i_glide_erotb>
1.12496

> <r_i_glide_esite>
-0.0602879

> <r_i_glide_evdw>
-26.753

> <r_i_glide_gscore>
-4.06794

> <r_i_glide_hbond>
-0.541058

> <r_i_glide_ligand_efficiency>
-0.150665

> <r_i_glide_ligand_efficiency_ln>
-0.94695

> <r_i_glide_ligand_efficiency_sa>
-0.451994

> <r_i_glide_lipo>
-2.21267

> <r_i_glide_metal>
0

> <r_i_glide_rewards>
0.141384

> <s_i_glide_gridfile>
wee1_glide-grid

> <s_m_Source_File>
wee1_decoys_glide_SP.sdf

> <s_m_Source_Path>
/Users/zhangxujun/Desktop

> <s_m_entry_id>
6210

> <s_m_entry_name>
wee1_decoys_glide_SP.5935

> <s_m_subgroup_title>
wee1_decoys_glide_SP

> <s_m_subgroupid>
wee1_decoys_glide_SP


$$$$
