@<TRIPOS>MOLECULE
ZINC58949987_4756
46   48    1
SMALL
USER_CHARGES


@<TRIPOS>ATOM
      1 C1          0.1369   50.9475   26.5131 C.3       1 UNK         0.0000 
      2 C2         -0.8227   51.5784   25.5130 C.ar      1 UNK         0.0000 
      3 C3         -1.9528   52.2318   26.0185 C.ar      1 UNK         0.0000 
      4 C4         -2.8546   52.8555   25.1604 C.ar      1 UNK         0.0000 
      5 C5         -2.6337   52.8379   23.7875 C.ar      1 UNK         0.0000 
      6 C6         -1.5253   52.1729   23.2710 C.ar      1 UNK         0.0000 
      7 C7         -0.6092   51.5314   24.1165 C.ar      1 UNK         0.0000 
      8 C8          0.5519   50.7601   23.4502 C.3       1 UNK         0.0000 
      9 H9          1.2076   50.4307   24.2563 H         1 UNK         0.0000 
     10 C10         1.4676   51.6364   22.5513 C.2       1 UNK         0.0000 
     11 C11         1.5936   51.3688   21.2251 C.2       1 UNK         0.0000 
     12 C12         2.4448   52.1629   20.2406 C.3       1 UNK         0.0000 
     13 C13         3.6495   52.8189   20.9751 C.3       1 UNK         0.0000 
     14 C14         3.1167   53.5917   22.2180 C.3       1 UNK         0.0000 
     15 C15         2.1943   52.7775   23.1475 C.2       1 UNK         0.0000 
     16 O16         2.0145   53.1358   24.3094 O.2       1 UNK         0.0000 
     17 C17         4.6507   51.7164   21.4031 C.3       1 UNK         0.0000 
     18 C18         4.2918   53.8471   20.0217 C.3       1 UNK         0.0000 
     19 O19         0.9725   50.3355   20.6070 O.3       1 UNK         0.0000 
     20 C20         0.2847   49.4188   21.3242 C.2       1 UNK         0.0000 
     21 C21         0.0578   49.5196   22.6572 C.2       1 UNK         0.0000 
     22 C22        -0.6835   48.4990   23.3746 C.2       1 UNK         0.0000 
     23 O23        -1.7497   48.0278   22.9820 O.2       1 UNK         0.0000 
     24 N24        -0.0948   48.0557   24.4847 N.am      1 UNK         0.0000 
     25 N25        -0.1014   48.4294   20.4568 N.pl3     1 UNK         0.0000 
     26 H26         1.1210   51.4036   26.4253 H         1 UNK         0.0000 
     27 H27        -0.2037   51.0696   27.5420 H         1 UNK         0.0000 
     28 H28         0.2473   49.8791   26.3332 H         1 UNK         0.0000 
     29 H29        -2.1370   52.2626   27.0830 H         1 UNK         0.0000 
     30 H30        -3.7148   53.3652   25.5649 H         1 UNK         0.0000 
     31 H31        -3.3226   53.3352   23.1245 H         1 UNK         0.0000 
     32 H32        -1.3788   52.1448   22.2005 H         1 UNK         0.0000 
     33 H33         2.8295   51.5149   19.4513 H         1 UNK         0.0000 
     34 H34         1.7825   52.8945   19.7784 H         1 UNK         0.0000 
     35 H35         3.9175   54.0346   22.8092 H         1 UNK         0.0000 
     36 H36         2.5005   54.4185   21.8673 H         1 UNK         0.0000 
     37 H37         5.4529   52.1193   22.0242 H         1 UNK         0.0000 
     38 H38         4.1796   50.8988   21.9499 H         1 UNK         0.0000 
     39 H39         5.1140   51.2730   20.5212 H         1 UNK         0.0000 
     40 H40         5.1191   54.3722   20.4996 H         1 UNK         0.0000 
     41 H41         4.6825   53.3602   19.1259 H         1 UNK         0.0000 
     42 H42         3.5739   54.5994   19.6933 H         1 UNK         0.0000 
     43 H43         0.8026   48.4210   24.7696 H         1 UNK         0.0000 
     44 H44        -0.5513   47.3649   25.0639 H         1 UNK         0.0000 
     45 H45        -0.7211   47.6914   20.7633 H         1 UNK         0.0000 
     46 H46         0.1371   48.4806   19.4769 H         1 UNK         0.0000 
@<TRIPOS>BOND
     1    1    2 1    
     2    1   26 1    
     3    1   27 1    
     4    1   28 1    
     5    2    7 ar   
     6    2    3 ar   
     7    3    4 ar   
     8    3   29 1    
     9    4    5 ar   
    10    4   30 1    
    11    5    6 ar   
    12    5   31 1    
    13    6    7 ar   
    14    6   32 1    
    15    7    8 1    
    16    8    9 1    
    17    8   21 1    
    18    8   10 1    
    19   10   15 1    
    20   10   11 2    
    21   11   12 1    
    22   11   19 1    
    23   12   13 1    
    24   12   33 1    
    25   12   34 1    
    26   13   14 1    
    27   13   17 1    
    28   13   18 1    
    29   14   15 1    
    30   14   35 1    
    31   14   36 1    
    32   15   16 2    
    33   17   37 1    
    34   17   38 1    
    35   17   39 1    
    36   18   40 1    
    37   18   41 1    
    38   18   42 1    
    39   19   20 1    
    40   20   21 2    
    41   20   25 1    
    42   21   22 1    
    43   22   23 2    
    44   22   24 am   BACKBONE|DICT|INTERRES
    45   24   43 1    
    46   24   44 1    
    47   25   45 1    
    48   25   46 1    
@<TRIPOS>SUBSTRUCTURE
     1 UNK         1 GROUP             0       ****    0 ROOT    
