@<TRIPOS>MOLECULE
ZINC33631716_2914
77   80    1
SMALL
USER_CHARGES


@<TRIPOS>ATOM
      1 C1          2.4581   52.1161   28.5184 C.3       1 UNK         0.0000 
      2 C2          1.1290   51.4147   28.2102 C.3       1 UNK         0.0000 
      3 C3          0.0328   52.3845   27.7327 C.3       1 UNK         0.0000 
      4 C4         -1.3370   51.7111   27.4792 C.3       1 UNK         0.0000 
      5 C5         -1.4049   50.6764   26.3213 C.3       1 UNK         0.0000 
      6 H6         -0.7297   49.8597   26.5856 H         1 UNK         0.0000 
      7 C7         -2.8250   50.0509   26.2393 C.3       1 UNK         0.0000 
      8 C8         -2.9595   48.8545   25.2789 C.3       1 UNK         0.0000 
      9 C9         -0.9657   51.2812   24.9690 C.2       1 UNK         0.0000 
     10 O10        -1.5046   52.3131   24.5639 O.2       1 UNK         0.0000 
     11 N11         0.0089   50.6143   24.3131 N.am      1 UNK         0.0000 
     12 C12         0.5969   50.8842   23.0636 C.ar      1 UNK         0.0000 
     13 C13         0.1652   51.8776   22.1697 C.ar      1 UNK         0.0000 
     14 C14         0.8211   52.0607   20.9559 C.ar      1 UNK         0.0000 
     15 C15         1.9106   51.2560   20.6189 C.ar      1 UNK         0.0000 
     16 C16         2.3258   50.2535   21.4969 C.ar      1 UNK         0.0000 
     17 C17         1.6776   50.0736   22.7137 C.ar      1 UNK         0.0000 
     18 C18         2.6687   51.4846   19.3056 C.3       1 UNK         0.0000 
     19 H19         3.4820   50.7561   19.2817 H         1 UNK         0.0000 
     20 C20         3.3324   52.8718   19.1922 C.2       1 UNK         0.0000 
     21 C21         3.1054   53.6979   18.1441 C.2       1 UNK         0.0000 
     22 N22         2.1929   53.3119   17.1978 N.pl3     1 UNK         0.0000 
     23 C23         1.5502   52.1396   17.1789 C.2       1 UNK         0.0000 
     24 N24         1.8817   51.1991   18.0818 N.pl3     1 UNK         0.0000 
     25 C25         1.4945   49.7792   17.9429 C.3       1 UNK         0.0000 
     26 C26         0.9131   49.5000   16.5456 C.3       1 UNK         0.0000 
     27 C27        -0.2931   50.3826   16.1927 C.3       1 UNK         0.0000 
     28 S28         0.2097   52.1148   16.0835 S.3       1 UNK         0.0000 
     29 C29         3.6972   55.0827   17.9043 C.3       1 UNK         0.0000 
     30 C30         4.3178   53.1866   20.2012 C.2       1 UNK         0.0000 
     31 O31         5.5044   52.9433   20.0139 O.2       1 UNK         0.0000 
     32 N32         3.8045   53.7337   21.3234 N.am      1 UNK         0.0000 
     33 C33         4.4980   54.0952   22.4928 C.ar      1 UNK         0.0000 
     34 C34         3.7876   54.0596   23.6948 C.ar      1 UNK         0.0000 
     35 C35         4.4288   54.3632   24.8951 C.ar      1 UNK         0.0000 
     36 C36         5.7847   54.7286   24.9025 C.ar      1 UNK         0.0000 
     37 C37         6.4698   54.8128   23.6943 C.ar      1 UNK         0.0000 
     38 C38         5.8407   54.4957   22.4955 C.ar      1 UNK         0.0000 
     39 O39         6.5113   55.0217   26.0389 O.3       1 UNK         0.0000 
     40 C40         5.9566   54.6943   27.3080 C.3       1 UNK         0.0000 
     41 H41         3.1913   51.4019   28.8920 H         1 UNK         0.0000 
     42 H42         2.3370   52.8868   29.2784 H         1 UNK         0.0000 
     43 H43         2.8768   52.5826   27.6253 H         1 UNK         0.0000 
     44 H44         1.2982   50.6467   27.4569 H         1 UNK         0.0000 
     45 H45         0.7815   50.8965   29.1047 H         1 UNK         0.0000 
     46 H46        -0.1049   53.1608   28.4876 H         1 UNK         0.0000 
     47 H47         0.3664   52.8998   26.8322 H         1 UNK         0.0000 
     48 H48        -1.6584   51.2311   28.4053 H         1 UNK         0.0000 
     49 H49        -2.0712   52.4946   27.2819 H         1 UNK         0.0000 
     50 H50        -3.1147   49.7045   27.2326 H         1 UNK         0.0000 
     51 H51        -3.5571   50.8142   25.9730 H         1 UNK         0.0000 
     52 H52        -3.9700   48.4444   25.3099 H         1 UNK         0.0000 
     53 H53        -2.7505   49.1366   24.2464 H         1 UNK         0.0000 
     54 H54        -2.2719   48.0556   25.5592 H         1 UNK         0.0000 
     55 H55         0.3785   49.8008   24.7839 H         1 UNK         0.0000 
     56 H56        -0.6714   52.5197   22.3891 H         1 UNK         0.0000 
     57 H57         0.4946   52.8400   20.2809 H         1 UNK         0.0000 
     58 H58         3.1612   49.6171   21.2470 H         1 UNK         0.0000 
     59 H59         2.0265   49.2976   23.3804 H         1 UNK         0.0000 
     60 H60         2.3648   49.1527   18.1152 H         1 UNK         0.0000 
     61 H61         0.7672   49.5534   18.7232 H         1 UNK         0.0000 
     62 H62         1.7033   49.6262   15.8008 H         1 UNK         0.0000 
     63 H63         0.6252   48.4500   16.4872 H         1 UNK         0.0000 
     64 H64        -0.7315   50.1026   15.2354 H         1 UNK         0.0000 
     65 H65        -1.0701   50.3132   16.9544 H         1 UNK         0.0000 
     66 H66         4.4208   55.0477   17.0871 H         1 UNK         0.0000 
     67 H67         2.9165   55.8012   17.6471 H         1 UNK         0.0000 
     68 H68         4.2109   55.4794   18.7846 H         1 UNK         0.0000 
     69 H69         2.7983   53.8171   21.3540 H         1 UNK         0.0000 
     70 H70         2.7478   53.7634   23.7118 H         1 UNK         0.0000 
     71 H71         3.8628   54.3016   25.8094 H         1 UNK         0.0000 
     72 H72         7.5042   55.1153   23.6867 H         1 UNK         0.0000 
     73 H73         6.4101   54.5756   21.5815 H         1 UNK         0.0000 
     74 H74         6.6965   54.8943   28.0816 H         1 UNK         0.0000 
     75 H75         5.0738   55.2956   27.5265 H         1 UNK         0.0000 
     76 H76         5.6948   53.6361   27.3707 H         1 UNK         0.0000 
     77 H77         1.9555   53.9634   16.4652 H         1 UNK         0.0000 
@<TRIPOS>BOND
     1    1    2 1    
     2    1   41 1    
     3    1   42 1    
     4    1   43 1    
     5    2    3 1    
     6    2   44 1    
     7    2   45 1    
     8    3    4 1    
     9    3   46 1    
    10    3   47 1    
    11    4    5 1    
    12    4   48 1    
    13    4   49 1    
    14    5    6 1    
    15    5    7 1    
    16    5    9 1    
    17    7    8 1    
    18    7   50 1    
    19    7   51 1    
    20    8   52 1    
    21    8   53 1    
    22    8   54 1    
    23    9   10 2    
    24    9   11 am   BACKBONE|DICT|INTERRES
    25   11   12 1    
    26   11   55 1    
    27   12   17 ar   
    28   12   13 ar   
    29   13   14 ar   
    30   13   56 1    
    31   14   15 ar   
    32   14   57 1    
    33   15   16 ar   
    34   15   18 1    
    35   16   17 ar   
    36   16   58 1    
    37   17   59 1    
    38   18   19 1    
    39   18   24 1    
    40   18   20 1    
    41   20   21 2    
    42   20   30 1    
    43   21   22 1    
    44   21   29 1    
    45   22   23 2    
    46   22   77 1    
    47   23   28 1    
    48   23   24 1    
    49   24   25 1    
    50   25   26 1    
    51   25   60 1    
    52   25   61 1    
    53   26   27 1    
    54   26   62 1    
    55   26   63 1    
    56   27   28 1    
    57   27   64 1    
    58   27   65 1    
    59   29   66 1    
    60   29   67 1    
    61   29   68 1    
    62   30   31 2    
    63   30   32 am   BACKBONE|DICT|INTERRES
    64   32   33 1    
    65   32   69 1    
    66   33   38 ar   
    67   33   34 ar   
    68   34   35 ar   
    69   34   70 1    
    70   35   36 ar   
    71   35   71 1    
    72   36   37 ar   
    73   36   39 1    
    74   37   38 ar   
    75   37   72 1    
    76   38   73 1    
    77   39   40 1    
    78   40   74 1    
    79   40   75 1    
    80   40   76 1    
@<TRIPOS>SUBSTRUCTURE
     1 UNK         1 GROUP             0       ****    0 ROOT    
