@<TRIPOS>MOLECULE
ZINC02595210_2279
57   59    1
SMALL
USER_CHARGES


@<TRIPOS>ATOM
      1 C1          4.5207   52.6514   28.8819 C.3       1 UNK         0.0000 
      2 C2          3.4935   53.5416   29.5968 C.3       1 UNK         0.0000 
      3 C3          3.2726   54.8951   28.9031 C.3       1 UNK         0.0000 
      4 O4          2.2781   52.8797   29.9693 O.3       1 UNK         0.0000 
      5 C5          1.3002   52.4978   29.0655 C.ar      1 UNK         0.0000 
      6 C6          1.4351   52.4889   27.6697 C.ar      1 UNK         0.0000 
      7 C7          0.3736   52.0978   26.8568 C.ar      1 UNK         0.0000 
      8 C8         -0.8488   51.7118   27.4235 C.ar      1 UNK         0.0000 
      9 C9         -0.9740   51.6967   28.8171 C.ar      1 UNK         0.0000 
     10 C10         0.0884   52.0950   29.6250 C.ar      1 UNK         0.0000 
     11 C11        -2.0422   51.3829   26.5581 C.2       1 UNK         0.0000 
     12 O12        -3.1705   51.7198   26.9133 O.2       1 UNK         0.0000 
     13 N13        -1.7618   50.7469   25.4024 N.am      1 UNK         0.0000 
     14 C14        -2.5722   50.4838   24.1832 C.3       1 UNK         0.0000 
     15 C15        -1.9494   51.2734   23.0289 C.2       1 UNK         0.0000 
     16 O16        -2.0166   52.4954   22.8841 O.2       1 UNK         0.0000 
     17 N17        -1.3453   50.3384   22.2515 N.am      1 UNK         0.0000 
     18 C18        -1.7431   49.1273   22.7401 C.2       1 UNK         0.0000 
     19 N19        -2.4031   49.1157   23.8164 N.2       1 UNK         0.0000 
     20 O20        -1.4389   47.9634   22.0862 O.3       1 UNK         0.0000 
     21 C21        -0.4546   50.6395   21.0784 C.3       1 UNK         0.0000 
     22 C22         0.1074   52.0925   20.9363 C.3       1 UNK         0.0000 
     23 C23         1.0634   52.6412   22.0234 C.3       1 UNK         0.0000 
     24 C24         2.2819   51.7798   22.3818 C.3       1 UNK         0.0000 
     25 C25         1.9048   50.4396   23.0317 C.3       1 UNK         0.0000 
     26 C26         1.6126   49.2978   22.0525 C.3       1 UNK         0.0000 
     27 C27         0.7123   49.6323   20.8448 C.3       1 UNK         0.0000 
     28 C28        -4.1147   50.8134   24.2623 C.3       1 UNK         0.0000 
     29 F29        -4.7557   50.4929   23.1334 F         1 UNK         0.0000 
     30 F30        -4.7200   50.1276   25.2346 F         1 UNK         0.0000 
     31 F31        -4.3710   52.1069   24.4780 F         1 UNK         0.0000 
     32 H32         5.5039   53.1228   28.8804 H         1 UNK         0.0000 
     33 H33         4.2766   52.4651   27.8405 H         1 UNK         0.0000 
     34 H34         4.6246   51.6930   29.3880 H         1 UNK         0.0000 
     35 H35         3.9578   53.7728   30.5555 H         1 UNK         0.0000 
     36 H36         4.2315   55.2969   28.5815 H         1 UNK         0.0000 
     37 H37         2.6379   54.8366   28.0214 H         1 UNK         0.0000 
     38 H38         2.8169   55.6158   29.5832 H         1 UNK         0.0000 
     39 H39         2.3418   52.7984   27.1826 H         1 UNK         0.0000 
     40 H40         0.5043   52.1370   25.7843 H         1 UNK         0.0000 
     41 H41        -1.8994   51.3844   29.2822 H         1 UNK         0.0000 
     42 H42        -0.0335   52.0894   30.6996 H         1 UNK         0.0000 
     43 H43        -0.8149   50.4085   25.3393 H         1 UNK         0.0000 
     44 H44        -0.9689   48.1678   21.2776 H         1 UNK         0.0000 
     45 H45        -1.1052   50.5205   20.2100 H         1 UNK         0.0000 
     46 H46         0.6139   52.1720   19.9728 H         1 UNK         0.0000 
     47 H47        -0.7256   52.7780   20.8131 H         1 UNK         0.0000 
     48 H48         1.4252   53.6144   21.6898 H         1 UNK         0.0000 
     49 H49         0.5084   52.8529   22.9369 H         1 UNK         0.0000 
     50 H50         2.9119   51.6185   21.5053 H         1 UNK         0.0000 
     51 H51         2.8915   52.3521   23.0821 H         1 UNK         0.0000 
     52 H52         2.7044   50.0990   23.6818 H         1 UNK         0.0000 
     53 H53         1.0558   50.5835   23.7014 H         1 UNK         0.0000 
     54 H54         2.5554   48.8910   21.6813 H         1 UNK         0.0000 
     55 H55         1.1650   48.4973   22.6378 H         1 UNK         0.0000 
     56 H56         0.3311   48.7038   20.4230 H         1 UNK         0.0000 
     57 H57         1.3376   49.9984   20.0284 H         1 UNK         0.0000 
@<TRIPOS>BOND
     1    1    2 1    
     2    1   32 1    
     3    1   33 1    
     4    1   34 1    
     5    2    3 1    
     6    2    4 1    
     7    2   35 1    
     8    3   36 1    
     9    3   37 1    
    10    3   38 1    
    11    4    5 1    
    12    5   10 ar   
    13    5    6 ar   
    14    6    7 ar   
    15    6   39 1    
    16    7    8 ar   
    17    7   40 1    
    18    8    9 ar   
    19    8   11 1    
    20    9   10 ar   
    21    9   41 1    
    22   10   42 1    
    23   11   12 2    
    24   11   13 am   BACKBONE|DICT|INTERRES
    25   13   14 1    
    26   13   43 1    
    27   14   19 1    
    28   14   15 1    
    29   14   28 1    
    30   15   16 2    
    31   15   17 am   BACKBONE|DICT|INTERRES
    32   17   18 am   BACKBONE|DICT|INTERRES
    33   17   21 1    
    34   18   19 2    
    35   18   20 1    
    36   20   44 1    
    37   21   27 1    
    38   21   22 1    
    39   21   45 1    
    40   22   23 1    
    41   22   46 1    
    42   22   47 1    
    43   23   24 1    
    44   23   48 1    
    45   23   49 1    
    46   24   25 1    
    47   24   50 1    
    48   24   51 1    
    49   25   26 1    
    50   25   52 1    
    51   25   53 1    
    52   26   27 1    
    53   26   54 1    
    54   26   55 1    
    55   27   56 1    
    56   27   57 1    
    57   28   29 1    
    58   28   30 1    
    59   28   31 1    
@<TRIPOS>SUBSTRUCTURE
     1 UNK         1 GROUP             0       ****    0 ROOT    
