@<TRIPOS>MOLECULE
ZINC39530506_127
52   55    1
SMALL
USER_CHARGES


@<TRIPOS>ATOM
      1 C1          5.9553   56.3664   18.9044 C.ar      1 UNK         0.0000 
      2 C2          6.6795   56.8800   19.9749 C.ar      1 UNK         0.0000 
      3 C3          6.8139   56.1340   21.1499 C.ar      1 UNK         0.0000 
      4 C4          6.1873   54.8960   21.2675 C.ar      1 UNK         0.0000 
      5 C5          5.5160   54.3668   20.1557 C.ar      1 UNK         0.0000 
      6 C6          5.3843   55.1025   18.9834 C.ar      1 UNK         0.0000 
      7 O7          6.3160   54.0981   22.3928 O.3       1 UNK         0.0000 
      8 S8          5.9978   54.6070   23.9701 S.3       1 UNK         0.0000 
      9 O9          6.3049   56.0317   24.1051 O.2       1 UNK         0.0000 
     10 O10         6.7067   53.6962   24.8595 O.2       1 UNK         0.0000 
     11 C11         4.1796   54.2717   24.0856 C.ar      1 UNK         0.0000 
     12 C12         3.4988   53.9916   22.8870 C.ar      1 UNK         0.0000 
     13 C13         2.1491   53.6716   22.8362 C.ar      1 UNK         0.0000 
     14 C14         1.3929   53.6907   23.9847 C.ar      1 UNK         0.0000 
     15 C15         2.0257   53.9507   25.1827 C.ar      1 UNK         0.0000 
     16 C16         3.4106   54.1880   25.2832 C.ar      1 UNK         0.0000 
     17 N17         3.8656   54.1713   26.5983 N.pl3     1 UNK         0.0000 
     18 C18         5.0928   54.7553   27.1292 C.3       1 UNK         0.0000 
     19 C19         4.9917   54.9022   28.6492 C.3       1 UNK         0.0000 
     20 N20         4.9062   53.5337   29.2798 N.4       1 UNK         0.0000 
     21 C21         3.7348   52.7158   28.7974 C.3       1 UNK         0.0000 
     22 H22         4.0075   51.6793   28.9791 H         1 UNK         0.0000 
     23 C23         3.5975   52.8974   27.2845 C.3       1 UNK         0.0000 
     24 C24         2.5282   52.9938   29.6843 C.ar      1 UNK         0.0000 
     25 C25         1.4593   53.7750   29.2297 C.ar      1 UNK         0.0000 
     26 C26         0.3089   53.9058   30.0043 C.ar      1 UNK         0.0000 
     27 C27         0.2073   53.2520   31.2291 C.ar      1 UNK         0.0000 
     28 C28         1.2687   52.4873   31.6970 C.ar      1 UNK         0.0000 
     29 C29         2.4408   52.3858   30.9480 C.ar      1 UNK         0.0000 
     30 O30         3.4985   51.6969   31.4958 O.3       1 UNK         0.0000 
     31 F31         1.5725   53.2974   21.6802 F         1 UNK         0.0000 
     32 H32         5.8543   56.9450   17.9966 H         1 UNK         0.0000 
     33 H33         7.1225   57.8555   19.8636 H         1 UNK         0.0000 
     34 H34         7.4185   56.4963   21.9656 H         1 UNK         0.0000 
     35 H35         5.1009   53.3701   20.1922 H         1 UNK         0.0000 
     36 H36         4.8491   54.6893   18.1403 H         1 UNK         0.0000 
     37 H37         3.9892   53.9474   21.9479 H         1 UNK         0.0000 
     38 H38         0.3384   53.4631   23.9527 H         1 UNK         0.0000 
     39 H39         1.4152   53.9091   26.0709 H         1 UNK         0.0000 
     40 H40         5.9194   54.0747   26.9430 H         1 UNK         0.0000 
     41 H41         5.3220   55.6865   26.6432 H         1 UNK         0.0000 
     42 H42         5.9015   55.2924   29.0749 H         1 UNK         0.0000 
     43 H43         4.1922   55.5954   28.9735 H         1 UNK         0.0000 
     44 H44         4.8391   53.6428   30.2808 H         1 UNK         0.0000 
     45 H45         4.4521   52.3499   26.9028 H         1 UNK         0.0000 
     46 H46         2.7213   52.3528   26.9344 H         1 UNK         0.0000 
     47 H47         1.5054   54.2754   28.2743 H         1 UNK         0.0000 
     48 H48        -0.5157   54.4938   29.6431 H         1 UNK         0.0000 
     49 H49        -0.6847   53.3312   31.8313 H         1 UNK         0.0000 
     50 H50         1.1850   51.9988   32.6578 H         1 UNK         0.0000 
     51 H51         4.3166   51.6838   30.9897 H         1 UNK         0.0000 
     52 H52         5.7642   53.0271   29.1120 H         1 UNK         0.0000 
@<TRIPOS>BOND
     1    1    6 ar   
     2    1    2 ar   
     3    1   32 1    
     4    2    3 ar   
     5    2   33 1    
     6    3    4 ar   
     7    3   34 1    
     8    4    5 ar   
     9    4    7 1    
    10    5    6 ar   
    11    5   35 1    
    12    6   36 1    
    13    7    8 1    
    14    8    9 2    
    15    8   10 2    
    16    8   11 1    
    17   11   16 ar   
    18   11   12 ar   
    19   12   13 ar   
    20   12   37 1    
    21   13   14 ar   
    22   13   31 1    
    23   14   15 ar   
    24   14   38 1    
    25   15   16 ar   
    26   15   39 1    
    27   16   17 1    
    28   17   23 1    
    29   17   18 1    
    30   18   19 1    
    31   18   40 1    
    32   18   41 1    
    33   19   20 1    
    34   19   42 1    
    35   19   43 1    
    36   20   21 1    
    37   20   44 1    
    38   20   52 1    
    39   21   22 1    
    40   21   23 1    
    41   21   24 1    
    42   23   45 1    
    43   23   46 1    
    44   24   29 ar   
    45   24   25 ar   
    46   25   26 ar   
    47   25   47 1    
    48   26   27 ar   
    49   26   48 1    
    50   27   28 ar   
    51   27   49 1    
    52   28   29 ar   
    53   28   50 1    
    54   29   30 1    
    55   30   51 1    
@<TRIPOS>SUBSTRUCTURE
     1 UNK         1 GROUP             0       ****    0 ROOT    
