@<TRIPOS>MOLECULE
ZINC13402183_3308
56   59    1
SMALL
USER_CHARGES


@<TRIPOS>ATOM
      1 C1          6.1817   54.5411   26.0336 C.ar      1 UNK         0.0000 
      2 C2          6.5331   54.7306   24.7009 C.ar      1 UNK         0.0000 
      3 C3          5.6141   54.4970   23.6770 C.ar      1 UNK         0.0000 
      4 C4          4.3092   54.0962   24.0128 C.ar      1 UNK         0.0000 
      5 C5          3.9544   53.9200   25.3497 C.ar      1 UNK         0.0000 
      6 C6          4.8931   54.1275   26.3657 C.ar      1 UNK         0.0000 
      7 C7          4.5800   53.8917   27.7858 C.2       1 UNK         0.0000 
      8 C8          3.6707   53.0110   28.2553 C.2       1 UNK         0.0000 
      9 C9          3.3738   52.8222   29.7407 C.2       1 UNK         0.0000 
     10 O10         3.6143   53.8068   30.4692 O.co2     1 UNK         0.0000 
     11 N11         6.0934   54.7038   22.3621 N.am      1 UNK         0.0000 
     12 C12         5.4613   54.5429   21.1734 C.2       1 UNK         0.0000 
     13 O13         4.3016   54.1492   21.0593 O.2       1 UNK         0.0000 
     14 C14         6.2711   54.8798   19.8913 C.3       1 UNK         0.0000 
     15 C15         5.9572   53.8455   18.7660 C.3       1 UNK         0.0000 
     16 C16         6.7202   54.2075   17.4766 C.3       1 UNK         0.0000 
     17 N17         6.5208   55.6254   17.0746 N.pl3     1 UNK         0.0000 
     18 C18         6.6642   56.6660   18.1269 C.3       1 UNK         0.0000 
     19 C19         5.9017   56.3077   19.4171 C.3       1 UNK         0.0000 
     20 S20         5.6728   56.0090   15.5611 S.o2      1 UNK         0.0000 
     21 O21         6.0008   57.3895   15.1887 O.2       1 UNK         0.0000 
     22 O22         5.8788   54.9006   14.6202 O.2       1 UNK         0.0000 
     23 C23         3.9270   55.9935   15.9684 C.ar      1 UNK         0.0000 
     24 C24         3.2239   57.1953   16.1372 C.ar      1 UNK         0.0000 
     25 C25         1.8509   57.1770   16.3886 C.ar      1 UNK         0.0000 
     26 C26         1.1848   55.9591   16.4905 C.ar      1 UNK         0.0000 
     27 C27         1.8918   54.7537   16.3416 C.ar      1 UNK         0.0000 
     28 C28         3.2562   54.7701   16.0664 C.ar      1 UNK         0.0000 
     29 O29         1.2654   53.5258   16.3869 O.3       1 UNK         0.0000 
     30 C30         0.0025   53.5541   17.0554 C.3       1 UNK         0.0000 
     31 C31        -0.8350   54.7565   16.5500 C.3       1 UNK         0.0000 
     32 O32        -0.1560   55.9870   16.8171 O.3       1 UNK         0.0000 
     33 H33         6.9132   54.7031   26.8125 H         1 UNK         0.0000 
     34 H34         7.5320   55.0557   24.4726 H         1 UNK         0.0000 
     35 H35         3.5528   53.9094   23.2687 H         1 UNK         0.0000 
     36 H36         2.9510   53.6027   25.5924 H         1 UNK         0.0000 
     37 H37         5.1325   54.4953   28.4951 H         1 UNK         0.0000 
     38 H38         3.1241   52.3991   27.5562 H         1 UNK         0.0000 
     39 H39         7.0492   55.0253   22.3295 H         1 UNK         0.0000 
     40 H40         7.3264   54.8464   20.1680 H         1 UNK         0.0000 
     41 H41         6.2763   52.8346   19.0251 H         1 UNK         0.0000 
     42 H42         4.8992   53.8491   18.4927 H         1 UNK         0.0000 
     43 H43         7.7912   54.0234   17.5605 H         1 UNK         0.0000 
     44 H44         6.3773   53.5625   16.6668 H         1 UNK         0.0000 
     45 H45         7.7271   56.8254   18.3068 H         1 UNK         0.0000 
     46 H46         6.2812   57.6096   17.7352 H         1 UNK         0.0000 
     47 H47         4.8439   56.3748   19.1560 H         1 UNK         0.0000 
     48 H48         6.1647   57.0667   20.1543 H         1 UNK         0.0000 
     49 H49         3.7305   58.1472   16.0518 H         1 UNK         0.0000 
     50 H50         1.3065   58.1028   16.5038 H         1 UNK         0.0000 
     51 H51         3.7834   53.8373   15.9180 H         1 UNK         0.0000 
     52 H52         0.1746   53.6570   18.1293 H         1 UNK         0.0000 
     53 H53        -0.5206   52.6126   16.8873 H         1 UNK         0.0000 
     54 H54        -1.8184   54.7753   17.0183 H         1 UNK         0.0000 
     55 H55        -0.9767   54.6642   15.4705 H         1 UNK         0.0000 
     56 O56         2.9221   51.6983   30.0418 O.co2     1 UNK         0.0000 
@<TRIPOS>BOND
     1    1    6 ar   
     2    1    2 ar   
     3    1   33 1    
     4    2    3 ar   
     5    2   34 1    
     6    3    4 ar   
     7    3   11 1    
     8    4    5 ar   
     9    4   35 1    
    10    5    6 ar   
    11    5   36 1    
    12    6    7 1    
    13    7    8 2    
    14    7   37 1    
    15    8    9 1    
    16    8   38 1    
    17    9   10 2    
    18    9   56 1    
    19   11   12 am   BACKBONE|DICT|INTERRES
    20   11   39 1    
    21   12   13 2    
    22   12   14 1    
    23   14   19 1    
    24   14   15 1    
    25   14   40 1    
    26   15   16 1    
    27   15   41 1    
    28   15   42 1    
    29   16   17 1    
    30   16   43 1    
    31   16   44 1    
    32   17   18 1    
    33   17   20 1    
    34   18   19 1    
    35   18   45 1    
    36   18   46 1    
    37   19   47 1    
    38   19   48 1    
    39   20   21 2    
    40   20   22 2    
    41   20   23 1    
    42   23   28 ar   
    43   23   24 ar   
    44   24   25 ar   
    45   24   49 1    
    46   25   26 ar   
    47   25   50 1    
    48   26   32 1    
    49   26   27 ar   
    50   27   28 ar   
    51   27   29 1    
    52   28   51 1    
    53   29   30 1    
    54   30   31 1    
    55   30   52 1    
    56   30   53 1    
    57   31   32 1    
    58   31   54 1    
    59   31   55 1    
@<TRIPOS>SUBSTRUCTURE
     1 UNK         1 GROUP             0       ****    0 ROOT    
