@<TRIPOS>MOLECULE
ZINC14564093_2352
51   53    1
SMALL
USER_CHARGES


@<TRIPOS>ATOM
      1 C1          4.1889   53.8915   18.9720 C.3       1 UNK         0.0000 
      2 C2          5.2041   54.4019   19.9764 C.ar      1 UNK         0.0000 
      3 C3          6.3239   55.1111   19.5401 C.ar      1 UNK         0.0000 
      4 C4          7.2728   55.5558   20.4595 C.ar      1 UNK         0.0000 
      5 C5          7.1045   55.2972   21.8202 C.ar      1 UNK         0.0000 
      6 C6          5.9667   54.6005   22.2752 C.ar      1 UNK         0.0000 
      7 C7          5.0313   54.1475   21.3396 C.ar      1 UNK         0.0000 
      8 N8          5.6777   54.3113   23.6244 N.am      1 UNK         0.0000 
      9 C9          6.2092   54.8621   24.7369 C.2       1 UNK         0.0000 
     10 O10         7.1044   55.6969   24.7400 O.2       1 UNK         0.0000 
     11 C11         5.6542   54.4024   26.0579 C.ar      1 UNK         0.0000 
     12 C12         6.4767   54.4391   27.1924 C.ar      1 UNK         0.0000 
     13 C13         5.9927   54.0558   28.4365 C.ar      1 UNK         0.0000 
     14 C14         4.6755   53.6303   28.5746 C.ar      1 UNK         0.0000 
     15 C15         3.8380   53.6033   27.4559 C.ar      1 UNK         0.0000 
     16 C16         4.3246   53.9811   26.2021 C.ar      1 UNK         0.0000 
     17 N17         2.5254   53.1302   27.5471 N.pl3     1 UNK         0.0000 
     18 C18         1.4619   53.5941   28.2775 C.2       1 UNK         0.0000 
     19 S19         1.5044   54.9232   29.2848 S.2       1 UNK         0.0000 
     20 N20         0.2607   52.9543   28.1203 N.am      1 UNK         0.0000 
     21 C21        -0.0174   51.7392   27.5791 C.2       1 UNK         0.0000 
     22 O22         0.8289   50.8967   27.2817 O.2       1 UNK         0.0000 
     23 C23        -1.4153   51.4698   27.3593 C.2       1 UNK         0.0000 
     24 C24        -2.2465   52.3450   26.7514 C.2       1 UNK         0.0000 
     25 C25        -3.6845   52.1443   26.4789 C.ar      1 UNK         0.0000 
     26 C26        -4.4201   51.1112   27.0742 C.ar      1 UNK         0.0000 
     27 C27        -5.7749   50.9609   26.7875 C.ar      1 UNK         0.0000 
     28 C28        -6.3952   51.8376   25.8995 C.ar      1 UNK         0.0000 
     29 C29        -5.6728   52.8624   25.2941 C.ar      1 UNK         0.0000 
     30 C30        -4.3198   53.0142   25.5858 C.ar      1 UNK         0.0000 
     31 Cl31       -8.0739   51.6524   25.5455 Cl        1 UNK         0.0000 
     32 H32         4.6886   53.5365   18.0695 H         1 UNK         0.0000 
     33 H33         3.6256   53.0462   19.3695 H         1 UNK         0.0000 
     34 H34         3.4970   54.6867   18.6944 H         1 UNK         0.0000 
     35 H35         6.4680   55.3066   18.4870 H         1 UNK         0.0000 
     36 H36         8.1492   56.0858   20.1148 H         1 UNK         0.0000 
     37 H37         7.8924   55.6317   22.4821 H         1 UNK         0.0000 
     38 H38         4.1539   53.6052   21.6637 H         1 UNK         0.0000 
     39 H39         4.9344   53.6476   23.7711 H         1 UNK         0.0000 
     40 H40         7.5046   54.7652   27.1309 H         1 UNK         0.0000 
     41 H41         6.6579   54.0968   29.2816 H         1 UNK         0.0000 
     42 H42         4.3124   53.3196   29.5434 H         1 UNK         0.0000 
     43 H43         3.6577   53.9541   25.3508 H         1 UNK         0.0000 
     44 H44         2.3015   52.4079   26.8779 H         1 UNK         0.0000 
     45 H45        -0.5269   53.4316   28.5290 H         1 UNK         0.0000 
     46 H46        -1.7456   50.4970   27.6941 H         1 UNK         0.0000 
     47 H47        -1.8490   53.2962   26.4228 H         1 UNK         0.0000 
     48 H48        -3.9546   50.4194   27.7628 H         1 UNK         0.0000 
     49 H49        -6.3405   50.1665   27.2526 H         1 UNK         0.0000 
     50 H50        -6.1574   53.5332   24.5989 H         1 UNK         0.0000 
     51 H51        -3.7674   53.8102   25.1056 H         1 UNK         0.0000 
@<TRIPOS>BOND
     1    1    2 1    
     2    1   32 1    
     3    1   33 1    
     4    1   34 1    
     5    2    7 ar   
     6    2    3 ar   
     7    3    4 ar   
     8    3   35 1    
     9    4    5 ar   
    10    4   36 1    
    11    5    6 ar   
    12    5   37 1    
    13    6    7 ar   
    14    6    8 1    
    15    7   38 1    
    16    8    9 am   BACKBONE|DICT|INTERRES
    17    8   39 1    
    18    9   10 2    
    19    9   11 1    
    20   11   16 ar   
    21   11   12 ar   
    22   12   13 ar   
    23   12   40 1    
    24   13   14 ar   
    25   13   41 1    
    26   14   15 ar   
    27   14   42 1    
    28   15   16 ar   
    29   15   17 1    
    30   16   43 1    
    31   17   18 1    
    32   17   44 1    
    33   18   19 2    
    34   18   20 am   BACKBONE|DICT|INTERRES
    35   20   21 am   BACKBONE|DICT|INTERRES
    36   20   45 1    
    37   21   22 2    
    38   21   23 1    
    39   23   24 2    
    40   23   46 1    
    41   24   25 1    
    42   24   47 1    
    43   25   30 ar   
    44   25   26 ar   
    45   26   27 ar   
    46   26   48 1    
    47   27   28 ar   
    48   27   49 1    
    49   28   29 ar   
    50   28   31 1    
    51   29   30 ar   
    52   29   50 1    
    53   30   51 1    
@<TRIPOS>SUBSTRUCTURE
     1 UNK         1 GROUP             0       ****    0 ROOT    
