@<TRIPOS>MOLECULE
ZINC14745803_870
74   76    1
SMALL
USER_CHARGES


@<TRIPOS>ATOM
      1 C1          3.4105   52.1022   28.9816 C.3       1 UNK         0.0000 
      2 C2          2.4900   53.1400   28.3565 C.2       1 UNK         0.0000 
      3 C3          2.8919   54.1762   27.5883 C.2       1 UNK         0.0000 
      4 C4          4.2348   54.4608   27.0592 C.ar      1 UNK         0.0000 
      5 C5          5.4067   54.3757   27.8187 C.ar      1 UNK         0.0000 
      6 C6          6.6443   54.5275   27.1956 C.ar      1 UNK         0.0000 
      7 C7          6.7043   54.7839   25.8276 C.ar      1 UNK         0.0000 
      8 C8          5.5443   54.9000   25.0735 C.ar      1 UNK         0.0000 
      9 C9          4.3130   54.7482   25.6935 C.ar      1 UNK         0.0000 
     10 C10         1.0072   52.8813   28.5805 C.3       1 UNK         0.0000 
     11 N11         0.4477   51.6938   27.9246 N.pl3     1 UNK         0.0000 
     12 C12         0.1864   51.6874   26.5374 C.ar      1 UNK         0.0000 
     13 C13         1.0713   52.2031   25.5772 C.ar      1 UNK         0.0000 
     14 C14         0.7396   52.2358   24.2151 C.ar      1 UNK         0.0000 
     15 C15        -0.5144   51.7684   23.8152 C.ar      1 UNK         0.0000 
     16 C16        -1.3844   51.2055   24.7538 C.ar      1 UNK         0.0000 
     17 C17        -1.0169   51.1302   26.1006 C.ar      1 UNK         0.0000 
     18 S18        -3.0102   50.6883   24.2318 S.o2      1 UNK         0.0000 
     19 O19        -2.8374   49.9868   22.9552 O.2       1 UNK         0.0000 
     20 O20        -3.6897   50.0421   25.3599 O.2       1 UNK         0.0000 
     21 N21        -3.8278   52.2044   23.8693 N.pl3     1 UNK         0.0000 
     22 C22        -4.4254   53.1204   24.8737 C.3       1 UNK         0.0000 
     23 C23        -3.6867   53.0867   26.2224 C.3       1 UNK         0.0000 
     24 C24        -5.9043   52.7421   25.0660 C.3       1 UNK         0.0000 
     25 C25        -4.3130   54.5578   24.3253 C.3       1 UNK         0.0000 
     26 C26         1.7313   52.7942   23.2208 C.2       1 UNK         0.0000 
     27 O27         1.9144   54.0122   23.2093 O.2       1 UNK         0.0000 
     28 N28         2.4755   51.9208   22.4810 N.am      1 UNK         0.0000 
     29 C29         2.1184   50.4968   22.3332 C.3       1 UNK         0.0000 
     30 C30         2.4339   49.8818   20.9551 C.3       1 UNK         0.0000 
     31 C31         2.0212   50.7097   19.7233 C.3       1 UNK         0.0000 
     32 C32         3.4520   52.8551   20.3077 C.3       1 UNK         0.0000 
     33 C33         3.6783   52.3769   21.7533 C.3       1 UNK         0.0000 
     34 C34         2.7955   52.3238   17.9056 C.3       1 UNK         0.0000 
     35 H35         2.9844   51.1058   28.8820 H         1 UNK         0.0000 
     36 H36         4.3977   52.0955   28.5253 H         1 UNK         0.0000 
     37 H37         3.5301   52.3099   30.0460 H         1 UNK         0.0000 
     38 H38         2.1288   54.8677   27.2624 H         1 UNK         0.0000 
     39 H39         5.3667   54.1744   28.8775 H         1 UNK         0.0000 
     40 H40         7.5471   54.4480   27.7816 H         1 UNK         0.0000 
     41 H41         7.6529   54.8887   25.3231 H         1 UNK         0.0000 
     42 H42         5.5999   55.1035   24.0143 H         1 UNK         0.0000 
     43 H43         3.4149   54.8238   25.0972 H         1 UNK         0.0000 
     44 H44         0.8300   52.7951   29.6532 H         1 UNK         0.0000 
     45 H45         0.4225   53.7474   28.2643 H         1 UNK         0.0000 
     46 H46        -0.2350   51.1891   28.4758 H         1 UNK         0.0000 
     47 H47         2.0462   52.5445   25.8724 H         1 UNK         0.0000 
     48 H48        -0.8105   51.8277   22.7766 H         1 UNK         0.0000 
     49 H49        -1.6976   50.7006   26.8220 H         1 UNK         0.0000 
     50 H50        -4.1233   52.3333   22.8999 H         1 UNK         0.0000 
     51 H51        -2.6244   53.2974   26.1079 H         1 UNK         0.0000 
     52 H52        -4.0887   53.8522   26.8815 H         1 UNK         0.0000 
     53 H53        -3.7953   52.1360   26.7441 H         1 UNK         0.0000 
     54 H54        -6.4589   52.7864   24.1262 H         1 UNK         0.0000 
     55 H55        -6.0070   51.7270   25.4513 H         1 UNK         0.0000 
     56 H56        -6.4027   53.4100   25.7690 H         1 UNK         0.0000 
     57 H57        -5.0493   54.7751   23.5556 H         1 UNK         0.0000 
     58 H58        -4.4801   55.2968   25.1082 H         1 UNK         0.0000 
     59 H59        -3.3266   54.7551   23.9010 H         1 UNK         0.0000 
     60 H60         2.7028   49.9339   23.0624 H         1 UNK         0.0000 
     61 H61         1.0626   50.3248   22.5347 H         1 UNK         0.0000 
     62 H62         3.5043   49.6969   20.8991 H         1 UNK         0.0000 
     63 H63         1.9791   48.8900   20.9021 H         1 UNK         0.0000 
     64 H64         1.9327   50.0448   18.8604 H         1 UNK         0.0000 
     65 H65         1.0842   51.2580   19.8502 H         1 UNK         0.0000 
     66 H66         2.7043   53.6466   20.2461 H         1 UNK         0.0000 
     67 H67         4.3766   53.2795   19.9106 H         1 UNK         0.0000 
     68 H68         4.0869   53.2315   22.2973 H         1 UNK         0.0000 
     69 H69         4.4882   51.6514   21.8244 H         1 UNK         0.0000 
     70 H70         1.8596   52.8816   17.9754 H         1 UNK         0.0000 
     71 H71         3.6296   52.9718   17.6327 H         1 UNK         0.0000 
     72 H72         2.7278   51.4897   17.2038 H         1 UNK         0.0000 
     73 N73         3.1036   51.7295   19.2962 N.4       1 UNK         0.0000 
     74 H74         3.9561   51.1870   19.1434 H         1 UNK         0.0000 
@<TRIPOS>BOND
     1    1    2 1    
     2    1   35 1    
     3    1   36 1    
     4    1   37 1    
     5    2    3 2    
     6    2   10 1    
     7    3    4 1    
     8    3   38 1    
     9    4    9 ar   
    10    4    5 ar   
    11    5    6 ar   
    12    5   39 1    
    13    6    7 ar   
    14    6   40 1    
    15    7    8 ar   
    16    7   41 1    
    17    8    9 ar   
    18    8   42 1    
    19    9   43 1    
    20   10   11 1    
    21   10   44 1    
    22   10   45 1    
    23   11   12 1    
    24   11   46 1    
    25   12   17 ar   
    26   12   13 ar   
    27   13   14 ar   
    28   13   47 1    
    29   14   15 ar   
    30   14   26 1    
    31   15   16 ar   
    32   15   48 1    
    33   16   17 ar   
    34   16   18 1    
    35   17   49 1    
    36   18   19 2    
    37   18   20 2    
    38   18   21 1    
    39   21   22 1    
    40   21   50 1    
    41   22   23 1    
    42   22   24 1    
    43   22   25 1    
    44   23   51 1    
    45   23   52 1    
    46   23   53 1    
    47   24   54 1    
    48   24   55 1    
    49   24   56 1    
    50   25   57 1    
    51   25   58 1    
    52   25   59 1    
    53   26   27 2    
    54   26   28 am   BACKBONE|DICT|INTERRES
    55   28   33 1    
    56   28   29 1    
    57   29   30 1    
    58   29   60 1    
    59   29   61 1    
    60   30   31 1    
    61   30   62 1    
    62   30   63 1    
    63   31   64 1    
    64   31   65 1    
    65   31   73 1    
    66   32   33 1    
    67   32   66 1    
    68   32   67 1    
    69   32   73 1    
    70   33   68 1    
    71   33   69 1    
    72   34   70 1    
    73   34   71 1    
    74   34   72 1    
    75   34   73 1    
    76   73   74 1    
@<TRIPOS>SUBSTRUCTURE
     1 UNK         1 GROUP             0       ****    0 ROOT    
