@<TRIPOS>MOLECULE
ZINC01089453_2077
55   59    1
SMALL
USER_CHARGES


@<TRIPOS>ATOM
      1 C1         -0.6154   51.5628   28.2149 C.3       1 UNK         0.0000 
      2 O2         -0.0525   50.6515   27.2782 O.3       1 UNK         0.0000 
      3 C3         -0.1299   50.9258   25.9300 C.ar      1 UNK         0.0000 
      4 C4         -0.6108   52.1213   25.3921 C.ar      1 UNK         0.0000 
      5 C5         -0.5593   52.3472   24.0197 C.ar      1 UNK         0.0000 
      6 C6         -0.0273   51.3891   23.1423 C.ar      1 UNK         0.0000 
      7 C7          0.2970   50.1180   23.6695 C.ar      1 UNK         0.0000 
      8 C8          0.2961   49.9303   25.0573 C.ar      1 UNK         0.0000 
      9 C9          0.5826   48.8971   22.7999 C.3       1 UNK         0.0000 
     10 S10        -0.9411   48.1290   22.1353 S.3       1 UNK         0.0000 
     11 C11        -1.9065   47.4440   23.4476 C.ar      1 UNK         0.0000 
     12 C12        -3.2358   47.0917   23.1973 C.ar      1 UNK         0.0000 
     13 C13        -4.0067   46.5897   24.2492 C.ar      1 UNK         0.0000 
     14 C14        -3.4337   46.4541   25.5156 C.ar      1 UNK         0.0000 
     15 C15        -2.0976   46.8203   25.6818 C.ar      1 UNK         0.0000 
     16 N16        -1.3315   47.2935   24.6672 N.ar      1 UNK         0.0000 
     17 C17         0.1650   51.7907   21.6608 C.3       1 UNK         0.0000 
     18 H18        -0.0950   52.8478   21.6053 H         1 UNK         0.0000 
     19 C19         1.5960   51.6869   21.0715 C.ar      1 UNK         0.0000 
     20 C20         2.9232   52.1525   21.3653 C.ar      1 UNK         0.0000 
     21 N21         3.7923   51.6816   20.4816 N.2       1 UNK         0.0000 
     22 N22         3.1044   50.9703   19.5977 N.pl3     1 UNK         0.0000 
     23 H23         3.5560   50.5201   18.8029 H         1 UNK         0.0000 
     24 C24         1.7873   50.9632   19.9038 C.ar      1 UNK         0.0000 
     25 O25         0.8653   50.3287   19.1170 O.3       1 UNK         0.0000 
     26 C26        -0.4082   50.4388   19.5740 C.2       1 UNK         0.0000 
     27 C27        -0.8127   51.0832   20.6986 C.2       1 UNK         0.0000 
     28 C28        -2.1875   51.0198   21.0665 C.1       1 UNK         0.0000 
     29 N29        -3.2971   50.8965   21.3603 N.1       1 UNK         0.0000 
     30 N30        -1.2062   49.7618   18.6928 N.pl3     1 UNK         0.0000 
     31 C31         3.4724   53.0437   22.4576 C.ar      1 UNK         0.0000 
     32 C32         4.8373   53.3901   22.4855 C.ar      1 UNK         0.0000 
     33 C33         5.3739   54.1114   23.5488 C.ar      1 UNK         0.0000 
     34 C34         4.5499   54.4956   24.6020 C.ar      1 UNK         0.0000 
     35 C35         3.1906   54.2003   24.5725 C.ar      1 UNK         0.0000 
     36 C36         2.6585   53.5076   23.4907 C.ar      1 UNK         0.0000 
     37 H37        -0.4952   51.1631   29.2219 H         1 UNK         0.0000 
     38 H38        -0.1155   52.5321   28.1819 H         1 UNK         0.0000 
     39 H39        -1.6844   51.7002   28.0433 H         1 UNK         0.0000 
     40 H40        -0.9957   52.8973   26.0325 H         1 UNK         0.0000 
     41 H41        -0.8865   53.3077   23.6513 H         1 UNK         0.0000 
     42 H42         0.6006   48.9826   25.4794 H         1 UNK         0.0000 
     43 H43         1.1046   48.1427   23.3849 H         1 UNK         0.0000 
     44 H44         1.2524   49.1564   21.9824 H         1 UNK         0.0000 
     45 H45        -3.6671   47.2254   22.2157 H         1 UNK         0.0000 
     46 H46        -5.0435   46.3307   24.0899 H         1 UNK         0.0000 
     47 H47        -4.0120   46.0974   26.3554 H         1 UNK         0.0000 
     48 H48        -1.6246   46.7638   26.6539 H         1 UNK         0.0000 
     49 H49        -2.1903   49.6277   18.8736 H         1 UNK         0.0000 
     50 H50        -0.8484   49.4995   17.7858 H         1 UNK         0.0000 
     51 H51         5.5040   53.0780   21.6963 H         1 UNK         0.0000 
     52 H52         6.4273   54.3526   23.5655 H         1 UNK         0.0000 
     53 H53         4.9643   55.0346   25.4409 H         1 UNK         0.0000 
     54 H54         2.5478   54.4959   25.3871 H         1 UNK         0.0000 
     55 H55         1.6086   53.3176   23.4769 H         1 UNK         0.0000 
@<TRIPOS>BOND
     1    1    2 1    
     2    1   37 1    
     3    1   38 1    
     4    1   39 1    
     5    2    3 1    
     6    3    8 ar   
     7    3    4 ar   
     8    4    5 ar   
     9    4   40 1    
    10    5    6 ar   
    11    5   41 1    
    12    6    7 ar   
    13    6   17 1    
    14    7    8 ar   
    15    7    9 1    
    16    8   42 1    
    17    9   10 1    
    18    9   43 1    
    19    9   44 1    
    20   10   11 1    
    21   11   16 ar   
    22   11   12 ar   
    23   12   13 ar   
    24   12   45 1    
    25   13   14 ar   
    26   13   46 1    
    27   14   15 ar   
    28   14   47 1    
    29   15   16 ar   
    30   15   48 1    
    31   17   18 1    
    32   17   27 1    
    33   17   19 1    
    34   19   24 ar   
    35   19   20 ar   
    36   20   21 ar   
    37   20   31 1    
    38   21   22 ar   
    39   22   23 1    
    40   22   24 ar   
    41   24   25 1    
    42   25   26 1    
    43   26   27 2    
    44   26   30 1    
    45   27   28 1    
    46   28   29 3    
    47   30   49 1    
    48   30   50 1    
    49   31   36 ar   
    50   31   32 ar   
    51   32   33 ar   
    52   32   51 1    
    53   33   34 ar   
    54   33   52 1    
    55   34   35 ar   
    56   34   53 1    
    57   35   36 ar   
    58   35   54 1    
    59   36   55 1    
@<TRIPOS>SUBSTRUCTURE
     1 UNK         1 GROUP             0       ****    0 ROOT    
