ZINC02962134_4363
                    3D
 Schrodinger Suite 2024-2.
 47 50  0  0  1  0            999 V2000
    6.6226   53.6701   23.8948 C   0  0  0  0  0  0
    5.8525   54.9840   23.9907 C   0  0  0  0  0  0
    4.7345   54.8966   24.8793 O   0  0  0  0  0  0
    3.6025   54.1966   24.5072 C   0  0  0  0  0  0
    3.1889   54.0096   23.1829 C   0  0  0  0  0  0
    2.0640   53.2400   22.9057 C   0  0  0  0  0  0
    1.3942   52.5864   23.9452 C   0  0  0  0  0  0
    1.6804   52.8872   25.2904 C   0  0  0  0  0  0
    2.8022   53.6992   25.5371 C   0  0  0  0  0  0
    0.6878   52.4137   26.3322 C   0  0  0  0  0  0
   -0.5446   52.0044   25.8979 C   0  0  0  0  0  0
   -1.7621   51.6313   27.1276 S   0  0  0  0  0  0
   -0.4958   51.8361   28.6546 S   0  0  0  0  0  0
    0.9331   52.3315   27.7598 C   0  0  0  0  0  0
    2.2874   52.5805   28.6988 S   0  0  0  0  0  0
   -0.9305   51.9215   24.3791 C   0  0  0  0  0  0
    0.3773   51.6427   23.6789 N   0  0  0  0  0  0
    0.8200   50.3486   23.4873 C   0  0  0  0  0  0
    0.2364   49.3494   23.9067 O   0  0  0  0  0  0
    2.1379   50.0661   22.7414 C   0  0  0  0  0  0
    1.8769   49.4981   21.0318 S   0  0  0  0  0  0
    2.4174   50.9371   20.1772 C   0  0  0  0  0  0
    1.7384   51.5130   19.2147 N   0  0  0  0  0  0
    2.3801   52.6259   18.6857 N   0  0  0  0  0  0
    3.5370   52.8474   19.2530 C   0  0  0  0  0  0
    3.9586   51.6981   20.4819 S   0  0  0  0  0  0
    4.3784   53.8720   18.9370 N   0  0  0  0  0  0
   -1.4858   53.2965   23.9431 C   0  0  0  0  0  0
   -2.0767   50.8809   24.1504 C   0  0  0  0  0  0
    7.5245   53.7893   23.2949 H   0  0  0  0  0  0
    6.9217   53.3181   24.8820 H   0  0  0  0  0  0
    6.0149   52.8971   23.4231 H   0  0  0  0  0  0
    5.5742   55.2937   22.9873 H   0  0  0  0  0  0
    6.5145   55.7607   24.3749 H   0  0  0  0  0  0
    3.7259   54.4428   22.3537 H   0  0  0  0  0  0
    1.7642   53.0850   21.8793 H   0  0  0  0  0  0
    3.0924   53.9912   26.5288 H   0  0  0  0  0  0
    2.6662   49.2962   23.2826 H   0  0  0  0  0  0
    2.8445   50.8771   22.7904 H   0  0  0  0  0  0
    4.0929   54.5489   18.2449 H   0  0  0  0  0  0
    5.3747   53.7636   19.0522 H   0  0  0  0  0  0
   -2.3937   53.5610   24.4844 H   0  0  0  0  0  0
   -0.7629   54.0967   24.0812 H   0  0  0  0  0  0
   -1.7454   53.2845   22.8854 H   0  0  0  0  0  0
   -3.0514   51.2764   24.4395 H   0  0  0  0  0  0
   -2.1523   50.6018   23.0983 H   0  0  0  0  0  0
   -1.9487   49.9654   24.7284 H   0  0  0  0  0  0
  1  2  1  0  0  0
  1 30  1  0  0  0
  1 31  1  0  0  0
  1 32  1  0  0  0
  2  3  1  0  0  0
  2 33  1  0  0  0
  2 34  1  0  0  0
  3  4  1  0  0  0
  4  9  2  0  0  0
  4  5  1  0  0  0
  5  6  2  0  0  0
  5 35  1  0  0  0
  6  7  1  0  0  0
  6 36  1  0  0  0
  7 17  1  0  0  0
  7  8  2  0  0  0
  8  9  1  0  0  0
  8 10  1  0  0  0
  9 37  1  0  0  0
 10 14  1  0  0  0
 10 11  2  0  0  0
 11 12  1  0  0  0
 11 16  1  0  0  0
 12 13  1  0  0  0
 13 14  1  0  0  0
 14 15  2  0  0  0
 16 17  1  0  0  0
 16 28  1  0  0  0
 16 29  1  0  0  0
 17 18  1  0  0  0
 18 19  2  0  0  0
 18 20  1  0  0  0
 20 21  1  0  0  0
 20 38  1  0  0  0
 20 39  1  0  0  0
 21 22  1  0  0  0
 22 26  1  0  0  0
 22 23  2  0  0  0
 23 24  1  0  0  0
 24 25  2  0  0  0
 25 26  1  0  0  0
 25 27  1  0  0  0
 27 40  1  0  0  0
 27 41  1  0  0  0
 28 42  1  0  0  0
 28 43  1  0  0  0
 28 44  1  0  0  0
 29 45  1  0  0  0
 29 46  1  0  0  0
 29 47  1  0  0  0
M  END
> <i_i_glide_confnum>
173

> <i_i_glide_lignum>
4364

> <i_i_glide_posenum>
142

> <i_i_glide_rotatable_bonds>
6

> <i_m_Source_File_Index>
80

> <b_m_subgroup_collapsed>
0

> <r_i_docking_score>
-3.81857

> <r_i_glide_ecoul>
0.86527

> <r_i_glide_eff_state_penalty>
0

> <r_i_glide_einternal>
3.70807

> <r_i_glide_emodel>
-52.3303

> <r_i_glide_energy>
-44.3859

> <r_i_glide_erotb>
0.43554

> <r_i_glide_esite>
-0.0662814

> <r_i_glide_evdw>
-45.2512

> <r_i_glide_gscore>
-3.81857

> <r_i_glide_hbond>
0

> <r_i_glide_ligand_efficiency>
-0.131675

> <r_i_glide_ligand_efficiency_ln>
-0.874355

> <r_i_glide_ligand_efficiency_sa>
-0.404546

> <r_i_glide_lipo>
-2.10823

> <r_i_glide_metal>
0

> <r_i_glide_rewards>
0.0531674

> <s_i_glide_gridfile>
wee1_glide-grid

> <s_m_Source_File>
wee1_decoys_glide_SP.sdf

> <s_m_Source_Path>
/Users/zhangxujun/Desktop

> <s_m_entry_id>
355

> <s_m_entry_name>
wee1_decoys_glide_SP.80

> <s_m_subgroup_title>
wee1_decoys_glide_SP

> <s_m_subgroupid>
wee1_decoys_glide_SP


$$$$
