ZINC38700419_5407
                    3D
 Schrodinger Suite 2024-2.
 60 63  0  0  1  0            999 V2000
    3.8547   52.3407   30.7480 C   0  0  0  0  0  0
    3.9044   53.6957   30.3205 O   0  0  0  0  0  0
    3.9488   53.8480   28.9583 C   0  0  0  0  0  0
    5.1834   53.9467   28.3108 C   0  0  0  0  0  0
    5.2429   54.0974   26.9242 C   0  0  0  0  0  0
    4.0640   54.1564   26.1626 C   0  0  0  0  0  0
    2.8319   54.0630   26.8271 C   0  0  0  0  0  0
    2.7684   53.9220   28.2118 C   0  0  0  0  0  0
    1.2234   53.8468   28.9829 Cl  0  0  0  0  0  0
    4.0692   54.3314   24.6733 C   0  0  0  0  0  0
    3.0280   54.4968   24.0274 O   0  0  0  0  0  0
    5.3270   54.2662   24.1099 O   0  0  0  0  0  0
    5.4918   54.3045   22.7354 C   0  0  0  0  0  0
    4.7894   53.4454   21.8795 C   0  0  0  0  0  0
    4.9616   53.5203   20.5015 C   0  0  0  0  0  0
    5.8373   54.4526   19.9291 C   0  0  0  0  0  0
    6.5607   55.2958   20.7980 C   0  0  0  0  0  0
    6.4026   55.2093   22.1816 C   0  0  0  0  0  0
    7.5057   56.1872   20.3365 O   0  0  0  0  0  0
    7.8802   56.1257   19.0347 C   0  0  0  0  0  0
    7.2749   55.3834   18.0849 C   0  0  0  0  0  0
    6.0686   54.5006   18.4109 C   0  0  2  0  0  0
    6.3685   53.4965   18.0991 H   0  0  0  0  0  0
    4.7755   54.7899   17.6390 C   0  0  0  0  0  0
    3.9622   53.7188   17.2601 C   0  0  0  0  0  0
    2.7443   53.9269   16.5999 C   0  0  0  0  0  0
    2.3669   55.2391   16.2831 C   0  0  0  0  0  0
    3.1910   56.3281   16.6067 C   0  0  0  0  0  0
    4.3929   56.0920   17.2955 C   0  0  0  0  0  0
    2.7544   57.5820   16.2161 O   0  0  0  0  0  0
    3.6452   58.6925   16.2670 C   0  0  0  0  0  0
    1.1681   55.4598   15.6455 O   0  0  0  0  0  0
    1.2670   55.4807   14.2279 C   0  0  0  0  0  0
    1.8867   52.9032   16.2315 O   0  0  0  0  0  0
    2.2684   51.5507   16.4679 C   0  0  0  0  0  0
    7.7751   55.3772   16.7484 C   0  0  0  0  0  0
    8.1949   55.3949   15.6713 N   0  0  0  0  0  0
    8.9977   56.8973   18.8818 N   0  0  0  0  0  0
    3.8809   52.2995   31.8372 H   0  0  0  0  0  0
    2.9361   51.8529   30.4187 H   0  0  0  0  0  0
    4.7041   51.7661   30.3723 H   0  0  0  0  0  0
    6.0989   53.9076   28.8826 H   0  0  0  0  0  0
    6.2140   54.1687   26.4539 H   0  0  0  0  0  0
    1.9030   54.0963   26.2726 H   0  0  0  0  0  0
    4.0953   52.7219   22.2826 H   0  0  0  0  0  0
    4.4116   52.8363   19.8696 H   0  0  0  0  0  0
    6.9811   55.8527   22.8268 H   0  0  0  0  0  0
    4.2794   52.7169   17.5128 H   0  0  0  0  0  0
    5.0316   56.9152   17.5775 H   0  0  0  0  0  0
    3.1393   59.5680   15.8614 H   0  0  0  0  0  0
    3.9437   58.9336   17.2834 H   0  0  0  0  0  0
    4.5390   58.5186   15.6667 H   0  0  0  0  0  0
    0.2839   55.6721   13.7986 H   0  0  0  0  0  0
    1.9397   56.2674   13.8819 H   0  0  0  0  0  0
    1.6194   54.5245   13.8392 H   0  0  0  0  0  0
    1.4803   50.8872   16.1118 H   0  0  0  0  0  0
    2.4173   51.3477   17.5292 H   0  0  0  0  0  0
    3.1782   51.2970   15.9233 H   0  0  0  0  0  0
    9.4103   57.0083   17.9664 H   0  0  0  0  0  0
    9.5964   57.0768   19.6754 H   0  0  0  0  0  0
  1  2  1  0  0  0
  1 39  1  0  0  0
  1 40  1  0  0  0
  1 41  1  0  0  0
  2  3  1  0  0  0
  3  8  2  0  0  0
  3  4  1  0  0  0
  4  5  2  0  0  0
  4 42  1  0  0  0
  5  6  1  0  0  0
  5 43  1  0  0  0
  6  7  2  0  0  0
  6 10  1  0  0  0
  7  8  1  0  0  0
  7 44  1  0  0  0
  8  9  1  0  0  0
 10 11  2  0  0  0
 10 12  1  0  0  0
 12 13  1  0  0  0
 13 18  2  0  0  0
 13 14  1  0  0  0
 14 15  2  0  0  0
 14 45  1  0  0  0
 15 16  1  0  0  0
 15 46  1  0  0  0
 16 22  1  0  0  0
 16 17  2  0  0  0
 17 18  1  0  0  0
 17 19  1  0  0  0
 18 47  1  0  0  0
 19 20  1  0  0  0
 20 21  2  0  0  0
 20 38  1  0  0  0
 21 22  1  0  0  0
 21 36  1  0  0  0
 22 23  1  0  0  0
 22 24  1  0  0  0
 24 29  2  0  0  0
 24 25  1  0  0  0
 25 26  2  0  0  0
 25 48  1  0  0  0
 26 27  1  0  0  0
 26 34  1  0  0  0
 27 28  2  0  0  0
 27 32  1  0  0  0
 28 29  1  0  0  0
 28 30  1  0  0  0
 29 49  1  0  0  0
 30 31  1  0  0  0
 31 50  1  0  0  0
 31 51  1  0  0  0
 31 52  1  0  0  0
 32 33  1  0  0  0
 33 53  1  0  0  0
 33 54  1  0  0  0
 33 55  1  0  0  0
 34 35  1  0  0  0
 35 56  1  0  0  0
 35 57  1  0  0  0
 35 58  1  0  0  0
 36 37  3  0  0  0
 38 59  1  0  0  0
 38 60  1  0  0  0
M  END
> <i_i_glide_confnum>
25

> <i_i_glide_lignum>
5408

> <i_i_glide_posenum>
304

> <i_i_glide_rotatable_bonds>
9

> <i_m_Source_File_Index>
688

> <b_m_subgroup_collapsed>
0

> <r_i_docking_score>
-5.5047

> <r_i_glide_ecoul>
-4.70642

> <r_i_glide_eff_state_penalty>
0

> <r_i_glide_einternal>
9.65882

> <r_i_glide_emodel>
-57.5244

> <r_i_glide_energy>
-48.4684

> <r_i_glide_erotb>
0.300842

> <r_i_glide_esite>
-0.0216067

> <r_i_glide_evdw>
-43.7619

> <r_i_glide_gscore>
-5.5047

> <r_i_glide_hbond>
-0.446395

> <r_i_glide_ligand_efficiency>
-0.148776

> <r_i_glide_ligand_efficiency_ln>
-1.19384

> <r_i_glide_ligand_efficiency_sa>
-0.495754

> <r_i_glide_lipo>
-2.8805

> <r_i_glide_metal>
0

> <r_i_glide_rewards>
0.43702

> <s_i_glide_gridfile>
wee1_glide-grid

> <s_m_Source_File>
wee1_decoys_glide_SP.sdf

> <s_m_Source_Path>
/Users/zhangxujun/Desktop

> <s_m_entry_id>
963

> <s_m_entry_name>
wee1_decoys_glide_SP.688

> <s_m_subgroup_title>
wee1_decoys_glide_SP

> <s_m_subgroupid>
wee1_decoys_glide_SP


$$$$
