ZINC00623033_3638
                    3D
 Schrodinger Suite 2024-2.
 52 56  0  0  1  0            999 V2000
    5.6395   54.8568   20.8228 C   0  0  0  0  0  0
    5.1748   54.5043   19.5565 C   0  0  0  0  0  0
    4.3118   53.4200   19.4145 C   0  0  0  0  0  0
    3.9060   52.6893   20.5358 C   0  0  0  0  0  0
    4.3852   53.0497   21.8010 C   0  0  0  0  0  0
    5.2515   54.1298   21.9459 C   0  0  0  0  0  0
    2.9413   51.5160   20.3301 C   0  0  0  0  0  0
    2.7041   50.7359   21.5099 O   0  0  0  0  0  0
    1.7896   51.1491   22.4624 C   0  0  0  0  0  0
    1.5229   50.2548   23.4978 C   0  0  0  0  0  0
    0.6770   50.5938   24.5483 C   0  0  0  0  0  0
    0.0748   51.8497   24.5642 C   0  0  0  0  0  0
    0.2993   52.7338   23.5068 C   0  0  0  0  0  0
    1.1554   52.3972   22.4634 C   0  0  0  0  0  0
   -0.8647   52.2598   25.6973 C   0  0  2  0  0  0
   -1.1252   53.2953   25.4971 H   0  0  0  0  0  0
   -0.3212   52.1820   27.1446 C   0  0  0  0  0  0
    0.8892   52.4632   27.8605 C   0  0  0  0  0  0
    0.7635   52.1482   29.1469 N   0  0  0  0  0  0
   -0.4795   51.6966   29.3111 N   0  0  0  0  0  0
   -0.8409   51.3583   30.1947 H   0  0  0  0  0  0
   -1.1505   51.6922   28.1356 C   0  0  0  0  0  0
   -2.4345   51.2293   28.0341 O   0  0  0  0  0  0
   -2.8799   51.1290   26.7536 C   0  0  0  0  0  0
   -2.2301   51.5465   25.6383 C   0  0  0  0  0  0
   -2.8407   51.3874   24.3557 C   0  0  0  0  0  0
   -3.3253   51.2969   23.3090 N   0  0  0  0  0  0
   -4.0975   50.5091   26.8033 N   0  0  0  0  0  0
    2.2068   53.0320   27.3840 C   0  0  0  0  0  0
    2.3022   53.6964   26.1587 C   0  0  0  0  0  0
    3.5113   54.2360   25.7224 C   0  0  0  0  0  0
    4.6444   54.1353   26.5254 C   0  0  0  0  0  0
    4.5716   53.4915   27.7577 C   0  0  0  0  0  0
    3.3623   52.9410   28.1801 C   0  0  0  0  0  0
    6.1403   54.8248   26.0004 Cl  0  0  0  0  0  0
    6.3115   55.6956   20.9326 H   0  0  0  0  0  0
    5.4863   55.0646   18.6869 H   0  0  0  0  0  0
    3.9647   53.1408   18.4284 H   0  0  0  0  0  0
    4.0855   52.4991   22.6758 H   0  0  0  0  0  0
    5.6170   54.4027   22.9259 H   0  0  0  0  0  0
    3.3826   50.8421   19.5934 H   0  0  0  0  0  0
    2.0043   51.8631   19.8908 H   0  0  0  0  0  0
    2.0057   49.2964   23.4991 H   0  0  0  0  0  0
    0.5004   49.8869   25.3471 H   0  0  0  0  0  0
   -0.1786   53.6972   23.5161 H   0  0  0  0  0  0
    1.3341   53.1194   21.6805 H   0  0  0  0  0  0
   -4.6206   50.3500   25.9555 H   0  0  0  0  0  0
   -4.2984   49.9021   27.5859 H   0  0  0  0  0  0
    1.4304   53.8409   25.5460 H   0  0  0  0  0  0
    3.5616   54.7483   24.7732 H   0  0  0  0  0  0
    5.4492   53.4111   28.3822 H   0  0  0  0  0  0
    3.3348   52.4405   29.1373 H   0  0  0  0  0  0
  1  6  2  0  0  0
  1  2  1  0  0  0
  1 36  1  0  0  0
  2  3  2  0  0  0
  2 37  1  0  0  0
  3  4  1  0  0  0
  3 38  1  0  0  0
  4  5  2  0  0  0
  4  7  1  0  0  0
  5  6  1  0  0  0
  5 39  1  0  0  0
  6 40  1  0  0  0
  7  8  1  0  0  0
  7 41  1  0  0  0
  7 42  1  0  0  0
  8  9  1  0  0  0
  9 14  2  0  0  0
  9 10  1  0  0  0
 10 11  2  0  0  0
 10 43  1  0  0  0
 11 12  1  0  0  0
 11 44  1  0  0  0
 12 13  2  0  0  0
 12 15  1  0  0  0
 13 14  1  0  0  0
 13 45  1  0  0  0
 14 46  1  0  0  0
 15 16  1  0  0  0
 15 25  1  0  0  0
 15 17  1  0  0  0
 17 22  2  0  0  0
 17 18  1  0  0  0
 18 19  2  0  0  0
 18 29  1  0  0  0
 19 20  1  0  0  0
 20 21  1  0  0  0
 20 22  1  0  0  0
 22 23  1  0  0  0
 23 24  1  0  0  0
 24 25  2  0  0  0
 24 28  1  0  0  0
 25 26  1  0  0  0
 26 27  3  0  0  0
 28 47  1  0  0  0
 28 48  1  0  0  0
 29 34  2  0  0  0
 29 30  1  0  0  0
 30 31  2  0  0  0
 30 49  1  0  0  0
 31 32  1  0  0  0
 31 50  1  0  0  0
 32 33  2  0  0  0
 32 35  1  0  0  0
 33 34  1  0  0  0
 33 51  1  0  0  0
 34 52  1  0  0  0
M  END
> <i_i_glide_confnum>
76

> <i_i_glide_lignum>
3639

> <i_i_glide_posenum>
298

> <i_i_glide_rotatable_bonds>
6

> <i_m_Source_File_Index>
1468

> <b_m_subgroup_collapsed>
0

> <r_i_docking_score>
-5.14177

> <r_i_glide_ecoul>
-2.39328

> <r_i_glide_eff_state_penalty>
0

> <r_i_glide_einternal>
2.04417

> <r_i_glide_emodel>
-60.7957

> <r_i_glide_energy>
-45.9901

> <r_i_glide_erotb>
0.48528

> <r_i_glide_esite>
-0.0904122

> <r_i_glide_evdw>
-43.5968

> <r_i_glide_gscore>
-5.14177

> <r_i_glide_hbond>
0

> <r_i_glide_ligand_efficiency>
-0.155811

> <r_i_glide_ligand_efficiency_ln>
-1.1435

> <r_i_glide_ligand_efficiency_sa>
-0.49977

> <r_i_glide_lipo>
-2.62436

> <r_i_glide_metal>
0

> <r_i_glide_rewards>
-0.373446

> <s_i_glide_gridfile>
wee1_glide-grid

> <s_m_Source_File>
wee1_decoys_glide_SP.sdf

> <s_m_Source_Path>
/Users/zhangxujun/Desktop

> <s_m_entry_id>
1743

> <s_m_entry_name>
wee1_decoys_glide_SP.1468

> <s_m_subgroup_title>
wee1_decoys_glide_SP

> <s_m_subgroupid>
wee1_decoys_glide_SP


$$$$
