ZINC53114657_4753
                    3D
 Schrodinger Suite 2024-2.
 45 47  0  0  1  0            999 V2000
   -2.0951   53.6443   23.6762 C   0  0  0  0  0  0
   -2.1718   52.6667   24.8584 C   0  0  1  0  0  0
   -2.1504   53.2238   25.7971 H   0  0  0  0  0  0
   -3.4883   51.8685   24.7896 C   0  0  0  0  0  0
   -3.5978   50.8852   25.9614 C   0  0  0  0  0  0
   -2.3785   49.9340   26.0042 C   0  0  0  0  0  0
   -0.9798   50.6370   26.0129 C   0  0  2  0  0  0
   -0.9734   51.6838   24.8444 C   0  0  0  0  0  0
    0.1370   49.5524   25.8697 C   0  0  0  0  0  0
    0.3024   49.0284   24.5621 O   0  0  0  0  0  0
   -0.9071   51.2969   27.3291 N   0  0  0  0  0  0
    0.1859   51.9627   27.9398 C   0  0  0  0  0  0
    1.3046   52.4313   27.2314 C   0  0  0  0  0  0
    2.3430   53.0879   27.8914 C   0  0  0  0  0  0
    2.2797   53.3011   29.2757 C   0  0  0  0  0  0
    1.1887   52.8333   29.9969 C   0  0  0  0  0  0
    0.1521   52.1667   29.3406 C   0  0  0  0  0  0
   -0.8956   51.6967   30.1364 N   0  0  0  0  0  0
    3.3082   53.8950   29.9821 O   0  0  0  0  0  0
    4.2068   54.6510   29.1627 C   0  0  0  0  0  0
    4.5695   53.8661   27.8777 C   0  0  0  0  0  0
    3.3881   53.5657   27.1262 O   0  0  0  0  0  0
   -2.1385   53.1111   22.7258 H   0  0  0  0  0  0
   -2.9175   54.3606   23.6817 H   0  0  0  0  0  0
   -1.1616   54.2048   23.6823 H   0  0  0  0  0  0
   -3.5486   51.3267   23.8438 H   0  0  0  0  0  0
   -4.3422   52.5477   24.7754 H   0  0  0  0  0  0
   -4.5179   50.3053   25.8775 H   0  0  0  0  0  0
   -3.6719   51.4366   26.8999 H   0  0  0  0  0  0
   -2.4959   49.2966   26.8804 H   0  0  0  0  0  0
   -2.4361   49.2635   25.1454 H   0  0  0  0  0  0
   -0.9951   51.1528   23.8915 H   0  0  0  0  0  0
   -0.0496   52.2485   24.7839 H   0  0  0  0  0  0
    1.1037   49.9403   26.1787 H   0  0  0  0  0  0
   -0.0667   48.7127   26.5338 H   0  0  0  0  0  0
    1.0509   48.4224   24.5773 H   0  0  0  0  0  0
   -1.4019   50.7371   28.0099 H   0  0  0  0  0  0
    1.4115   52.2827   26.1735 H   0  0  0  0  0  0
    1.1557   52.9742   31.0679 H   0  0  0  0  0  0
   -0.8602   51.7986   31.1471 H   0  0  0  0  0  0
   -1.5067   50.9823   29.7639 H   0  0  0  0  0  0
    3.7185   55.5861   28.8843 H   0  0  0  0  0  0
    5.1051   54.8978   29.7291 H   0  0  0  0  0  0
    5.2590   54.4384   27.2572 H   0  0  0  0  0  0
    5.0666   52.9340   28.1533 H   0  0  0  0  0  0
  1  2  1  0  0  0
  1 23  1  0  0  0
  1 24  1  0  0  0
  1 25  1  0  0  0
  2  3  1  0  0  0
  2  8  1  0  0  0
  2  4  1  0  0  0
  4  5  1  0  0  0
  4 26  1  0  0  0
  4 27  1  0  0  0
  5  6  1  0  0  0
  5 28  1  0  0  0
  5 29  1  0  0  0
  6  7  1  0  0  0
  6 30  1  0  0  0
  6 31  1  0  0  0
  7  8  1  0  0  0
  7  9  1  0  0  0
  7 11  1  0  0  0
  8 32  1  0  0  0
  8 33  1  0  0  0
  9 10  1  0  0  0
  9 34  1  0  0  0
  9 35  1  0  0  0
 10 36  1  0  0  0
 11 12  1  0  0  0
 11 37  1  0  0  0
 12 17  2  0  0  0
 12 13  1  0  0  0
 13 14  2  0  0  0
 13 38  1  0  0  0
 14 22  1  0  0  0
 14 15  1  0  0  0
 15 16  2  0  0  0
 15 19  1  0  0  0
 16 17  1  0  0  0
 16 39  1  0  0  0
 17 18  1  0  0  0
 18 40  1  0  0  0
 18 41  1  0  0  0
 19 20  1  0  0  0
 20 21  1  0  0  0
 20 42  1  0  0  0
 20 43  1  0  0  0
 21 22  1  0  0  0
 21 44  1  0  0  0
 21 45  1  0  0  0
M  END
> <i_i_glide_confnum>
5

> <i_i_glide_lignum>
4754

> <i_i_glide_posenum>
148

> <i_i_glide_rotatable_bonds>
4

> <i_m_Source_File_Index>
5034

> <b_m_subgroup_collapsed>
0

> <r_i_docking_score>
-5.303

> <r_i_glide_ecoul>
-7.92886

> <r_i_glide_eff_state_penalty>
0

> <r_i_glide_einternal>
5.79482

> <r_i_glide_emodel>
-40.8205

> <r_i_glide_energy>
-33.4258

> <r_i_glide_erotb>
0.640693

> <r_i_glide_esite>
-0.144402

> <r_i_glide_evdw>
-25.497

> <r_i_glide_gscore>
-5.303

> <r_i_glide_hbond>
-0.644214

> <r_i_glide_ligand_efficiency>
-0.252524

> <r_i_glide_ligand_efficiency_ln>
-1.31116

> <r_i_glide_ligand_efficiency_sa>
-0.696694

> <r_i_glide_lipo>
-1.27526

> <r_i_glide_metal>
0

> <r_i_glide_rewards>
-1.41564

> <s_i_glide_gridfile>
wee1_glide-grid

> <s_m_Source_File>
wee1_decoys_glide_SP.sdf

> <s_m_Source_Path>
/Users/zhangxujun/Desktop

> <s_m_entry_id>
5309

> <s_m_entry_name>
wee1_decoys_glide_SP.5034

> <s_m_subgroup_title>
wee1_decoys_glide_SP

> <s_m_subgroupid>
wee1_decoys_glide_SP


$$$$
