@<TRIPOS>MOLECULE
ZINC20767172_2194
54   56    1
SMALL
USER_CHARGES


@<TRIPOS>ATOM
      1 C1          6.9407   55.4696   22.0875 C.ar      1 UNK         0.0000 
      2 C2          6.1216   54.8967   21.1188 C.ar      1 UNK         0.0000 
      3 C3          5.0843   54.0375   21.4967 C.ar      1 UNK         0.0000 
      4 C4          4.8522   53.8012   22.8567 C.ar      1 UNK         0.0000 
      5 C5          5.6511   54.3919   23.8398 C.ar      1 UNK         0.0000 
      6 C6          6.7044   55.2273   23.4403 C.ar      1 UNK         0.0000 
      7 N7          5.3019   54.1063   25.1733 N.am      1 UNK         0.0000 
      8 C8          5.8080   54.5890   26.3303 C.2       1 UNK         0.0000 
      9 O9          6.8068   55.2968   26.4000 O.2       1 UNK         0.0000 
     10 C10         5.0829   54.2686   27.6565 C.3       1 UNK         0.0000 
     11 N11         3.8752   53.2992   27.5052 N.4       1 UNK         0.0000 
     12 C12         2.6250   53.9767   26.8919 C.3       1 UNK         0.0000 
     13 C13         1.5796   52.8700   26.6684 C.3       1 UNK         0.0000 
     14 N14         1.1348   52.3026   27.9565 N.3       1 UNK         0.0000 
     15 C15         2.2942   51.7251   28.6705 C.3       1 UNK         0.0000 
     16 C16         3.4498   52.7343   28.8809 C.3       1 UNK         0.0000 
     17 C17         0.1292   51.2313   27.7475 C.3       1 UNK         0.0000 
     18 C18        -1.2895   51.7446   27.3953 C.2       1 UNK         0.0000 
     19 O19        -1.4629   52.8503   26.8814 O.2       1 UNK         0.0000 
     20 N20        -2.2933   50.8966   27.6993 N.am      1 UNK         0.0000 
     21 C21        -3.6817   51.0729   27.5779 C.ar      1 UNK         0.0000 
     22 C22        -4.4686   50.2330   28.3679 C.ar      1 UNK         0.0000 
     23 C23        -5.8567   50.3358   28.3271 C.ar      1 UNK         0.0000 
     24 C24        -6.4567   51.2699   27.4871 C.ar      1 UNK         0.0000 
     25 C25        -5.6812   52.0989   26.6806 C.ar      1 UNK         0.0000 
     26 C26        -4.2922   52.0007   26.7189 C.ar      1 UNK         0.0000 
     27 F27        -7.8043   51.3712   27.4506 F         1 UNK         0.0000 
     28 C28         4.2424   53.3320   20.4387 C.3       1 UNK         0.0000 
     29 F29         4.0680   54.0991   19.3621 F         1 UNK         0.0000 
     30 F30         4.8923   52.2289   20.0825 F         1 UNK         0.0000 
     31 F31         3.0472   52.9739   20.9110 F         1 UNK         0.0000 
     32 H32         7.7693   56.0968   21.7947 H         1 UNK         0.0000 
     33 H33         6.3228   55.0853   20.0730 H         1 UNK         0.0000 
     34 H34         4.0412   53.1474   23.1445 H         1 UNK         0.0000 
     35 H35         7.3673   55.6985   24.1481 H         1 UNK         0.0000 
     36 H36         4.5256   53.4717   25.2575 H         1 UNK         0.0000 
     37 H37         4.7183   55.1745   28.1432 H         1 UNK         0.0000 
     38 H38         5.7884   53.7851   28.3353 H         1 UNK         0.0000 
     39 H39         2.2805   54.7640   27.5673 H         1 UNK         0.0000 
     40 H40         2.8877   54.4260   25.9360 H         1 UNK         0.0000 
     41 H41         2.0060   52.0970   26.0327 H         1 UNK         0.0000 
     42 H42         0.7422   53.2988   26.1229 H         1 UNK         0.0000 
     43 H43         1.9790   51.3427   29.6428 H         1 UNK         0.0000 
     44 H44         2.6911   50.9011   28.0792 H         1 UNK         0.0000 
     45 H45         3.1723   53.5726   29.5225 H         1 UNK         0.0000 
     46 H46         4.3237   52.2204   29.2868 H         1 UNK         0.0000 
     47 H47         0.0437   50.6273   28.6522 H         1 UNK         0.0000 
     48 H48         0.4588   50.5245   26.9824 H         1 UNK         0.0000 
     49 H49        -2.0243   49.9866   28.0824 H         1 UNK         0.0000 
     50 H50        -4.0054   49.5043   29.0218 H         1 UNK         0.0000 
     51 H51        -6.4663   49.6910   28.9419 H         1 UNK         0.0000 
     52 H52        -6.1587   52.8100   26.0238 H         1 UNK         0.0000 
     53 H53        -3.7137   52.6430   26.0736 H         1 UNK         0.0000 
     54 H54         4.1681   52.5231   26.9239 H         1 UNK         0.0000 
@<TRIPOS>BOND
     1    1    6 ar   
     2    1    2 ar   
     3    1   32 1    
     4    2    3 ar   
     5    2   33 1    
     6    3    4 ar   
     7    3   28 1    
     8    4    5 ar   
     9    4   34 1    
    10    5    6 ar   
    11    5    7 1    
    12    6   35 1    
    13    7    8 am   BACKBONE|DICT|INTERRES
    14    7   36 1    
    15    8    9 2    
    16    8   10 1    
    17   10   11 1    
    18   10   37 1    
    19   10   38 1    
    20   11   16 1    
    21   11   12 1    
    22   11   54 1    
    23   12   13 1    
    24   12   39 1    
    25   12   40 1    
    26   13   14 1    
    27   13   41 1    
    28   13   42 1    
    29   14   15 1    
    30   14   17 1    
    31   15   16 1    
    32   15   43 1    
    33   15   44 1    
    34   16   45 1    
    35   16   46 1    
    36   17   18 1    
    37   17   47 1    
    38   17   48 1    
    39   18   19 2    
    40   18   20 am   BACKBONE|DICT|INTERRES
    41   20   21 1    
    42   20   49 1    
    43   21   26 ar   
    44   21   22 ar   
    45   22   23 ar   
    46   22   50 1    
    47   23   24 ar   
    48   23   51 1    
    49   24   25 ar   
    50   24   27 1    
    51   25   26 ar   
    52   25   52 1    
    53   26   53 1    
    54   28   29 1    
    55   28   30 1    
    56   28   31 1    
@<TRIPOS>SUBSTRUCTURE
     1 UNK         1 GROUP             0       ****    0 ROOT    
