@<TRIPOS>MOLECULE
ZINC12781442_2089
67   70    1
SMALL
USER_CHARGES


@<TRIPOS>ATOM
      1 C1          6.8660   53.7491   24.1731 C.3       1 UNK         0.0000 
      2 C2          5.7041   54.6526   24.6495 C.3       1 UNK         0.0000 
      3 C3          6.2683   56.0716   24.8668 C.3       1 UNK         0.0000 
      4 C4          4.6896   54.6162   23.4684 C.3       1 UNK         0.0000 
      5 C5          5.0544   54.2193   25.9876 C.ar      1 UNK         0.0000 
      6 C6          5.8131   53.6971   27.0469 C.ar      1 UNK         0.0000 
      7 C7          5.2083   53.3477   28.2538 C.ar      1 UNK         0.0000 
      8 C8          3.8392   53.5396   28.4360 C.ar      1 UNK         0.0000 
      9 C9          3.0923   54.1340   27.4143 C.ar      1 UNK         0.0000 
     10 C10         3.6904   54.4479   26.2055 C.ar      1 UNK         0.0000 
     11 N11         3.2750   53.1726   29.6732 N.am      1 UNK         0.0000 
     12 C12         1.9864   52.8585   29.9443 C.2       1 UNK         0.0000 
     13 O13         1.5540   52.8966   31.0916 O.2       1 UNK         0.0000 
     14 C14         1.1018   52.3646   28.8302 C.ar      1 UNK         0.0000 
     15 C15         1.5042   51.2844   28.0521 C.ar      1 UNK         0.0000 
     16 C16         0.7044   50.8059   27.0163 C.ar      1 UNK         0.0000 
     17 C17        -0.4818   51.4491   26.7072 C.ar      1 UNK         0.0000 
     18 C18        -0.8957   52.5234   27.4897 C.ar      1 UNK         0.0000 
     19 C19        -0.1192   52.9770   28.5576 C.ar      1 UNK         0.0000 
     20 N20        -1.2361   50.9462   25.6411 N.am      1 UNK         0.0000 
     21 C21        -1.9508   51.6553   24.7428 C.2       1 UNK         0.0000 
     22 O22        -2.0181   52.8862   24.7039 O.2       1 UNK         0.0000 
     23 C23        -2.7083   50.8350   23.6925 C.3       1 UNK         0.0000 
     24 C24        -2.1843   51.0098   22.2383 C.3       1 UNK         0.0000 
     25 H25        -2.3797   52.0246   21.8919 H         1 UNK         0.0000 
     26 C26        -2.9206   50.0656   21.2855 C.2       1 UNK         0.0000 
     27 O27        -4.1412   50.0954   21.1471 O.2       1 UNK         0.0000 
     28 N28        -2.0856   49.2089   20.6166 N.am      1 UNK         0.0000 
     29 C29        -0.8496   49.3746   20.8460 C.2       1 UNK         0.0000 
     30 S30        -0.4225   50.6705   22.0075 S.3       1 UNK         0.0000 
     31 N31         0.1437   48.5868   20.2552 N.pl3     1 UNK         0.0000 
     32 C32         1.5947   48.8093   20.4042 C.3       1 UNK         0.0000 
     33 C33         2.2235   49.0176   19.0074 C.3       1 UNK         0.0000 
     34 C34         1.9029   47.8605   18.0431 C.3       1 UNK         0.0000 
     35 C35         0.3995   47.5422   18.0344 C.3       1 UNK         0.0000 
     36 C36        -0.1614   47.3794   19.4621 C.3       1 UNK         0.0000 
     37 H37         7.5048   54.2710   23.4601 H         1 UNK         0.0000 
     38 H38         6.4847   52.8967   23.6239 H         1 UNK         0.0000 
     39 H39         7.5042   53.3783   24.9653 H         1 UNK         0.0000 
     40 H40         5.5045   56.7531   25.2386 H         1 UNK         0.0000 
     41 H41         7.0759   56.0708   25.5995 H         1 UNK         0.0000 
     42 H42         6.6752   56.4820   23.9445 H         1 UNK         0.0000 
     43 H43         3.8510   55.2966   23.5921 H         1 UNK         0.0000 
     44 H44         5.1657   54.8919   22.5254 H         1 UNK         0.0000 
     45 H45         4.2654   53.6197   23.3358 H         1 UNK         0.0000 
     46 H46         6.8777   53.5503   26.9585 H         1 UNK         0.0000 
     47 H47         5.8142   52.9218   29.0376 H         1 UNK         0.0000 
     48 H48         2.0459   54.3655   27.5349 H         1 UNK         0.0000 
     49 H49         3.0635   54.8952   25.4553 H         1 UNK         0.0000 
     50 H50         3.9066   53.1890   30.4575 H         1 UNK         0.0000 
     51 H51         2.4332   50.7879   28.2691 H         1 UNK         0.0000 
     52 H52         1.0274   49.9440   26.4498 H         1 UNK         0.0000 
     53 H53        -1.8363   52.9962   27.2679 H         1 UNK         0.0000 
     54 H54        -0.4645   53.8096   29.1537 H         1 UNK         0.0000 
     55 H55        -1.1421   49.9536   25.4845 H         1 UNK         0.0000 
     56 H56        -2.6906   49.7789   23.9720 H         1 UNK         0.0000 
     57 H57        -3.7582   51.1286   23.7506 H         1 UNK         0.0000 
     58 H58         1.8633   49.6083   21.0946 H         1 UNK         0.0000 
     59 H59         1.9995   47.8885   20.8255 H         1 UNK         0.0000 
     60 H60         1.8517   49.9511   18.5814 H         1 UNK         0.0000 
     61 H61         3.3016   49.1525   19.0930 H         1 UNK         0.0000 
     62 H62         2.4567   46.9733   18.3473 H         1 UNK         0.0000 
     63 H63         2.2489   48.0948   17.0359 H         1 UNK         0.0000 
     64 H64         0.2023   46.6443   17.4478 H         1 UNK         0.0000 
     65 H65        -0.1362   48.3489   17.5310 H         1 UNK         0.0000 
     66 H66         0.3732   46.5644   19.9512 H         1 UNK         0.0000 
     67 H67        -1.2168   47.1016   19.4633 H         1 UNK         0.0000 
@<TRIPOS>BOND
     1    1    2 1    
     2    1   37 1    
     3    1   38 1    
     4    1   39 1    
     5    2    3 1    
     6    2    4 1    
     7    2    5 1    
     8    3   40 1    
     9    3   41 1    
    10    3   42 1    
    11    4   43 1    
    12    4   44 1    
    13    4   45 1    
    14    5   10 ar   
    15    5    6 ar   
    16    6    7 ar   
    17    6   46 1    
    18    7    8 ar   
    19    7   47 1    
    20    8    9 ar   
    21    8   11 1    
    22    9   10 ar   
    23    9   48 1    
    24   10   49 1    
    25   11   12 am   BACKBONE|DICT|INTERRES
    26   11   50 1    
    27   12   13 2    
    28   12   14 1    
    29   14   19 ar   
    30   14   15 ar   
    31   15   16 ar   
    32   15   51 1    
    33   16   17 ar   
    34   16   52 1    
    35   17   18 ar   
    36   17   20 1    
    37   18   19 ar   
    38   18   53 1    
    39   19   54 1    
    40   20   21 am   BACKBONE|DICT|INTERRES
    41   20   55 1    
    42   21   22 2    
    43   21   23 1    
    44   23   24 1    
    45   23   56 1    
    46   23   57 1    
    47   24   25 1    
    48   24   30 1    
    49   24   26 1    
    50   26   27 2    
    51   26   28 am   BACKBONE|DICT|INTERRES
    52   28   29 2    BACKBONE|DICT|INTERRES
    53   29   30 1    
    54   29   31 1    
    55   31   36 1    
    56   31   32 1    
    57   32   33 1    
    58   32   58 1    
    59   32   59 1    
    60   33   34 1    
    61   33   60 1    
    62   33   61 1    
    63   34   35 1    
    64   34   62 1    
    65   34   63 1    
    66   35   36 1    
    67   35   64 1    
    68   35   65 1    
    69   36   66 1    
    70   36   67 1    
@<TRIPOS>SUBSTRUCTURE
     1 UNK         1 GROUP             0       ****    0 ROOT    
