@<TRIPOS>MOLECULE
ZINC40315491_3741
68   71    1
SMALL
USER_CHARGES


@<TRIPOS>ATOM
      1 C1         -0.9258   51.9488   29.8175 C.3       1 UNK         0.0000 
      2 C2          0.4078   52.4456   29.3146 C.ar      1 UNK         0.0000 
      3 C3          0.5537   52.9036   28.0062 C.ar      1 UNK         0.0000 
      4 C4          1.7843   53.3938   27.5736 C.ar      1 UNK         0.0000 
      5 C5          2.8936   53.4147   28.4364 C.ar      1 UNK         0.0000 
      6 C6          2.7349   52.9310   29.7454 C.ar      1 UNK         0.0000 
      7 C7          1.4958   52.4632   30.1813 C.ar      1 UNK         0.0000 
      8 C8          3.9045   52.8962   30.7049 C.3       1 UNK         0.0000 
      9 O9          4.1396   53.8957   28.0738 O.3       1 UNK         0.0000 
     10 C10         4.3813   54.2468   26.7122 C.3       1 UNK         0.0000 
     11 C11         5.8359   54.7329   26.5230 C.3       1 UNK         0.0000 
     12 H12         6.0310   55.5459   27.2237 H         1 UNK         0.0000 
     13 C13         6.1269   55.2292   25.0871 C.3       1 UNK         0.0000 
     14 N14         5.8740   54.2436   24.0393 N.pl3     1 UNK         0.0000 
     15 C15         5.9178   54.4963   22.6886 C.2       1 UNK         0.0000 
     16 C16         5.0957   53.9578   21.6903 C.2       1 UNK         0.0000 
     17 C17         5.3768   54.4960   20.4135 C.2       1 UNK         0.0000 
     18 C18         6.4445   55.4081   20.4460 C.2       1 UNK         0.0000 
     19 S19         7.1043   55.5791   22.0347 S.3       1 UNK         0.0000 
     20 C20         6.9414   56.2262   19.2580 C.3       1 UNK         0.0000 
     21 C21         6.3924   55.6013   17.9524 C.3       1 UNK         0.0000 
     22 H22         6.9318   54.6703   17.7581 H         1 UNK         0.0000 
     23 C23         4.8798   55.3266   18.0928 C.3       1 UNK         0.0000 
     24 C24         4.6015   54.2100   19.1217 C.3       1 UNK         0.0000 
     25 C25         6.6824   56.5282   16.7579 C.3       1 UNK         0.0000 
     26 C26         4.0066   53.0585   21.9342 C.2       1 UNK         0.0000 
     27 O27         4.0967   51.8587   21.6814 O.2       1 UNK         0.0000 
     28 N28         2.9203   53.6732   22.4353 N.am      1 UNK         0.0000 
     29 C29         1.5991   53.1025   22.7177 C.3       1 UNK         0.0000 
     30 H30         0.9674   53.9082   23.0975 H         1 UNK         0.0000 
     31 C31         1.6110   51.9949   23.8007 C.3       1 UNK         0.0000 
     32 C32         0.1950   51.4076   23.9109 C.3       1 UNK         0.0000 
     33 S33        -0.4411   51.3893   22.1439 S.o2      1 UNK         0.0000 
     34 O34        -0.3023   50.0511   21.5629 O.2       1 UNK         0.0000 
     35 O35        -1.7252   52.0968   22.0931 O.2       1 UNK         0.0000 
     36 C36         0.9137   52.4957   21.4806 C.3       1 UNK         0.0000 
     37 O37         6.7381   53.6965   26.8523 O.3       1 UNK         0.0000 
     38 H38        -1.7225   52.0910   29.0898 H         1 UNK         0.0000 
     39 H39        -1.1799   52.4708   30.7387 H         1 UNK         0.0000 
     40 H40        -0.8789   50.8965   30.0720 H         1 UNK         0.0000 
     41 H41        -0.2872   52.8947   27.3291 H         1 UNK         0.0000 
     42 H42         1.8541   53.7629   26.5632 H         1 UNK         0.0000 
     43 H43         1.3724   52.1030   31.1937 H         1 UNK         0.0000 
     44 H44         4.3042   53.9030   30.8306 H         1 UNK         0.0000 
     45 H45         3.6429   52.4965   31.6864 H         1 UNK         0.0000 
     46 H46         4.6999   52.2765   30.2860 H         1 UNK         0.0000 
     47 H47         4.1790   53.3893   26.0660 H         1 UNK         0.0000 
     48 H48         3.7027   55.0471   26.4108 H         1 UNK         0.0000 
     49 H49         5.5080   56.1046   24.8894 H         1 UNK         0.0000 
     50 H50         7.1614   55.5672   25.0170 H         1 UNK         0.0000 
     51 H51         5.3067   53.4743   24.3658 H         1 UNK         0.0000 
     52 H52         6.5822   57.2525   19.3551 H         1 UNK         0.0000 
     53 H53         8.0320   56.2622   19.2329 H         1 UNK         0.0000 
     54 H54         4.3393   56.2470   18.3259 H         1 UNK         0.0000 
     55 H55         4.4749   55.0132   17.1286 H         1 UNK         0.0000 
     56 H56         4.9032   53.2409   18.7183 H         1 UNK         0.0000 
     57 H57         3.5275   54.1401   19.3022 H         1 UNK         0.0000 
     58 H58         6.1772   57.4894   16.8602 H         1 UNK         0.0000 
     59 H59         7.7509   56.7232   16.6606 H         1 UNK         0.0000 
     60 H60         6.3482   56.0792   15.8229 H         1 UNK         0.0000 
     61 H61         3.0019   54.6684   22.5785 H         1 UNK         0.0000 
     62 H62         2.3052   51.2019   23.5235 H         1 UNK         0.0000 
     63 H63         1.9726   52.3713   24.7574 H         1 UNK         0.0000 
     64 H64         0.0892   50.4237   24.3671 H         1 UNK         0.0000 
     65 H65        -0.4287   52.1059   24.4682 H         1 UNK         0.0000 
     66 H66         0.6429   53.1249   20.6361 H         1 UNK         0.0000 
     67 H67         1.6185   51.7754   21.0667 H         1 UNK         0.0000 
     68 H68         6.4199   52.8679   26.4794 H         1 UNK         0.0000 
@<TRIPOS>BOND
     1    1    2 1    
     2    1   38 1    
     3    1   39 1    
     4    1   40 1    
     5    2    7 ar   
     6    2    3 ar   
     7    3    4 ar   
     8    3   41 1    
     9    4    5 ar   
    10    4   42 1    
    11    5    6 ar   
    12    5    9 1    
    13    6    7 ar   
    14    6    8 1    
    15    7   43 1    
    16    8   44 1    
    17    8   45 1    
    18    8   46 1    
    19    9   10 1    
    20   10   11 1    
    21   10   47 1    
    22   10   48 1    
    23   11   12 1    
    24   11   13 1    
    25   11   37 1    
    26   13   14 1    
    27   13   49 1    
    28   13   50 1    
    29   14   15 1    
    30   14   51 1    
    31   15   19 1    
    32   15   16 2    
    33   16   17 1    
    34   16   26 1    
    35   17   24 1    
    36   17   18 2    
    37   18   19 1    
    38   18   20 1    
    39   20   21 1    
    40   20   52 1    
    41   20   53 1    
    42   21   22 1    
    43   21   23 1    
    44   21   25 1    
    45   23   24 1    
    46   23   54 1    
    47   23   55 1    
    48   24   56 1    
    49   24   57 1    
    50   25   58 1    
    51   25   59 1    
    52   25   60 1    
    53   26   27 2    
    54   26   28 am   BACKBONE|DICT|INTERRES
    55   28   29 1    
    56   28   61 1    
    57   29   30 1    
    58   29   36 1    
    59   29   31 1    
    60   31   32 1    
    61   31   62 1    
    62   31   63 1    
    63   32   33 1    
    64   32   64 1    
    65   32   65 1    
    66   33   34 2    
    67   33   35 2    
    68   33   36 1    
    69   36   66 1    
    70   36   67 1    
    71   37   68 1    
@<TRIPOS>SUBSTRUCTURE
     1 UNK         1 GROUP             0       ****    0 ROOT    
