ZINC47145955_3336
                    3D
 Schrodinger Suite 2024-2.
 47 51  0  0  1  0            999 V2000
   -4.0906   50.0966   29.9557 C   0  0  0  0  0  0
   -5.1408   50.9384   29.4841 O   0  0  0  0  0  0
   -5.2318   51.2101   28.1285 C   0  0  0  0  0  0
   -4.4159   50.6052   27.1564 C   0  0  0  0  0  0
   -4.4933   50.9748   25.8060 C   0  0  0  0  0  0
   -5.4412   51.9265   25.4179 C   0  0  0  0  0  0
   -6.2886   52.5023   26.3618 C   0  0  0  0  0  0
   -6.1826   52.1527   27.7085 C   0  0  0  0  0  0
   -7.0109   52.7686   28.6142 O   0  0  0  0  0  0
   -3.5378   50.3603   24.7667 C   0  0  2  0  0  0
   -4.0235   50.5694   23.8116 H   0  0  0  0  0  0
   -3.5116   48.8345   24.7967 C   0  0  0  0  0  0
   -2.4677   48.0150   24.6080 C   0  0  0  0  0  0
   -2.6814   46.6456   24.6181 N   0  5  0  0  0  0
   -3.9543   46.3263   24.8233 C   0  0  0  0  0  0
   -4.4956   45.2244   24.8859 O   0  0  0  0  0  0
   -4.9483   47.8408   25.0063 S   0  0  0  0  0  0
   -0.7943   48.5155   24.2833 S   0  0  0  0  0  0
   -1.0221   50.2996   23.9441 C   0  0  1  0  0  0
   -1.1106   50.4151   22.8633 H   0  0  0  0  0  0
   -2.1230   51.0379   24.6656 C   0  0  2  0  0  0
   -2.3442   51.9535   24.1107 H   0  0  0  0  0  0
   -1.4135   51.6094   25.8946 C   0  0  0  0  0  0
   -1.9622   52.0969   26.8819 O   0  0  0  0  0  0
   -0.0734   51.5665   25.6564 N   0  0  0  0  0  0
    0.2308   50.9880   24.4602 C   0  0  0  0  0  0
    1.3257   50.9500   23.8962 O   0  0  0  0  0  0
    0.8843   52.0968   26.5546 C   0  0  0  0  0  0
    0.8734   51.6963   27.8969 C   0  0  0  0  0  0
    1.8026   52.2149   28.7906 C   0  0  0  0  0  0
    2.7657   53.1385   28.3610 C   0  0  0  0  0  0
    2.7725   53.5391   27.0174 C   0  0  0  0  0  0
    1.8408   53.0235   26.1206 C   0  0  0  0  0  0
    3.7623   53.6799   29.3153 N   0  3  0  0  0  0
    3.7200   53.2964   30.4817 O   0  0  0  0  0  0
    4.5847   54.4965   28.9111 O   0  5  0  0  0  0
   -4.1781   49.0817   29.5647 H   0  0  0  0  0  0
   -3.1098   50.4960   29.6906 H   0  0  0  0  0  0
   -4.1336   50.0348   31.0432 H   0  0  0  0  0  0
   -3.6731   49.8725   27.4399 H   0  0  0  0  0  0
   -5.5277   52.2233   24.3827 H   0  0  0  0  0  0
   -7.0169   53.2322   26.0418 H   0  0  0  0  0  0
   -7.6833   53.3073   28.1949 H   0  0  0  0  0  0
    0.1417   50.9803   28.2498 H   0  0  0  0  0  0
    1.7626   51.8916   29.8207 H   0  0  0  0  0  0
    3.5048   54.2479   26.6576 H   0  0  0  0  0  0
    1.8664   53.3439   25.0886 H   0  0  0  0  0  0
  1  2  1  0  0  0
  1 37  1  0  0  0
  1 38  1  0  0  0
  1 39  1  0  0  0
  2  3  1  0  0  0
  3  8  2  0  0  0
  3  4  1  0  0  0
  4  5  2  0  0  0
  4 40  1  0  0  0
  5  6  1  0  0  0
  5 10  1  0  0  0
  6  7  2  0  0  0
  6 41  1  0  0  0
  7  8  1  0  0  0
  7 42  1  0  0  0
  8  9  1  0  0  0
  9 43  1  0  0  0
 10 11  1  0  0  0
 10 21  1  0  0  0
 10 12  1  0  0  0
 12 17  1  0  0  0
 12 13  2  0  0  0
 13 14  1  0  0  0
 13 18  1  0  0  0
 14 15  1  0  0  0
 15 16  2  0  0  0
 15 17  1  0  0  0
 18 19  1  0  0  0
 19 20  1  0  0  0
 19 26  1  0  0  0
 19 21  1  0  0  0
 21 22  1  0  0  0
 21 23  1  0  0  0
 23 24  2  0  0  0
 23 25  1  0  0  0
 25 26  1  0  0  0
 25 28  1  0  0  0
 26 27  2  0  0  0
 28 33  2  0  0  0
 28 29  1  0  0  0
 29 30  2  0  0  0
 29 44  1  0  0  0
 30 31  1  0  0  0
 30 45  1  0  0  0
 31 32  2  0  0  0
 31 34  1  0  0  0
 32 33  1  0  0  0
 32 46  1  0  0  0
 33 47  1  0  0  0
 34 35  2  0  0  0
 34 36  1  0  0  0
M  CHG  3  14  -1  34   1  36  -1
M  END
> <i_i_glide_confnum>
2

> <i_i_glide_lignum>
3337

> <i_i_glide_posenum>
245

> <i_i_glide_rotatable_bonds>
5

> <i_m_Source_File_Index>
1553

> <b_m_subgroup_collapsed>
0

> <r_i_docking_score>
-3.71408

> <r_i_glide_ecoul>
-4.78963

> <r_i_glide_eff_state_penalty>
0

> <r_i_glide_einternal>
1.61205

> <r_i_glide_emodel>
-49.234

> <r_i_glide_energy>
-39.6137

> <r_i_glide_erotb>
0.173039

> <r_i_glide_esite>
-0.031436

> <r_i_glide_evdw>
-34.8241

> <r_i_glide_gscore>
-3.71408

> <r_i_glide_hbond>
-0.16

> <r_i_glide_ligand_efficiency>
-0.112548

> <r_i_glide_ligand_efficiency_ln>
-0.825993

> <r_i_glide_ligand_efficiency_sa>
-0.361001

> <r_i_glide_lipo>
-0.885652

> <r_i_glide_metal>
0

> <r_i_glide_rewards>
-0.350382

> <s_i_glide_gridfile>
wee1_glide-grid

> <s_m_Source_File>
wee1_decoys_glide_SP.sdf

> <s_m_Source_Path>
/Users/zhangxujun/Desktop

> <s_m_entry_id>
1828

> <s_m_entry_name>
wee1_decoys_glide_SP.1553

> <s_m_subgroup_title>
wee1_decoys_glide_SP

> <s_m_subgroupid>
wee1_decoys_glide_SP


$$$$
