@<TRIPOS>MOLECULE
ZINC65074726_304
67   70    1
SMALL
USER_CHARGES


@<TRIPOS>ATOM
      1 C1         -5.2348   45.1954   23.4656 C.3       1 UNK         0.0000 
      2 C2         -5.1877   46.0332   24.7634 C.3       1 UNK         0.0000 
      3 C3         -6.5291   46.8010   24.9113 C.3       1 UNK         0.0000 
      4 C4         -5.1062   45.0675   25.9776 C.3       1 UNK         0.0000 
      5 C5         -3.9953   47.0231   24.6973 C.ar      1 UNK         0.0000 
      6 C6         -2.8448   46.8580   25.4841 C.ar      1 UNK         0.0000 
      7 C7         -1.8101   47.7861   25.4333 C.ar      1 UNK         0.0000 
      8 C8         -1.9173   48.9080   24.6187 C.ar      1 UNK         0.0000 
      9 C9         -3.0393   49.0782   23.8076 C.ar      1 UNK         0.0000 
     10 C10        -4.0595   48.1326   23.8386 C.ar      1 UNK         0.0000 
     11 S11        -0.6549   50.1803   24.6724 S.o2      1 UNK         0.0000 
     12 O12        -1.3516   51.4268   25.0123 O.2       1 UNK         0.0000 
     13 O13         0.4457   49.6694   25.5002 O.2       1 UNK         0.0000 
     14 N14        -0.0648   50.3187   23.0123 N.pl3     1 UNK         0.0000 
     15 C15        -0.7627   51.1547   22.0261 C.3       1 UNK         0.0000 
     16 C16         0.2925   52.0373   21.3422 C.3       1 UNK         0.0000 
     17 C17         1.4991   51.2411   20.7401 C.3       1 UNK         0.0000 
     18 C18         2.0032   50.1208   21.7226 C.3       1 UNK         0.0000 
     19 C19         0.8802   49.3427   22.4427 C.3       1 UNK         0.0000 
     20 C20         2.6338   52.2347   20.4158 C.2       1 UNK         0.0000 
     21 N21         3.1240   52.4451   19.1844 N.pl3     1 UNK         0.0000 
     22 C22         2.6778   51.7073   18.0091 C.3       1 UNK         0.0000 
     23 C23         2.1080   50.3843   18.5069 C.3       1 UNK         0.0000 
     24 N24         1.0459   50.6636   19.4625 N.3       1 UNK         0.0000 
     25 N25         3.1258   52.8894   21.4748 N.pl3     1 UNK         0.0000 
     26 C26         4.1775   53.9029   21.5543 C.3       1 UNK         0.0000 
     27 C27         4.6597   54.1050   22.9898 C.ar      1 UNK         0.0000 
     28 C28         6.0326   54.1934   23.2552 C.ar      1 UNK         0.0000 
     29 C29         6.4869   54.4266   24.5531 C.ar      1 UNK         0.0000 
     30 C30         5.5792   54.5672   25.6012 C.ar      1 UNK         0.0000 
     31 C31         4.2109   54.4861   25.3471 C.ar      1 UNK         0.0000 
     32 C32         3.7512   54.2566   24.0496 C.ar      1 UNK         0.0000 
     33 F33         2.4159   54.1923   23.8287 F         1 UNK         0.0000 
     34 H34        -6.0551   44.4775   23.4818 H         1 UNK         0.0000 
     35 H35        -4.3139   44.6352   23.3103 H         1 UNK         0.0000 
     36 H36        -5.3786   45.8245   22.5864 H         1 UNK         0.0000 
     37 H37        -6.5132   47.4683   25.7748 H         1 UNK         0.0000 
     38 H38        -6.7652   47.4067   24.0366 H         1 UNK         0.0000 
     39 H39        -7.3718   46.1207   25.0466 H         1 UNK         0.0000 
     40 H40        -5.0660   45.6156   26.9214 H         1 UNK         0.0000 
     41 H41        -5.9768   44.4122   26.0302 H         1 UNK         0.0000 
     42 H42        -4.2341   44.4175   25.9443 H         1 UNK         0.0000 
     43 H43        -2.7351   46.0382   26.1778 H         1 UNK         0.0000 
     44 H44        -0.9518   47.6623   26.0814 H         1 UNK         0.0000 
     45 H45        -3.1317   49.9481   23.1743 H         1 UNK         0.0000 
     46 H46        -4.9203   48.2907   23.2050 H         1 UNK         0.0000 
     47 H47        -1.2738   50.5106   21.3072 H         1 UNK         0.0000 
     48 H48        -1.5228   51.7587   22.5240 H         1 UNK         0.0000 
     49 H49        -0.1707   52.6439   20.5654 H         1 UNK         0.0000 
     50 H50         0.6457   52.7568   22.0822 H         1 UNK         0.0000 
     51 H51         2.6227   50.5643   22.5012 H         1 UNK         0.0000 
     52 H52         2.6695   49.4251   21.2133 H         1 UNK         0.0000 
     53 H53         1.2723   48.7089   23.2400 H         1 UNK         0.0000 
     54 H54         0.3377   48.6994   21.7471 H         1 UNK         0.0000 
     55 H55         1.9264   52.3062   17.4944 H         1 UNK         0.0000 
     56 H56         3.5131   51.5422   17.3333 H         1 UNK         0.0000 
     57 H57         1.7099   49.8071   17.6699 H         1 UNK         0.0000 
     58 H58         2.8862   49.7544   18.9420 H         1 UNK         0.0000 
     59 H59         0.5015   49.8351   19.6518 H         1 UNK         0.0000 
     60 H60         2.6821   52.6711   22.3559 H         1 UNK         0.0000 
     61 H61         4.9958   53.5622   20.9186 H         1 UNK         0.0000 
     62 H62         3.7881   54.8408   21.1456 H         1 UNK         0.0000 
     63 H63         6.7536   54.0969   22.4588 H         1 UNK         0.0000 
     64 H64         7.5479   54.4953   24.7389 H         1 UNK         0.0000 
     65 H65         5.9347   54.7346   26.6078 H         1 UNK         0.0000 
     66 H66         3.5034   54.5947   26.1545 H         1 UNK         0.0000 
     67 H67         3.8439   53.1433   19.0836 H         1 UNK         0.0000 
@<TRIPOS>BOND
     1    1    2 1    
     2    1   34 1    
     3    1   35 1    
     4    1   36 1    
     5    2    3 1    
     6    2    4 1    
     7    2    5 1    
     8    3   37 1    
     9    3   38 1    
    10    3   39 1    
    11    4   40 1    
    12    4   41 1    
    13    4   42 1    
    14    5   10 ar   
    15    5    6 ar   
    16    6    7 ar   
    17    6   43 1    
    18    7    8 ar   
    19    7   44 1    
    20    8    9 ar   
    21    8   11 1    
    22    9   10 ar   
    23    9   45 1    
    24   10   46 1    
    25   11   12 2    
    26   11   13 2    
    27   11   14 1    
    28   14   19 1    
    29   14   15 1    
    30   15   16 1    
    31   15   47 1    
    32   15   48 1    
    33   16   17 1    
    34   16   49 1    
    35   16   50 1    
    36   17   24 1    
    37   17   18 1    
    38   17   20 1    
    39   18   19 1    
    40   18   51 1    
    41   18   52 1    
    42   19   53 1    
    43   19   54 1    
    44   20   21 2    
    45   20   25 1    
    46   21   22 1    
    47   21   67 1    
    48   22   23 1    
    49   22   55 1    
    50   22   56 1    
    51   23   24 1    
    52   23   57 1    
    53   23   58 1    
    54   24   59 1    
    55   25   26 1    
    56   25   60 1    
    57   26   27 1    
    58   26   61 1    
    59   26   62 1    
    60   27   32 ar   
    61   27   28 ar   
    62   28   29 ar   
    63   28   63 1    
    64   29   30 ar   
    65   29   64 1    
    66   30   31 ar   
    67   30   65 1    
    68   31   32 ar   
    69   31   66 1    
    70   32   33 1    
@<TRIPOS>SUBSTRUCTURE
     1 UNK         1 GROUP             0       ****    0 ROOT    
