@<TRIPOS>MOLECULE
ZINC13678423_4017
59   62    1
SMALL
USER_CHARGES


@<TRIPOS>ATOM
      1 C1          6.7976   53.7584   27.1817 C.3       1 UNK         0.0000 
      2 C2          5.3948   53.8255   26.5473 C.ar      1 UNK         0.0000 
      3 C3          5.1794   54.3839   25.2597 C.ar      1 UNK         0.0000 
      4 C4          3.8664   54.4894   24.7686 C.ar      1 UNK         0.0000 
      5 C5          2.7953   53.9632   25.4669 C.ar      1 UNK         0.0000 
      6 C6          3.0071   53.3653   26.6976 C.ar      1 UNK         0.0000 
      7 C7          4.2930   53.3016   27.2602 C.ar      1 UNK         0.0000 
      8 N8          4.4904   52.7598   28.5424 N.pl3     1 UNK         0.0000 
      9 S9          3.1943   52.2263   29.6132 S.o2      1 UNK         0.0000 
     10 O10         2.3246   51.2971   28.8817 O.2       1 UNK         0.0000 
     11 O11         3.8341   51.8245   30.8701 O.2       1 UNK         0.0000 
     12 C12         2.2464   53.6883   29.9634 C.ar      1 UNK         0.0000 
     13 C13         2.6664   54.9473   29.5160 C.ar      1 UNK         0.0000 
     14 C14         1.9113   56.0711   29.8049 C.ar      1 UNK         0.0000 
     15 C15         0.7822   55.9362   30.5916 C.ar      1 UNK         0.0000 
     16 C16         0.3542   54.6857   31.0398 C.ar      1 UNK         0.0000 
     17 C17         1.0765   53.5470   30.7076 C.ar      1 UNK         0.0000 
     18 C18         6.3032   54.9126   24.3959 C.2       1 UNK         0.0000 
     19 O19         7.1044   55.6968   24.9029 O.2       1 UNK         0.0000 
     20 N20         6.3562   54.5686   23.0762 N.am      1 UNK         0.0000 
     21 C21         7.3275   55.2242   22.1804 C.3       1 UNK         0.0000 
     22 C22         6.5613   55.7725   20.9536 C.3       1 UNK         0.0000 
     23 N23         5.6746   54.8034   20.2892 N.pl3     1 UNK         0.0000 
     24 C24         4.7968   54.1066   21.2428 C.3       1 UNK         0.0000 
     25 C25         5.5510   53.5047   22.4499 C.3       1 UNK         0.0000 
     26 C26         5.7941   54.4151   18.9580 C.ar      1 UNK         0.0000 
     27 C27         7.0333   54.4231   18.3025 C.ar      1 UNK         0.0000 
     28 C28         7.1405   54.0275   16.9697 C.ar      1 UNK         0.0000 
     29 C29         6.0070   53.6259   16.2669 C.ar      1 UNK         0.0000 
     30 C30         4.7552   53.6121   16.8938 C.ar      1 UNK         0.0000 
     31 C31         4.6635   54.0042   18.2361 C.ar      1 UNK         0.0000 
     32 C32         3.5031   53.1787   16.1358 C.3       1 UNK         0.0000 
     33 F33         3.7954   52.4340   15.0684 F         1 UNK         0.0000 
     34 F34         2.8599   54.2710   15.7204 F         1 UNK         0.0000 
     35 F35         2.6823   52.4805   16.9231 F         1 UNK         0.0000 
     36 H36         6.7760   53.6996   28.2713 H         1 UNK         0.0000 
     37 H37         7.3540   52.9017   26.8019 H         1 UNK         0.0000 
     38 H38         7.3841   54.6581   27.0070 H         1 UNK         0.0000 
     39 H39         3.6670   54.9520   23.8149 H         1 UNK         0.0000 
     40 H40         1.7975   54.0284   25.0564 H         1 UNK         0.0000 
     41 H41         2.1396   52.9828   27.2056 H         1 UNK         0.0000 
     42 H42         5.4133   52.8212   28.9405 H         1 UNK         0.0000 
     43 H43         3.5758   55.0893   28.9561 H         1 UNK         0.0000 
     44 H44         2.2321   57.0444   29.4691 H         1 UNK         0.0000 
     45 H45         0.2591   56.8331   30.8786 H         1 UNK         0.0000 
     46 H46        -0.4956   54.5954   31.6934 H         1 UNK         0.0000 
     47 H47         0.7567   52.5776   31.0689 H         1 UNK         0.0000 
     48 H48         8.0714   54.4974   21.8565 H         1 UNK         0.0000 
     49 H49         7.8708   56.0411   22.6579 H         1 UNK         0.0000 
     50 H50         7.2680   56.2095   20.2485 H         1 UNK         0.0000 
     51 H51         5.9083   56.5874   21.2689 H         1 UNK         0.0000 
     52 H52         4.0552   54.8364   21.5690 H         1 UNK         0.0000 
     53 H53         4.2485   53.3022   20.7479 H         1 UNK         0.0000 
     54 H54         4.8657   53.0012   23.1266 H         1 UNK         0.0000 
     55 H55         6.2120   52.7138   22.0945 H         1 UNK         0.0000 
     56 H56         7.9335   54.7115   18.8253 H         1 UNK         0.0000 
     57 H57         8.1040   54.0283   16.4816 H         1 UNK         0.0000 
     58 H58         6.1054   53.3217   15.2356 H         1 UNK         0.0000 
     59 H59         3.6930   54.0050   18.7132 H         1 UNK         0.0000 
@<TRIPOS>BOND
     1    1    2 1    
     2    1   36 1    
     3    1   37 1    
     4    1   38 1    
     5    2    7 ar   
     6    2    3 ar   
     7    3    4 ar   
     8    3   18 1    
     9    4    5 ar   
    10    4   39 1    
    11    5    6 ar   
    12    5   40 1    
    13    6    7 ar   
    14    6   41 1    
    15    7    8 1    
    16    8    9 1    
    17    8   42 1    
    18    9   10 2    
    19    9   11 2    
    20    9   12 1    
    21   12   17 ar   
    22   12   13 ar   
    23   13   14 ar   
    24   13   43 1    
    25   14   15 ar   
    26   14   44 1    
    27   15   16 ar   
    28   15   45 1    
    29   16   17 ar   
    30   16   46 1    
    31   17   47 1    
    32   18   19 2    
    33   18   20 am   BACKBONE|DICT|INTERRES
    34   20   25 1    
    35   20   21 1    
    36   21   22 1    
    37   21   48 1    
    38   21   49 1    
    39   22   23 1    
    40   22   50 1    
    41   22   51 1    
    42   23   24 1    
    43   23   26 1    
    44   24   25 1    
    45   24   52 1    
    46   24   53 1    
    47   25   54 1    
    48   25   55 1    
    49   26   31 ar   
    50   26   27 ar   
    51   27   28 ar   
    52   27   56 1    
    53   28   29 ar   
    54   28   57 1    
    55   29   30 ar   
    56   29   58 1    
    57   30   31 ar   
    58   30   32 1    
    59   31   59 1    
    60   32   33 1    
    61   32   34 1    
    62   32   35 1    
@<TRIPOS>SUBSTRUCTURE
     1 UNK         1 GROUP             0       ****    0 ROOT    
