ZINC16613172_1027
                    3D
 Schrodinger Suite 2024-2.
 74 78  0  0  1  0            999 V2000
    0.3381   45.6429   13.9628 C   0  0  0  0  0  0
    0.5854   46.5641   15.1435 C   0  0  0  0  0  0
   -0.1025   47.7763   15.2352 C   0  0  0  0  0  0
    0.1188   48.6232   16.3176 C   0  0  0  0  0  0
    1.0179   48.2566   17.3210 C   0  0  0  0  0  0
    1.7113   47.0417   17.2234 C   0  0  0  0  0  0
    1.4932   46.1973   16.1401 C   0  0  0  0  0  0
    1.2244   49.1771   18.3651 N   0  0  0  0  0  0
    1.6740   48.9290   19.6158 C   0  0  0  0  0  0
    1.7338   47.7878   20.0811 O   0  0  0  0  0  0
    2.0981   50.0259   20.3126 N   0  0  0  0  0  0
    1.8416   51.4307   19.9166 C   0  0  0  0  0  0
    0.8598   52.0264   20.9570 C   0  0  0  0  0  0
    1.3348   51.9528   22.4428 C   0  0  0  0  0  0
    1.7381   50.4587   22.6842 C   0  0  0  0  0  0
    2.7130   49.8631   21.6430 C   0  0  0  0  0  0
    2.5702   52.8694   22.6629 C   0  0  0  0  0  0
    3.6551   52.8150   22.0748 O   0  0  0  0  0  0
    2.2312   53.7230   23.6430 N   0  0  0  0  0  0
    0.8435   53.6093   24.0441 C   0  0  0  0  0  0
    0.3291   52.4003   23.4223 N   0  0  0  0  0  0
   -0.7139   51.6274   23.9640 C   0  0  0  0  0  0
   -0.6901   51.2794   25.3214 C   0  0  0  0  0  0
   -1.6533   50.4229   25.8518 C   0  0  0  0  0  0
   -2.6523   49.9159   25.0279 C   0  0  0  0  0  0
   -2.6864   50.2437   23.6749 C   0  0  0  0  0  0
   -1.7118   51.0868   23.1451 C   0  0  0  0  0  0
    3.1662   54.7287   24.1717 C   0  0  0  0  0  0
    3.6549   54.4436   25.6095 C   0  0  0  0  0  0
    4.4970   55.2035   26.0814 O   0  0  0  0  0  0
    3.1312   53.4102   26.2959 N   0  0  0  0  0  0
    3.3644   53.0109   27.6916 C   0  0  1  0  0  0
    3.1041   51.9537   27.6818 H   0  0  0  0  0  0
    4.8361   53.0590   28.1553 C   0  0  0  0  0  0
    2.4145   53.6720   28.6929 C   0  0  0  0  0  0
    2.3764   55.0639   28.8344 C   0  0  0  0  0  0
    1.5152   55.6522   29.7547 C   0  0  0  0  0  0
    0.7038   54.8446   30.5475 C   0  0  0  0  0  0
    0.7334   53.4576   30.4209 C   0  0  0  0  0  0
    1.5887   52.8727   29.4925 C   0  0  0  0  0  0
   -0.7085   45.6808   13.6581 H   0  0  0  0  0  0
    0.9548   45.9356   13.1126 H   0  0  0  0  0  0
    0.5532   44.6048   14.2182 H   0  0  0  0  0  0
   -0.8034   48.0676   14.4654 H   0  0  0  0  0  0
   -0.4112   49.5640   16.3720 H   0  0  0  0  0  0
    2.4450   46.7605   17.9630 H   0  0  0  0  0  0
    2.0385   45.2678   16.0713 H   0  0  0  0  0  0
    1.0973   50.1431   18.1102 H   0  0  0  0  0  0
    1.5127   51.5589   18.8838 H   0  0  0  0  0  0
    2.8049   51.9441   19.9540 H   0  0  0  0  0  0
   -0.1541   51.6589   20.8240 H   0  0  0  0  0  0
    0.7047   53.0764   20.7079 H   0  0  0  0  0  0
    2.2122   50.3849   23.6656 H   0  0  0  0  0  0
    0.8720   49.8194   22.8546 H   0  0  0  0  0  0
    3.0190   48.8394   21.8655 H   0  0  0  0  0  0
    3.6395   50.4355   21.6211 H   0  0  0  0  0  0
    0.7475   53.5931   25.1273 H   0  0  0  0  0  0
    0.3040   54.4837   23.6817 H   0  0  0  0  0  0
    0.0947   51.6335   25.9726 H   0  0  0  0  0  0
   -1.6161   50.1323   26.8907 H   0  0  0  0  0  0
   -3.3924   49.2458   25.4413 H   0  0  0  0  0  0
   -3.4594   49.8410   23.0383 H   0  0  0  0  0  0
   -1.7597   51.3248   22.0970 H   0  0  0  0  0  0
    2.6757   55.6959   24.1593 H   0  0  0  0  0  0
    4.0479   54.8131   23.5333 H   0  0  0  0  0  0
    2.4342   52.8687   25.8060 H   0  0  0  0  0  0
    4.9692   52.5219   29.0955 H   0  0  0  0  0  0
    5.4982   52.5983   27.4220 H   0  0  0  0  0  0
    5.1786   54.0795   28.3150 H   0  0  0  0  0  0
    3.0164   55.6901   28.2331 H   0  0  0  0  0  0
    1.4868   56.7276   29.8653 H   0  0  0  0  0  0
    0.0441   55.2961   31.2706 H   0  0  0  0  0  0
    0.0986   52.8397   31.0427 H   0  0  0  0  0  0
    1.6024   51.7960   29.3997 H   0  0  0  0  0  0
  1  2  1  0  0  0
  1 41  1  0  0  0
  1 42  1  0  0  0
  1 43  1  0  0  0
  2  7  2  0  0  0
  2  3  1  0  0  0
  3  4  2  0  0  0
  3 44  1  0  0  0
  4  5  1  0  0  0
  4 45  1  0  0  0
  5  6  2  0  0  0
  5  8  1  0  0  0
  6  7  1  0  0  0
  6 46  1  0  0  0
  7 47  1  0  0  0
  8  9  1  0  0  0
  8 48  1  0  0  0
  9 10  2  0  0  0
  9 11  1  0  0  0
 11 16  1  0  0  0
 11 12  1  0  0  0
 12 13  1  0  0  0
 12 49  1  0  0  0
 12 50  1  0  0  0
 13 14  1  0  0  0
 13 51  1  0  0  0
 13 52  1  0  0  0
 14 21  1  0  0  0
 14 15  1  0  0  0
 14 17  1  0  0  0
 15 16  1  0  0  0
 15 53  1  0  0  0
 15 54  1  0  0  0
 16 55  1  0  0  0
 16 56  1  0  0  0
 17 18  2  0  0  0
 17 19  1  0  0  0
 19 20  1  0  0  0
 19 28  1  0  0  0
 20 21  1  0  0  0
 20 57  1  0  0  0
 20 58  1  0  0  0
 21 22  1  0  0  0
 22 27  2  0  0  0
 22 23  1  0  0  0
 23 24  2  0  0  0
 23 59  1  0  0  0
 24 25  1  0  0  0
 24 60  1  0  0  0
 25 26  2  0  0  0
 25 61  1  0  0  0
 26 27  1  0  0  0
 26 62  1  0  0  0
 27 63  1  0  0  0
 28 29  1  0  0  0
 28 64  1  0  0  0
 28 65  1  0  0  0
 29 30  2  0  0  0
 29 31  1  0  0  0
 31 32  1  0  0  0
 31 66  1  0  0  0
 32 33  1  0  0  0
 32 34  1  0  0  0
 32 35  1  0  0  0
 34 67  1  0  0  0
 34 68  1  0  0  0
 34 69  1  0  0  0
 35 40  2  0  0  0
 35 36  1  0  0  0
 36 37  2  0  0  0
 36 70  1  0  0  0
 37 38  1  0  0  0
 37 71  1  0  0  0
 38 39  2  0  0  0
 38 72  1  0  0  0
 39 40  1  0  0  0
 39 73  1  0  0  0
 40 74  1  0  0  0
M  END
> <i_i_glide_confnum>
427

> <i_i_glide_lignum>
1028

> <i_i_glide_posenum>
187

> <i_i_glide_rotatable_bonds>
9

> <i_m_Source_File_Index>
206

> <b_m_subgroup_collapsed>
0

> <r_i_docking_score>
-5.83975

> <r_i_glide_ecoul>
-2.65054

> <r_i_glide_eff_state_penalty>
0

> <r_i_glide_einternal>
7.22098

> <r_i_glide_emodel>
-62.6673

> <r_i_glide_energy>
-48.5187

> <r_i_glide_erotb>
0.595993

> <r_i_glide_esite>
-0.109115

> <r_i_glide_evdw>
-45.8682

> <r_i_glide_gscore>
-5.83975

> <r_i_glide_hbond>
0

> <r_i_glide_ligand_efficiency>
-0.149737

> <r_i_glide_ligand_efficiency_ln>
-1.25221

> <r_i_glide_ligand_efficiency_sa>
-0.507791

> <r_i_glide_lipo>
-2.34633

> <r_i_glide_metal>
0

> <r_i_glide_rewards>
-1.2893

> <s_i_glide_gridfile>
wee1_glide-grid

> <s_m_Source_File>
wee1_decoys_glide_SP.sdf

> <s_m_Source_Path>
/Users/zhangxujun/Desktop

> <s_m_entry_id>
481

> <s_m_entry_name>
wee1_decoys_glide_SP.206

> <s_m_subgroup_title>
wee1_decoys_glide_SP

> <s_m_subgroupid>
wee1_decoys_glide_SP


$$$$
