ZINC28467098_4437
                    3D
 Schrodinger Suite 2024-2.
 46 48  0  0  1  0            999 V2000
    3.2976   52.9067   30.0871 C   0  0  0  0  0  0
    2.1997   52.0928   29.6902 O   0  0  0  0  0  0
    1.6950   52.2347   28.4117 C   0  0  0  0  0  0
    2.0421   53.2667   27.5349 C   0  0  0  0  0  0
    1.5060   53.2966   26.2524 C   0  0  0  0  0  0
    0.6831   52.2691   25.7779 C   0  0  0  0  0  0
    0.3015   51.2672   26.6744 C   0  0  0  0  0  0
    0.7787   51.2806   27.9827 C   0  0  0  0  0  0
    0.1032   52.3545   24.3970 C   0  0  0  0  0  0
   -0.6165   53.2966   24.0674 O   0  0  0  0  0  0
    0.6271   51.3792   23.2938 C   0  0  2  0  0  0
    1.3892   50.7636   23.7745 H   0  0  0  0  0  0
    1.3416   52.1477   22.0791 C   0  0  2  0  0  0
    0.6718   52.9252   21.7077 H   0  0  0  0  0  0
    1.5080   51.2090   20.9505 N   0  0  0  0  0  0
    1.0362   49.9415   20.8437 C   0  0  0  0  0  0
    1.5013   48.9311   19.6241 S   0  0  0  0  0  0
    0.1365   49.5464   21.7767 N   0  0  0  0  0  0
   -0.5124   50.3953   22.7826 C   0  0  1  0  0  0
   -1.1871   49.5094   23.8804 C   0  0  0  0  0  0
   -1.9741   48.5785   23.3334 F   0  0  0  0  0  0
   -0.2742   48.8547   24.5996 F   0  0  0  0  0  0
   -1.9600   50.2023   24.7188 F   0  0  0  0  0  0
   -1.5525   51.1265   22.1465 O   0  0  0  0  0  0
    2.6398   52.8924   22.4488 C   0  0  0  0  0  0
    2.5752   54.0035   23.2820 C   0  0  0  0  0  0
    3.7300   54.5005   23.8680 C   0  0  0  0  0  0
    4.9793   54.0224   23.4912 C   0  0  0  0  0  0
    5.0655   53.0658   22.4809 C   0  0  0  0  0  0
    3.8985   52.4964   21.9695 C   0  0  0  0  0  0
    6.1648   54.4959   24.1963 C   0  0  0  0  0  0
    7.0975   54.8705   24.7716 N   0  0  0  0  0  0
    3.6143   52.6203   31.0897 H   0  0  0  0  0  0
    4.1536   52.7735   29.4228 H   0  0  0  0  0  0
    3.0256   53.9626   30.1106 H   0  0  0  0  0  0
    2.7093   54.0594   27.8343 H   0  0  0  0  0  0
    1.7468   54.1460   25.6449 H   0  0  0  0  0  0
   -0.3859   50.4829   26.4058 H   0  0  0  0  0  0
    0.4507   50.5052   28.6591 H   0  0  0  0  0  0
    2.0502   51.5040   20.1504 H   0  0  0  0  0  0
   -0.2956   48.6616   21.5546 H   0  0  0  0  0  0
   -1.1598   51.6162   21.4209 H   0  0  0  0  0  0
    1.6231   54.4340   23.5485 H   0  0  0  0  0  0
    3.6426   55.2932   24.6004 H   0  0  0  0  0  0
    6.0175   52.6804   22.1575 H   0  0  0  0  0  0
    3.9981   51.6830   21.2653 H   0  0  0  0  0  0
  1  2  1  0  0  0
  1 33  1  0  0  0
  1 34  1  0  0  0
  1 35  1  0  0  0
  2  3  1  0  0  0
  3  8  2  0  0  0
  3  4  1  0  0  0
  4  5  2  0  0  0
  4 36  1  0  0  0
  5  6  1  0  0  0
  5 37  1  0  0  0
  6  7  2  0  0  0
  6  9  1  0  0  0
  7  8  1  0  0  0
  7 38  1  0  0  0
  8 39  1  0  0  0
  9 10  2  0  0  0
  9 11  1  0  0  0
 11 12  1  0  0  0
 11 19  1  0  0  0
 11 13  1  0  0  0
 13 14  1  0  0  0
 13 15  1  0  0  0
 13 25  1  0  0  0
 15 16  1  0  0  0
 15 40  1  0  0  0
 16 17  2  0  0  0
 16 18  1  0  0  0
 18 19  1  0  0  0
 18 41  1  0  0  0
 19 20  1  0  0  0
 19 24  1  0  0  0
 20 21  1  0  0  0
 20 22  1  0  0  0
 20 23  1  0  0  0
 24 42  1  0  0  0
 25 30  2  0  0  0
 25 26  1  0  0  0
 26 27  2  0  0  0
 26 43  1  0  0  0
 27 28  1  0  0  0
 27 44  1  0  0  0
 28 29  2  0  0  0
 28 31  1  0  0  0
 29 30  1  0  0  0
 29 45  1  0  0  0
 30 46  1  0  0  0
 31 32  3  0  0  0
M  END
> <i_i_glide_confnum>
4

> <i_i_glide_lignum>
4438

> <i_i_glide_posenum>
257

> <i_i_glide_rotatable_bonds>
7

> <i_m_Source_File_Index>
2353

> <b_m_subgroup_collapsed>
0

> <r_i_docking_score>
-4.63842

> <r_i_glide_ecoul>
-0.0780968

> <r_i_glide_eff_state_penalty>
0

> <r_i_glide_einternal>
13.6377

> <r_i_glide_emodel>
-39.6374

> <r_i_glide_energy>
-35.1199

> <r_i_glide_erotb>
0.315271

> <r_i_glide_esite>
-0.0985632

> <r_i_glide_evdw>
-35.0418

> <r_i_glide_gscore>
-4.63842

> <r_i_glide_hbond>
-0.231021

> <r_i_glide_ligand_efficiency>
-0.154614

> <r_i_glide_ligand_efficiency_ln>
-1.0539

> <r_i_glide_ligand_efficiency_sa>
-0.480422

> <r_i_glide_lipo>
-1.83628

> <r_i_glide_metal>
0

> <r_i_glide_rewards>
-1.02402

> <s_i_glide_gridfile>
wee1_glide-grid

> <s_m_Source_File>
wee1_decoys_glide_SP.sdf

> <s_m_Source_Path>
/Users/zhangxujun/Desktop

> <s_m_entry_id>
2628

> <s_m_entry_name>
wee1_decoys_glide_SP.2353

> <s_m_subgroup_title>
wee1_decoys_glide_SP

> <s_m_subgroupid>
wee1_decoys_glide_SP


$$$$
