ZINC03096834_2301
                    3D
 Schrodinger Suite 2024-2.
 39 40  0  0  1  0            999 V2000
    2.5646   54.2661   29.4548 C   0  0  0  0  0  0
    3.4307   54.2457   28.2094 C   0  0  0  0  0  0
    4.8155   54.3714   28.3209 C   0  0  0  0  0  0
    5.6206   54.3413   27.1831 C   0  0  0  0  0  0
    5.0467   54.1969   25.9115 C   0  0  0  0  0  0
    3.6507   54.0922   25.7997 C   0  0  0  0  0  0
    2.8547   54.0972   26.9464 C   0  0  0  0  0  0
    2.7877   53.9211   24.1053 Br  0  0  0  0  0  0
    5.8593   54.0986   24.7713 N   0  0  0  0  0  0
    6.4270   55.2536   24.1126 C   0  0  0  0  0  0
    6.3193   55.2183   22.5678 C   0  0  0  0  0  0
    6.9877   56.0229   21.9138 O   0  0  0  0  0  0
    5.4632   54.3069   22.0267 N   0  0  0  0  0  0
    5.1056   54.0345   20.7239 N   0  0  0  0  0  0
    5.2023   54.9073   19.7920 C   0  0  0  0  0  0
    4.8613   54.6345   18.3908 C   0  0  0  0  0  0
    4.8016   55.6932   17.4797 C   0  0  0  0  0  0
    4.4761   55.4629   16.1454 C   0  0  0  0  0  0
    4.2051   54.1651   15.6892 C   0  0  0  0  0  0
    4.2664   53.1039   16.6012 C   0  0  0  0  0  0
    4.5891   53.3392   17.9339 C   0  0  0  0  0  0
    3.8647   53.9195   14.2661 N   0  3  0  0  0  0
    3.6173   52.7703   13.9088 O   0  0  0  0  0  0
    3.8439   54.8770   13.4955 O   0  5  0  0  0  0
    7.5026   54.4967   27.4118 Br  0  0  0  0  0  0
    1.5203   54.0375   29.2351 H   0  0  0  0  0  0
    2.6160   55.2439   29.9362 H   0  0  0  0  0  0
    2.9234   53.5221   30.1671 H   0  0  0  0  0  0
    5.2770   54.4912   29.2900 H   0  0  0  0  0  0
    1.7833   53.9999   26.8470 H   0  0  0  0  0  0
    6.3346   53.2149   24.6509 H   0  0  0  0  0  0
    5.9592   56.1818   24.4444 H   0  0  0  0  0  0
    7.4776   55.3879   24.3711 H   0  0  0  0  0  0
    5.1062   53.6180   22.6731 H   0  0  0  0  0  0
    5.5243   55.9279   19.9775 H   0  0  0  0  0  0
    5.0031   56.7073   17.7960 H   0  0  0  0  0  0
    4.4374   56.3033   15.4675 H   0  0  0  0  0  0
    4.0715   52.0846   16.2913 H   0  0  0  0  0  0
    4.6360   52.4966   18.6077 H   0  0  0  0  0  0
  1  2  1  0  0  0
  1 26  1  0  0  0
  1 27  1  0  0  0
  1 28  1  0  0  0
  2  7  2  0  0  0
  2  3  1  0  0  0
  3  4  2  0  0  0
  3 29  1  0  0  0
  4  5  1  0  0  0
  4 25  1  0  0  0
  5  6  2  0  0  0
  5  9  1  0  0  0
  6  7  1  0  0  0
  6  8  1  0  0  0
  7 30  1  0  0  0
  9 10  1  0  0  0
  9 31  1  0  0  0
 10 11  1  0  0  0
 10 32  1  0  0  0
 10 33  1  0  0  0
 11 12  2  0  0  0
 11 13  1  0  0  0
 13 14  1  0  0  0
 13 34  1  0  0  0
 14 15  2  0  0  0
 15 16  1  0  0  0
 15 35  1  0  0  0
 16 21  2  0  0  0
 16 17  1  0  0  0
 17 18  2  0  0  0
 17 36  1  0  0  0
 18 19  1  0  0  0
 18 37  1  0  0  0
 19 20  2  0  0  0
 19 22  1  0  0  0
 20 21  1  0  0  0
 20 38  1  0  0  0
 21 39  1  0  0  0
 22 23  2  0  0  0
 22 24  1  0  0  0
M  CHG  2  22   1  24  -1
M  END
> <i_i_glide_confnum>
18

> <i_i_glide_lignum>
2302

> <i_i_glide_posenum>
276

> <i_i_glide_rotatable_bonds>
7

> <i_m_Source_File_Index>
2335

> <b_m_subgroup_collapsed>
0

> <r_i_docking_score>
-4.1063

> <r_i_glide_ecoul>
-1.04781

> <r_i_glide_eff_state_penalty>
0

> <r_i_glide_einternal>
7.91409

> <r_i_glide_emodel>
-40.8323

> <r_i_glide_energy>
-34.1348

> <r_i_glide_erotb>
0.548467

> <r_i_glide_esite>
-0.00218762

> <r_i_glide_evdw>
-33.0869

> <r_i_glide_gscore>
-4.1063

> <r_i_glide_hbond>
0

> <r_i_glide_ligand_efficiency>
-0.164252

> <r_i_glide_ligand_efficiency_ln>
-0.973315

> <r_i_glide_ligand_efficiency_sa>
-0.480275

> <r_i_glide_lipo>
-2.21568

> <r_i_glide_metal>
0

> <r_i_glide_rewards>
-0.625381

> <s_i_glide_gridfile>
wee1_glide-grid

> <s_m_Source_File>
wee1_decoys_glide_SP.sdf

> <s_m_Source_Path>
/Users/zhangxujun/Desktop

> <s_m_entry_id>
2610

> <s_m_entry_name>
wee1_decoys_glide_SP.2335

> <s_m_subgroup_title>
wee1_decoys_glide_SP

> <s_m_subgroupid>
wee1_decoys_glide_SP


$$$$
