@<TRIPOS>MOLECULE
ZINC12515016_4824
61   64    1
SMALL
USER_CHARGES


@<TRIPOS>ATOM
      1 C1          1.3215   50.1447   15.5818 C.3       1 UNK         0.0000 
      2 C2          0.9815   48.9018   16.4397 C.3       1 UNK         0.0000 
      3 H3         -0.0178   48.5453   16.1877 H         1 UNK         0.0000 
      4 C4          1.1015   49.1975   17.9487 C.ar      1 UNK         0.0000 
      5 N5          1.9360   48.6037   18.7723 N.2       1 UNK         0.0000 
      6 N6          1.7413   49.1311   20.0386 N.2       1 UNK         0.0000 
      7 C7          0.8157   50.0488   19.9389 C.ar      1 UNK         0.0000 
      8 N8          0.3491   50.1332   18.6417 N.pl3     1 UNK         0.0000 
      9 C9         -0.6727   50.9765   18.1687 C.ar      1 UNK         0.0000 
     10 C10        -0.3728   52.2878   17.7880 C.ar      1 UNK         0.0000 
     11 C11        -1.3940   53.1254   17.3505 C.ar      1 UNK         0.0000 
     12 C12        -2.7031   52.6521   17.2992 C.ar      1 UNK         0.0000 
     13 C13        -3.0027   51.3458   17.6800 C.ar      1 UNK         0.0000 
     14 C14        -1.9850   50.5007   18.1173 C.ar      1 UNK         0.0000 
     15 F15        -3.6936   53.4702   16.8800 F         1 UNK         0.0000 
     16 S16         0.2596   51.0131   21.3079 S.3       1 UNK         0.0000 
     17 C17         1.2981   52.4836   21.0053 C.3       1 UNK         0.0000 
     18 C18         2.7867   52.3460   21.3421 C.2       1 UNK         0.0000 
     19 O19         3.2757   51.2707   21.6818 O.2       1 UNK         0.0000 
     20 N20         3.5045   53.4760   21.2405 N.am      1 UNK         0.0000 
     21 C21         4.9174   53.6223   21.6055 C.3       1 UNK         0.0000 
     22 H22         5.3894   52.6384   21.5349 H         1 UNK         0.0000 
     23 C23         5.1505   54.0146   23.0807 C.ar      1 UNK         0.0000 
     24 C24         4.0866   54.1921   23.9812 C.ar      1 UNK         0.0000 
     25 C25         4.3318   54.4972   25.3169 C.ar      1 UNK         0.0000 
     26 C26         5.6414   54.6291   25.7654 C.ar      1 UNK         0.0000 
     27 C27         6.7048   54.4479   24.8871 C.ar      1 UNK         0.0000 
     28 C28         6.4619   54.1304   23.5555 C.ar      1 UNK         0.0000 
     29 C29         5.5908   54.4989   20.5530 C.2       1 UNK         0.0000 
     30 C30         5.7776   54.1950   19.1987 C.2       1 UNK         0.0000 
     31 C31         6.4267   55.1841   18.4574 C.2       1 UNK         0.0000 
     32 C32         6.7801   56.2752   19.2296 C.2       1 UNK         0.0000 
     33 S33         6.3067   56.0639   20.8796 S.3       1 UNK         0.0000 
     34 C34         1.4096   46.3408   16.6064 C.3       1 UNK         0.0000 
     35 C35         2.2390   47.5481   14.5517 C.3       1 UNK         0.0000 
     36 H36         0.6615   50.9799   15.7939 H         1 UNK         0.0000 
     37 H37         2.3433   50.4875   15.7594 H         1 UNK         0.0000 
     38 H38         1.2043   49.9635   14.5140 H         1 UNK         0.0000 
     39 H39         0.6430   52.6562   17.8128 H         1 UNK         0.0000 
     40 H40        -1.1720   54.1377   17.0448 H         1 UNK         0.0000 
     41 H41        -4.0223   50.9928   17.6353 H         1 UNK         0.0000 
     42 H42        -2.2189   49.4895   18.4199 H         1 UNK         0.0000 
     43 H43         0.8981   53.2938   21.6153 H         1 UNK         0.0000 
     44 H44         1.2036   52.8042   19.9719 H         1 UNK         0.0000 
     45 H45         3.0215   54.3220   20.9670 H         1 UNK         0.0000 
     46 H46         3.0601   54.0956   23.6631 H         1 UNK         0.0000 
     47 H47         3.5075   54.6305   26.0018 H         1 UNK         0.0000 
     48 H48         5.8316   54.8635   26.8032 H         1 UNK         0.0000 
     49 H49         7.7203   54.5364   25.2338 H         1 UNK         0.0000 
     50 H50         7.3020   53.9849   22.8914 H         1 UNK         0.0000 
     51 H51         5.4335   53.2677   18.7557 H         1 UNK         0.0000 
     52 H52         6.6317   55.1020   17.3989 H         1 UNK         0.0000 
     53 H53         7.2885   57.1725   18.9067 H         1 UNK         0.0000 
     54 H54         0.4984   46.0759   16.0665 H         1 UNK         0.0000 
     55 H55         2.2013   45.6108   16.4337 H         1 UNK         0.0000 
     56 H56         1.2142   46.4292   17.6738 H         1 UNK         0.0000 
     57 H57         1.3020   47.4851   13.9958 H         1 UNK         0.0000 
     58 H58         2.8351   48.4152   14.2603 H         1 UNK         0.0000 
     59 H59         2.8405   46.6462   14.4339 H         1 UNK         0.0000 
     60 N60         1.9044   47.7003   16.0536 N.4       1 UNK         0.0000 
     61 H61         2.8005   47.9440   16.4859 H         1 UNK         0.0000 
@<TRIPOS>BOND
     1    1    2 1    
     2    1   36 1    
     3    1   37 1    
     4    1   38 1    
     5    2    3 1    
     6    2    4 1    
     7    2   60 1    
     8    4    8 ar   
     9    4    5 ar   
    10    5    6 ar   
    11    6    7 ar   
    12    7    8 ar   
    13    7   16 1    
    14    8    9 1    
    15    9   14 ar   
    16    9   10 ar   
    17   10   11 ar   
    18   10   39 1    
    19   11   12 ar   
    20   11   40 1    
    21   12   13 ar   
    22   12   15 1    
    23   13   14 ar   
    24   13   41 1    
    25   14   42 1    
    26   16   17 1    
    27   17   18 1    
    28   17   43 1    
    29   17   44 1    
    30   18   19 2    
    31   18   20 am   BACKBONE|DICT|INTERRES
    32   20   21 1    
    33   20   45 1    
    34   21   22 1    
    35   21   23 1    
    36   21   29 1    
    37   23   28 ar   
    38   23   24 ar   
    39   24   25 ar   
    40   24   46 1    
    41   25   26 ar   
    42   25   47 1    
    43   26   27 ar   
    44   26   48 1    
    45   27   28 ar   
    46   27   49 1    
    47   28   50 1    
    48   29   33 1    
    49   29   30 2    
    50   30   31 1    
    51   30   51 1    
    52   31   32 2    
    53   31   52 1    
    54   32   33 1    
    55   32   53 1    
    56   34   54 1    
    57   34   55 1    
    58   34   56 1    
    59   34   60 1    
    60   35   57 1    
    61   35   58 1    
    62   35   59 1    
    63   35   60 1    
    64   60   61 1    
@<TRIPOS>SUBSTRUCTURE
     1 UNK         1 GROUP             0       ****    0 ROOT    
