ZINC66967348_1562
                    3D
 Schrodinger Suite 2024-2.
 56 58  0  0  1  0            999 V2000
    1.2171   54.0540   23.1693 C   0  0  0  0  0  0
    2.6103   54.0838   23.7712 C   0  0  0  0  0  0
    2.7380   54.0966   25.1561 C   0  0  0  0  0  0
    3.9903   54.0611   25.7851 C   0  0  0  0  0  0
    5.1352   54.0992   24.9762 C   0  0  0  0  0  0
    5.0242   54.0937   23.5848 C   0  0  0  0  0  0
    3.7610   54.0694   22.9754 C   0  0  0  0  0  0
    3.6165   54.0967   21.5826 N   0  0  0  0  0  0
    4.3313   53.3913   20.6957 C   0  0  0  0  0  0
    5.1047   52.4805   20.9876 O   0  0  0  0  0  0
    4.1282   53.8482   19.4510 N   0  0  0  0  0  0
    4.9957   53.5913   18.2945 C   0  0  1  0  0  0
    5.0457   52.5062   18.2042 H   0  0  0  0  0  0
    4.3291   54.1191   17.0140 C   0  0  0  0  0  0
    6.4091   54.1613   18.4515 C   0  0  0  0  0  0
    6.7483   55.1755   19.2204 N   0  0  0  0  0  0
    8.1136   55.3922   19.0616 N   0  0  0  0  0  0
    8.5326   54.5062   18.1944 C   0  0  0  0  0  0
    7.5107   53.6957   17.7638 N   0  0  0  0  0  0
    7.5991   52.5731   16.8429 C   0  0  0  0  0  0
    4.1248   54.0273   27.2962 C   0  0  0  0  0  0
    5.1154   54.5643   27.7985 O   0  0  0  0  0  0
    3.1409   53.4668   28.0644 N   0  0  0  0  0  0
    2.2339   52.3873   27.5977 C   0  0  0  0  0  0
    0.7800   52.8047   27.9064 C   0  0  0  0  0  0
    0.5846   53.1153   29.3901 C   0  0  0  0  0  0
    1.6358   54.1420   29.8395 C   0  0  0  0  0  0
    3.1053   53.7530   29.5181 C   0  0  1  0  0  0
    3.6992   54.6471   29.7257 H   0  0  0  0  0  0
    3.6798   52.6189   30.3936 C   0  0  0  0  0  0
    1.0816   53.1463   22.5782 H   0  0  0  0  0  0
    0.4278   54.0978   23.9207 H   0  0  0  0  0  0
    1.1046   54.8994   22.4971 H   0  0  0  0  0  0
    1.8361   54.1246   25.7379 H   0  0  0  0  0  0
    6.1196   54.1048   25.4220 H   0  0  0  0  0  0
    5.9239   54.1066   22.9843 H   0  0  0  0  0  0
    2.8116   54.5932   21.2242 H   0  0  0  0  0  0
    3.2138   54.2185   19.2461 H   0  0  0  0  0  0
    4.8934   53.8302   16.1269 H   0  0  0  0  0  0
    3.3203   53.7212   16.8962 H   0  0  0  0  0  0
    4.2593   55.2090   17.0206 H   0  0  0  0  0  0
    9.5446   54.3656   17.8424 H   0  0  0  0  0  0
    8.6460   52.3298   16.6544 H   0  0  0  0  0  0
    7.1050   51.6983   17.2729 H   0  0  0  0  0  0
    7.1294   52.8419   15.8958 H   0  0  0  0  0  0
    2.4725   51.4897   28.1704 H   0  0  0  0  0  0
    2.3595   52.1042   26.5561 H   0  0  0  0  0  0
    0.0980   52.0092   27.6028 H   0  0  0  0  0  0
    0.5006   53.6826   27.3262 H   0  0  0  0  0  0
    0.6773   52.2020   29.9794 H   0  0  0  0  0  0
   -0.4223   53.4961   29.5677 H   0  0  0  0  0  0
    1.5063   54.3835   30.8831 H   0  0  0  0  0  0
    1.4184   55.0850   29.3305 H   0  0  0  0  0  0
    3.7073   52.8964   31.4490 H   0  0  0  0  0  0
    4.7006   52.3657   30.0928 H   0  0  0  0  0  0
    3.0741   51.7137   30.3352 H   0  0  0  0  0  0
  1  2  1  0  0  0
  1 31  1  0  0  0
  1 32  1  0  0  0
  1 33  1  0  0  0
  2  7  2  0  0  0
  2  3  1  0  0  0
  3  4  2  0  0  0
  3 34  1  0  0  0
  4  5  1  0  0  0
  4 21  1  0  0  0
  5  6  2  0  0  0
  5 35  1  0  0  0
  6  7  1  0  0  0
  6 36  1  0  0  0
  7  8  1  0  0  0
  8  9  1  0  0  0
  8 37  1  0  0  0
  9 10  2  0  0  0
  9 11  1  0  0  0
 11 12  1  0  0  0
 11 38  1  0  0  0
 12 13  1  0  0  0
 12 14  1  0  0  0
 12 15  1  0  0  0
 14 39  1  0  0  0
 14 40  1  0  0  0
 14 41  1  0  0  0
 15 19  1  0  0  0
 15 16  2  0  0  0
 16 17  1  0  0  0
 17 18  2  0  0  0
 18 19  1  0  0  0
 18 42  1  0  0  0
 19 20  1  0  0  0
 20 43  1  0  0  0
 20 44  1  0  0  0
 20 45  1  0  0  0
 21 22  2  0  0  0
 21 23  1  0  0  0
 23 28  1  0  0  0
 23 24  1  0  0  0
 24 25  1  0  0  0
 24 46  1  0  0  0
 24 47  1  0  0  0
 25 26  1  0  0  0
 25 48  1  0  0  0
 25 49  1  0  0  0
 26 27  1  0  0  0
 26 50  1  0  0  0
 26 51  1  0  0  0
 27 28  1  0  0  0
 27 52  1  0  0  0
 27 53  1  0  0  0
 28 29  1  0  0  0
 28 30  1  0  0  0
 30 54  1  0  0  0
 30 55  1  0  0  0
 30 56  1  0  0  0
M  END
> <i_i_glide_confnum>
137

> <i_i_glide_lignum>
1563

> <i_i_glide_posenum>
318

> <i_i_glide_rotatable_bonds>
7

> <i_m_Source_File_Index>
1507

> <b_m_subgroup_collapsed>
0

> <r_i_docking_score>
-6.09687

> <r_i_glide_ecoul>
-4.835

> <r_i_glide_eff_state_penalty>
0

> <r_i_glide_einternal>
6.68121

> <r_i_glide_emodel>
-56.9256

> <r_i_glide_energy>
-43.9659

> <r_i_glide_erotb>
0.920712

> <r_i_glide_esite>
-0.0259978

> <r_i_glide_evdw>
-39.1309

> <r_i_glide_gscore>
-6.09687

> <r_i_glide_hbond>
-0.458723

> <r_i_glide_ligand_efficiency>
-0.217746

> <r_i_glide_ligand_efficiency_ln>
-1.40734

> <r_i_glide_ligand_efficiency_sa>
-0.661204

> <r_i_glide_lipo>
-2.27879

> <r_i_glide_metal>
0

> <r_i_glide_rewards>
-1.57228

> <s_i_glide_gridfile>
wee1_glide-grid

> <s_m_Source_File>
wee1_decoys_glide_SP.sdf

> <s_m_Source_Path>
/Users/zhangxujun/Desktop

> <s_m_entry_id>
1782

> <s_m_entry_name>
wee1_decoys_glide_SP.1507

> <s_m_subgroup_title>
wee1_decoys_glide_SP

> <s_m_subgroupid>
wee1_decoys_glide_SP


$$$$
