@<TRIPOS>MOLECULE
ZINC32962016_5898
59   62    1
SMALL
USER_CHARGES


@<TRIPOS>ATOM
      1 C1         -0.4517   51.9222   23.1458 C.3       1 UNK         0.0000 
      2 C2          0.6904   51.5606   22.2107 C.ar      1 UNK         0.0000 
      3 C3          0.5001   50.4989   21.3186 C.ar      1 UNK         0.0000 
      4 C4          1.5111   50.1189   20.4380 C.ar      1 UNK         0.0000 
      5 C5          2.7258   50.7976   20.4422 C.ar      1 UNK         0.0000 
      6 C6          2.9327   51.8488   21.3332 C.ar      1 UNK         0.0000 
      7 C7          1.9245   52.2419   22.2259 C.ar      1 UNK         0.0000 
      8 S8          2.2738   53.6210   23.3403 S.o2      1 UNK         0.0000 
      9 O9          3.5837   54.1521   22.9567 O.2       1 UNK         0.0000 
     10 O10         1.1044   54.4967   23.3511 O.2       1 UNK         0.0000 
     11 N11         2.3588   52.9138   24.9762 N.pl3     1 UNK         0.0000 
     12 C12         3.1284   53.4309   26.0428 C.ar      1 UNK         0.0000 
     13 C13         4.3833   54.0032   25.8188 C.ar      1 UNK         0.0000 
     14 C14         5.2087   54.3890   26.8739 C.ar      1 UNK         0.0000 
     15 C15         4.7629   54.2402   28.1895 C.ar      1 UNK         0.0000 
     16 C16         3.5124   53.6828   28.4364 C.ar      1 UNK         0.0000 
     17 C17         2.7020   53.2581   27.3794 C.ar      1 UNK         0.0000 
     18 N18         1.5106   52.6313   27.6819 N.pl3     1 UNK         0.0000 
     19 C19         0.2570   53.3381   27.9128 C.3       1 UNK         0.0000 
     20 C20        -0.8747   52.7447   27.0485 C.3       1 UNK         0.0000 
     21 N21        -1.0425   51.3146   27.3083 N.3       1 UNK         0.0000 
     22 C22         0.2148   50.6140   27.0278 C.3       1 UNK         0.0000 
     23 C23         1.3650   51.1896   27.8887 C.3       1 UNK         0.0000 
     24 C24        -2.1263   50.7427   26.5043 C.3       1 UNK         0.0000 
     25 C25        -3.5004   51.1013   27.0523 C.ar      1 UNK         0.0000 
     26 C26        -3.9504   50.5012   28.2330 C.ar      1 UNK         0.0000 
     27 C27        -5.2168   50.8015   28.7366 C.ar      1 UNK         0.0000 
     28 C28        -6.0428   51.6960   28.0566 C.ar      1 UNK         0.0000 
     29 C29        -5.5995   52.2965   26.8783 C.ar      1 UNK         0.0000 
     30 C30        -4.3301   52.0048   26.3767 C.ar      1 UNK         0.0000 
     31 F31        -3.9161   52.5993   25.2331 F         1 UNK         0.0000 
     32 C32         6.5705   54.8968   26.5797 C.2       1 UNK         0.0000 
     33 O33         6.7054   55.6969   25.6296 O.co2     1 UNK         0.0000 
     34 O34         7.5040   54.4718   27.2841 O.co2     1 UNK         0.0000 
     35 H35        -0.8810   52.8871   22.8781 H         1 UNK         0.0000 
     36 H36        -1.2442   51.1726   23.1428 H         1 UNK         0.0000 
     37 H37        -0.0848   51.9879   24.1645 H         1 UNK         0.0000 
     38 H38        -0.4388   49.9640   21.3015 H         1 UNK         0.0000 
     39 H39         1.3531   49.3049   19.7467 H         1 UNK         0.0000 
     40 H40         3.5038   50.5119   19.7467 H         1 UNK         0.0000 
     41 H41         3.8840   52.3608   21.3145 H         1 UNK         0.0000 
     42 H42         1.4334   52.7083   25.3181 H         1 UNK         0.0000 
     43 H43         4.7969   54.0830   24.8288 H         1 UNK         0.0000 
     44 H44         5.3954   54.5312   29.0179 H         1 UNK         0.0000 
     45 H45         3.1853   53.5471   29.4572 H         1 UNK         0.0000 
     46 H46         0.0097   53.2851   28.9741 H         1 UNK         0.0000 
     47 H47         0.3986   54.3959   27.6974 H         1 UNK         0.0000 
     48 H48        -1.7829   53.2896   27.2731 H         1 UNK         0.0000 
     49 H49        -0.6434   52.8967   25.9958 H         1 UNK         0.0000 
     50 H50         0.4810   50.7083   25.9738 H         1 UNK         0.0000 
     51 H51         0.0999   49.5555   27.2489 H         1 UNK         0.0000 
     52 H52         2.3019   50.6778   27.6819 H         1 UNK         0.0000 
     53 H53         1.1763   51.0126   28.9482 H         1 UNK         0.0000 
     54 H54        -2.0401   51.0209   25.4529 H         1 UNK         0.0000 
     55 H55        -2.0589   49.6530   26.5170 H         1 UNK         0.0000 
     56 H56        -3.3091   49.8041   28.7594 H         1 UNK         0.0000 
     57 H57        -5.5557   50.3324   29.6485 H         1 UNK         0.0000 
     58 H58        -7.0273   51.9197   28.4402 H         1 UNK         0.0000 
     59 H59        -6.2381   52.9869   26.3501 H         1 UNK         0.0000 
@<TRIPOS>BOND
     1    1    2 1    
     2    1   35 1    
     3    1   36 1    
     4    1   37 1    
     5    2    7 ar   
     6    2    3 ar   
     7    3    4 ar   
     8    3   38 1    
     9    4    5 ar   
    10    4   39 1    
    11    5    6 ar   
    12    5   40 1    
    13    6    7 ar   
    14    6   41 1    
    15    7    8 1    
    16    8    9 2    
    17    8   10 2    
    18    8   11 1    
    19   11   12 1    
    20   11   42 1    
    21   12   17 ar   
    22   12   13 ar   
    23   13   14 ar   
    24   13   43 1    
    25   14   15 ar   
    26   14   32 1    
    27   15   16 ar   
    28   15   44 1    
    29   16   17 ar   
    30   16   45 1    
    31   17   18 1    
    32   18   23 1    
    33   18   19 1    
    34   19   20 1    
    35   19   46 1    
    36   19   47 1    
    37   20   21 1    
    38   20   48 1    
    39   20   49 1    
    40   21   22 1    
    41   21   24 1    
    42   22   23 1    
    43   22   50 1    
    44   22   51 1    
    45   23   52 1    
    46   23   53 1    
    47   24   25 1    
    48   24   54 1    
    49   24   55 1    
    50   25   30 ar   
    51   25   26 ar   
    52   26   27 ar   
    53   26   56 1    
    54   27   28 ar   
    55   27   57 1    
    56   28   29 ar   
    57   28   58 1    
    58   29   30 ar   
    59   29   59 1    
    60   30   31 1    
    61   32   33 2    
    62   32   34 1    
@<TRIPOS>SUBSTRUCTURE
     1 UNK         1 GROUP             0       ****    0 ROOT    
