@<TRIPOS>MOLECULE
ZINC20368448_5069
59   63    1
SMALL
USER_CHARGES


@<TRIPOS>ATOM
      1 C1          6.4029   55.0972   26.3927 C.3       1 UNK         0.0000 
      2 C2          5.0561   54.4552   26.6637 C.ar      1 UNK         0.0000 
      3 C3          4.8882   53.6636   27.8001 C.ar      1 UNK         0.0000 
      4 C4          3.6674   53.0313   28.0306 C.ar      1 UNK         0.0000 
      5 C5          2.5995   53.1748   27.1285 C.ar      1 UNK         0.0000 
      6 C6          2.7732   54.0145   26.0267 C.ar      1 UNK         0.0000 
      7 C7          3.9923   54.6410   25.7822 C.ar      1 UNK         0.0000 
      8 C8          1.2975   52.4378   27.3365 C.ar      1 UNK         0.0000 
      9 C9          0.2095   52.1860   26.4368 C.ar      1 UNK         0.0000 
     10 C10        -0.6551   51.4399   27.2151 C.ar      1 UNK         0.0000 
     11 N11        -0.1189   51.2969   28.4482 N.pl3     1 UNK         0.0000 
     12 H12        -0.5349   50.7701   29.2044 H         1 UNK         0.0000 
     13 N13         1.0711   51.8858   28.5241 N.2       1 UNK         0.0000 
     14 O14        -1.8680   50.8994   26.8879 O.3       1 UNK         0.0000 
     15 C15        -2.2344   51.1148   25.5985 C.2       1 UNK         0.0000 
     16 C16        -1.5342   51.8085   24.6669 C.2       1 UNK         0.0000 
     17 C17        -0.1838   52.4881   24.9704 C.3       1 UNK         0.0000 
     18 H18        -0.3995   53.5493   24.8803 H         1 UNK         0.0000 
     19 C19         0.8612   52.2243   23.8869 C.ar      1 UNK         0.0000 
     20 C20         1.3116   53.2898   23.1053 C.ar      1 UNK         0.0000 
     21 C21         2.2328   53.0834   22.0918 C.ar      1 UNK         0.0000 
     22 C22         2.7037   51.7969   21.8007 C.ar      1 UNK         0.0000 
     23 C23         2.2224   50.7159   22.5540 C.ar      1 UNK         0.0000 
     24 C24         1.3229   50.9329   23.6049 C.ar      1 UNK         0.0000 
     25 O25         2.6792   49.4417   22.3246 O.3       1 UNK         0.0000 
     26 C26         2.1991   48.8381   21.1305 C.3       1 UNK         0.0000 
     27 O27         3.6627   51.5336   20.8382 O.3       1 UNK         0.0000 
     28 C28         4.2150   52.5897   20.0447 C.3       1 UNK         0.0000 
     29 C29         5.0926   53.5552   20.8463 C.ar      1 UNK         0.0000 
     30 C30         5.5042   53.2386   22.1449 C.ar      1 UNK         0.0000 
     31 C31         6.3040   54.1090   22.8808 C.ar      1 UNK         0.0000 
     32 C32         6.7282   55.3047   22.3028 C.ar      1 UNK         0.0000 
     33 C33         6.3222   55.6360   21.0080 C.ar      1 UNK         0.0000 
     34 C34         5.5051   54.7675   20.2833 C.ar      1 UNK         0.0000 
     35 F35         5.1198   55.1058   19.0318 F         1 UNK         0.0000 
     36 C36        -2.0625   51.9507   23.3493 C.1       1 UNK         0.0000 
     37 N37        -2.4767   52.0879   22.2787 N.1       1 UNK         0.0000 
     38 N38        -3.4284   50.4754   25.4116 N.pl3     1 UNK         0.0000 
     39 H39         7.1553   54.3159   26.2821 H         1 UNK         0.0000 
     40 H40         6.7053   55.7139   27.2421 H         1 UNK         0.0000 
     41 H41         6.3995   55.7057   25.4865 H         1 UNK         0.0000 
     42 H42         5.7062   53.5171   28.4915 H         1 UNK         0.0000 
     43 H43         3.5742   52.3984   28.8993 H         1 UNK         0.0000 
     44 H44         1.9546   54.1985   25.3571 H         1 UNK         0.0000 
     45 H45         4.1038   55.2722   24.9124 H         1 UNK         0.0000 
     46 H46         0.9642   54.2961   23.2870 H         1 UNK         0.0000 
     47 H47         2.5816   53.9448   21.5472 H         1 UNK         0.0000 
     48 H48         0.9759   50.0939   24.1900 H         1 UNK         0.0000 
     49 H49         2.6922   47.8751   20.9965 H         1 UNK         0.0000 
     50 H50         1.1242   48.6659   21.1852 H         1 UNK         0.0000 
     51 H51         2.4076   49.4328   20.2385 H         1 UNK         0.0000 
     52 H52         4.8314   52.1156   19.2831 H         1 UNK         0.0000 
     53 H53         3.4203   53.1260   19.5219 H         1 UNK         0.0000 
     54 H54         5.2385   52.2846   22.5583 H         1 UNK         0.0000 
     55 H55         6.6249   53.8366   23.8752 H         1 UNK         0.0000 
     56 H56         7.3741   55.9699   22.8573 H         1 UNK         0.0000 
     57 H57         6.6418   56.5616   20.5560 H         1 UNK         0.0000 
     58 H58        -3.9099   50.5288   24.5262 H         1 UNK         0.0000 
     59 H59        -3.6872   49.7283   26.0393 H         1 UNK         0.0000 
@<TRIPOS>BOND
     1    1    2 1    
     2    1   39 1    
     3    1   40 1    
     4    1   41 1    
     5    2    7 ar   
     6    2    3 ar   
     7    3    4 ar   
     8    3   42 1    
     9    4    5 ar   
    10    4   43 1    
    11    5    6 ar   
    12    5    8 1    
    13    6    7 ar   
    14    6   44 1    
    15    7   45 1    
    16    8   13 ar   
    17    8    9 ar   
    18    9   17 1    
    19    9   10 ar   
    20   10   11 ar   
    21   10   14 1    
    22   11   12 1    
    23   11   13 ar   
    24   14   15 1    
    25   15   16 2    
    26   15   38 1    
    27   16   17 1    
    28   16   36 1    
    29   17   18 1    
    30   17   19 1    
    31   19   24 ar   
    32   19   20 ar   
    33   20   21 ar   
    34   20   46 1    
    35   21   22 ar   
    36   21   47 1    
    37   22   23 ar   
    38   22   27 1    
    39   23   24 ar   
    40   23   25 1    
    41   24   48 1    
    42   25   26 1    
    43   26   49 1    
    44   26   50 1    
    45   26   51 1    
    46   27   28 1    
    47   28   29 1    
    48   28   52 1    
    49   28   53 1    
    50   29   34 ar   
    51   29   30 ar   
    52   30   31 ar   
    53   30   54 1    
    54   31   32 ar   
    55   31   55 1    
    56   32   33 ar   
    57   32   56 1    
    58   33   34 ar   
    59   33   57 1    
    60   34   35 1    
    61   36   37 3    
    62   38   58 1    
    63   38   59 1    
@<TRIPOS>SUBSTRUCTURE
     1 UNK         1 GROUP             0       ****    0 ROOT    
