@<TRIPOS>MOLECULE
ZINC39517953_2320
47   50    1
SMALL
USER_CHARGES


@<TRIPOS>ATOM
      1 C1          9.1047   54.9726   18.8295 C.3       1 UNK         0.0000 
      2 C2          8.5683   56.3081   18.2548 C.3       1 UNK         0.0000 
      3 H3          8.9280   57.1038   18.9110 H         1 UNK         0.0000 
      4 C4          9.2145   56.5767   16.8684 C.3       1 UNK         0.0000 
      5 C5          8.8433   57.9566   16.2822 C.3       1 UNK         0.0000 
      6 C6          7.3181   58.1607   16.2202 C.3       1 UNK         0.0000 
      7 C7          6.6800   57.9021   17.5969 C.3       1 UNK         0.0000 
      8 C8          7.0105   56.4763   18.1382 C.3       1 UNK         0.0000 
      9 C9          6.3779   56.3192   19.5140 C.2       1 UNK         0.0000 
     10 O10         6.5507   57.0919   20.4630 O.2       1 UNK         0.0000 
     11 N11         5.7045   55.1360   19.4716 N.am      1 UNK         0.0000 
     12 C12         5.5862   54.6405   18.2107 C.2       1 UNK         0.0000 
     13 O13         4.7813   53.8105   17.8017 O.2       1 UNK         0.0000 
     14 N14         6.3625   55.4055   17.4376 N.am      1 UNK         0.0000 
     15 C15         4.9207   54.4916   20.5634 C.3       1 UNK         0.0000 
     16 C16         5.5389   54.5227   21.9774 C.2       1 UNK         0.0000 
     17 O17         6.7065   54.8749   22.1623 O.2       1 UNK         0.0000 
     18 N18         4.6726   54.1901   22.9533 N.am      1 UNK         0.0000 
     19 C19         4.8814   54.2341   24.3253 C.2       1 UNK         0.0000 
     20 N20         3.8790   54.0709   25.1460 N.2       1 UNK         0.0000 
     21 C21         4.2225   54.0987   26.4241 C.2       1 UNK         0.0000 
     22 C22         5.5895   54.3218   26.6349 C.2       1 UNK         0.0000 
     23 S23         6.4147   54.4967   25.1167 S.3       1 UNK         0.0000 
     24 C24         3.1911   53.8700   27.4520 C.2       1 UNK         0.0000 
     25 C25         1.9403   53.2838   27.1607 C.2       1 UNK         0.0000 
     26 C26         1.1038   53.1598   28.2574 C.2       1 UNK         0.0000 
     27 S27         1.8325   53.7859   29.6864 S.3       1 UNK         0.0000 
     28 C28         3.2798   54.1853   28.8135 C.2       1 UNK         0.0000 
     29 Cl29        4.5845   54.8964   29.6813 Cl        1 UNK         0.0000 
     30 Cl30       -0.4767   52.4929   28.3047 Cl        1 UNK         0.0000 
     31 H31         8.6924   54.1120   18.3024 H         1 UNK         0.0000 
     32 H32        10.1884   54.9017   18.7570 H         1 UNK         0.0000 
     33 H33         8.8514   54.8737   19.8838 H         1 UNK         0.0000 
     34 H34         8.9510   55.7802   16.1709 H         1 UNK         0.0000 
     35 H35        10.3004   56.5160   16.9522 H         1 UNK         0.0000 
     36 H36         9.2787   58.0693   15.2869 H         1 UNK         0.0000 
     37 H37         9.2859   58.7407   16.8989 H         1 UNK         0.0000 
     38 H38         6.8846   57.4886   15.4751 H         1 UNK         0.0000 
     39 H39         7.0875   59.1761   15.8906 H         1 UNK         0.0000 
     40 H40         6.9220   58.6888   18.3175 H         1 UNK         0.0000 
     41 H41         5.6014   57.9947   17.4652 H         1 UNK         0.0000 
     42 H42         6.7077   55.0934   16.5440 H         1 UNK         0.0000 
     43 H43         3.9107   54.8964   20.5696 H         1 UNK         0.0000 
     44 H44         4.8051   53.4299   20.3323 H         1 UNK         0.0000 
     45 H45         3.7321   53.9646   22.6659 H         1 UNK         0.0000 
     46 H46         6.1431   54.3706   27.5603 H         1 UNK         0.0000 
     47 H47         1.6555   52.9480   26.1733 H         1 UNK         0.0000 
@<TRIPOS>BOND
     1    1    2 1    
     2    1   31 1    
     3    1   32 1    
     4    1   33 1    
     5    2    3 1    
     6    2    8 1    
     7    2    4 1    
     8    4    5 1    
     9    4   34 1    
    10    4   35 1    
    11    5    6 1    
    12    5   36 1    
    13    5   37 1    
    14    6    7 1    
    15    6   38 1    
    16    6   39 1    
    17    7    8 1    
    18    7   40 1    
    19    7   41 1    
    20    8   14 1    
    21    8    9 1    
    22    9   10 2    
    23    9   11 am   BACKBONE|DICT|INTERRES
    24   11   12 am   BACKBONE|DICT|INTERRES
    25   11   15 1    
    26   12   13 2    
    27   12   14 am   BACKBONE|DICT|INTERRES
    28   14   42 1    
    29   15   16 1    
    30   15   43 1    
    31   15   44 1    
    32   16   17 2    
    33   16   18 am   BACKBONE|DICT|INTERRES
    34   18   19 am   BACKBONE|DICT|INTERRES
    35   18   45 1    
    36   19   23 1    
    37   19   20 2    
    38   20   21 1    
    39   21   22 2    
    40   21   24 1    
    41   22   23 1    
    42   22   46 1    
    43   24   28 2    
    44   24   25 1    
    45   25   26 2    
    46   25   47 1    
    47   26   27 1    
    48   26   30 1    
    49   27   28 1    
    50   28   29 1    
@<TRIPOS>SUBSTRUCTURE
     1 UNK         1 GROUP             0       ****    0 ROOT    
