@<TRIPOS>MOLECULE
ZINC39511810_1739
40   42    1
SMALL
USER_CHARGES


@<TRIPOS>ATOM
      1 C1          2.4922   54.2310   23.3936 C.ar      1 UNK         0.0000 
      2 C2          1.5364   53.2807   23.0528 C.ar      1 UNK         0.0000 
      3 C3          1.0474   52.4138   24.0256 C.ar      1 UNK         0.0000 
      4 C4          1.5042   52.5017   25.3423 C.ar      1 UNK         0.0000 
      5 C5          2.4306   53.5025   25.7207 C.ar      1 UNK         0.0000 
      6 C6          2.9393   54.3312   24.7101 C.ar      1 UNK         0.0000 
      7 N7          3.0404   53.5731   26.9770 N.pl3     1 UNK         0.0000 
      8 C8          4.4765   53.2968   27.1742 C.3       1 UNK         0.0000 
      9 C9          5.1962   54.4353   27.9177 C.3       1 UNK         0.0000 
     10 C10         4.4813   54.7927   29.2260 C.3       1 UNK         0.0000 
     11 C11         2.9813   55.0066   28.9446 C.3       1 UNK         0.0000 
     12 H12         2.8874   55.8229   28.2320 H         1 UNK         0.0000 
     13 C13         2.2893   53.7782   28.2537 C.3       1 UNK         0.0000 
     14 C14         0.7650   54.0693   28.1472 C.3       1 UNK         0.0000 
     15 C15         0.0901   53.4989   29.4023 C.3       1 UNK         0.0000 
     16 C16         0.9996   52.3866   29.9249 C.3       1 UNK         0.0000 
     17 H17         0.5179   51.4349   29.6910 H         1 UNK         0.0000 
     18 C18         2.2989   52.4763   29.1123 C.3       1 UNK         0.0000 
     19 O19         1.1826   52.4968   31.3235 O.3       1 UNK         0.0000 
     20 O20         2.3043   55.4799   30.0817 O.3       1 UNK         0.0000 
     21 O21         1.0195   51.5839   26.2384 O.3       1 UNK         0.0000 
     22 H22         2.8930   54.8855   22.6329 H         1 UNK         0.0000 
     23 H23         1.1936   53.2043   22.0306 H         1 UNK         0.0000 
     24 H24         0.3273   51.6588   23.7452 H         1 UNK         0.0000 
     25 H25         3.6985   55.0617   24.9496 H         1 UNK         0.0000 
     26 H26         4.9603   53.1408   26.2094 H         1 UNK         0.0000 
     27 H27         4.5914   52.3682   27.7293 H         1 UNK         0.0000 
     28 H28         5.2859   55.3014   27.2618 H         1 UNK         0.0000 
     29 H29         6.2231   54.1367   28.1341 H         1 UNK         0.0000 
     30 H30         4.9327   55.6747   29.6814 H         1 UNK         0.0000 
     31 H31         4.6237   53.9893   29.9464 H         1 UNK         0.0000 
     32 H32         0.3004   53.6095   27.2850 H         1 UNK         0.0000 
     33 H33         0.5607   55.1341   28.0353 H         1 UNK         0.0000 
     34 H34        -0.0434   54.2911   30.1405 H         1 UNK         0.0000 
     35 H35        -0.8955   53.1030   29.1732 H         1 UNK         0.0000 
     36 H36         3.1816   52.3791   29.7411 H         1 UNK         0.0000 
     37 H37         2.3311   51.6117   28.4484 H         1 UNK         0.0000 
     38 H38         0.3381   52.3460   31.7649 H         1 UNK         0.0000 
     39 H39         1.4136   55.7266   29.8246 H         1 UNK         0.0000 
     40 H40         0.4127   50.9499   25.8491 H         1 UNK         0.0000 
@<TRIPOS>BOND
     1    1    6 ar   
     2    1    2 ar   
     3    1   22 1    
     4    2    3 ar   
     5    2   23 1    
     6    3    4 ar   
     7    3   24 1    
     8    4    5 ar   
     9    4   21 1    
    10    5    6 ar   
    11    5    7 1    
    12    6   25 1    
    13    7   13 1    
    14    7    8 1    
    15    8    9 1    
    16    8   26 1    
    17    8   27 1    
    18    9   10 1    
    19    9   28 1    
    20    9   29 1    
    21   10   11 1    
    22   10   30 1    
    23   10   31 1    
    24   11   12 1    
    25   11   13 1    
    26   11   20 1    
    27   13   18 1    
    28   13   14 1    
    29   14   15 1    
    30   14   32 1    
    31   14   33 1    
    32   15   16 1    
    33   15   34 1    
    34   15   35 1    
    35   16   17 1    
    36   16   18 1    
    37   16   19 1    
    38   18   36 1    
    39   18   37 1    
    40   19   38 1    
    41   20   39 1    
    42   21   40 1    
@<TRIPOS>SUBSTRUCTURE
     1 UNK         1 GROUP             0       ****    0 ROOT    
