@<TRIPOS>MOLECULE
ZINC13033126_5778
44   46    1
SMALL
USER_CHARGES


@<TRIPOS>ATOM
      1 C1          6.4817   55.2966   20.7372 C.3       1 UNK         0.0000 
      2 C2          6.3045   54.8723   22.2016 C.3       1 UNK         0.0000 
      3 O3          4.9576   54.4969   22.4895 O.3       1 UNK         0.0000 
      4 C4          4.4489   53.2731   22.2154 C.2       1 UNK         0.0000 
      5 O5          5.1043   52.4058   21.6378 O.2       1 UNK         0.0000 
      6 C6          3.0667   53.0640   22.7498 C.2       1 UNK         0.0000 
      7 C7          2.2978   51.9500   22.5256 C.2       1 UNK         0.0000 
      8 N8          1.0297   51.8380   23.1151 N.am      1 UNK         0.0000 
      9 C9          0.3650   52.9057   23.6760 C.2       1 UNK         0.0000 
     10 O10        -0.7784   52.9078   24.1361 O.2       1 UNK         0.0000 
     11 N11         1.0772   54.0600   23.7220 N.am      1 UNK         0.0000 
     12 C12         2.5496   54.1235   23.7520 C.3       1 UNK         0.0000 
     13 H13         2.8020   55.1179   23.3878 H         1 UNK         0.0000 
     14 C14         3.1562   53.9895   25.1542 C.2       1 UNK         0.0000 
     15 C15         4.4279   54.3823   25.5819 C.2       1 UNK         0.0000 
     16 C16         4.7269   54.0984   26.9137 C.2       1 UNK         0.0000 
     17 C17         3.6606   53.5235   27.5746 C.2       1 UNK         0.0000 
     18 S18         2.3059   53.2968   26.5226 S.3       1 UNK         0.0000 
     19 Br19        6.4177   54.4656   27.7031 Br        1 UNK         0.0000 
     20 C20         0.3515   50.5904   23.1860 C.ar      1 UNK         0.0000 
     21 C21         0.4802   49.7812   24.3191 C.ar      1 UNK         0.0000 
     22 C22        -0.2348   48.5883   24.4146 C.ar      1 UNK         0.0000 
     23 C23        -1.0939   48.1851   23.3800 C.ar      1 UNK         0.0000 
     24 C24        -1.2208   49.0090   22.2504 C.ar      1 UNK         0.0000 
     25 C25        -0.5118   50.2036   22.1554 C.ar      1 UNK         0.0000 
     26 C26        -1.8657   46.8964   23.4757 C.2       1 UNK         0.0000 
     27 O27        -2.6122   46.5833   22.5178 O.co2     1 UNK         0.0000 
     28 C28         2.6753   50.8027   21.5676 C.3       1 UNK         0.0000 
     29 H29         7.5065   55.6136   20.5471 H         1 UNK         0.0000 
     30 H30         6.2616   54.4752   20.0558 H         1 UNK         0.0000 
     31 H31         5.8216   56.1242   20.4847 H         1 UNK         0.0000 
     32 H32         6.5567   55.7148   22.8459 H         1 UNK         0.0000 
     33 H33         6.9953   54.0737   22.4807 H         1 UNK         0.0000 
     34 H34         0.5877   54.8195   24.1713 H         1 UNK         0.0000 
     35 H35         5.1485   54.8519   24.9302 H         1 UNK         0.0000 
     36 H36         3.6163   53.2027   28.6048 H         1 UNK         0.0000 
     37 H37         1.1042   50.0837   25.1445 H         1 UNK         0.0000 
     38 H38        -0.1226   47.9824   25.3051 H         1 UNK         0.0000 
     39 H39        -1.8794   48.7282   21.4405 H         1 UNK         0.0000 
     40 H40        -0.6411   50.8296   21.2833 H         1 UNK         0.0000 
     41 H41         3.3827   51.0832   20.7920 H         1 UNK         0.0000 
     42 H42         3.0971   49.9696   22.1313 H         1 UNK         0.0000 
     43 H43         1.8207   50.4381   21.0006 H         1 UNK         0.0000 
     44 O44        -1.6992   46.1650   24.4813 O.co2     1 UNK         0.0000 
@<TRIPOS>BOND
     1    1    2 1    
     2    1   29 1    
     3    1   30 1    
     4    1   31 1    
     5    2    3 1    
     6    2   32 1    
     7    2   33 1    
     8    3    4 1    
     9    4    5 2    
    10    4    6 1    
    11    6   12 1    
    12    6    7 2    
    13    7    8 1    
    14    7   28 1    
    15    8    9 am   BACKBONE|DICT|INTERRES
    16    8   20 1    
    17    9   10 2    
    18    9   11 am   BACKBONE|DICT|INTERRES
    19   11   12 1    
    20   11   34 1    
    21   12   13 1    
    22   12   14 1    
    23   14   18 1    
    24   14   15 2    
    25   15   16 1    
    26   15   35 1    
    27   16   17 2    
    28   16   19 1    
    29   17   18 1    
    30   17   36 1    
    31   20   25 ar   
    32   20   21 ar   
    33   21   22 ar   
    34   21   37 1    
    35   22   23 ar   
    36   22   38 1    
    37   23   24 ar   
    38   23   26 1    
    39   24   25 ar   
    40   24   39 1    
    41   25   40 1    
    42   26   27 2    
    43   26   44 1    
    44   28   41 1    
    45   28   42 1    
    46   28   43 1    
@<TRIPOS>SUBSTRUCTURE
     1 UNK         1 GROUP             0       ****    0 ROOT    
