ZINC10384419_5526
                    3D
 Schrodinger Suite 2024-2.
 67 70  0  0  1  0            999 V2000
    4.7335   54.0980   25.7070 C   0  0  0  0  0  0
    3.3797   53.7228   25.6340 C   0  0  0  0  0  0
    2.6246   53.6953   26.8114 C   0  0  0  0  0  0
    3.2019   54.0578   28.0322 C   0  0  0  0  0  0
    4.5444   54.4313   28.0895 C   0  0  0  0  0  0
    5.3100   54.4481   26.9257 C   0  0  0  0  0  0
    6.9764   54.8924   26.9896 Cl  0  0  0  0  0  0
    2.2573   54.0378   29.4773 Cl  0  0  0  0  0  0
    2.7578   53.3012   24.4375 N   0  0  0  0  0  0
    3.1091   53.6379   23.1756 C   0  0  0  0  0  0
    3.9460   54.4958   22.9075 O   0  0  0  0  0  0
    2.4000   52.9172   22.0195 C   0  0  0  0  0  0
    3.3153   51.9240   21.2022 C   0  0  1  0  0  0
    4.2510   51.7018   21.7199 H   0  0  0  0  0  0
    2.5778   50.5566   21.0717 C   0  0  0  0  0  0
    2.3988   49.8080   22.0274 O   0  0  0  0  0  0
    2.0820   50.2209   19.8613 N   0  0  0  0  0  0
    2.2543   50.9481   18.5921 C   0  0  1  0  0  0
    3.1044   50.4967   18.0819 H   0  0  0  0  0  0
    1.0479   50.7659   17.6473 C   0  0  0  0  0  0
    1.2571   51.5110   16.3114 C   0  0  0  0  0  0
    1.6263   52.9945   16.5118 C   0  0  0  0  0  0
    2.8126   53.1714   17.4799 C   0  0  0  0  0  0
    2.5682   52.4489   18.8273 C   0  0  2  0  0  0
    1.7093   52.9078   19.3199 H   0  0  0  0  0  0
    4.4658   53.8834   19.9228 C   0  0  0  0  0  0
    5.6080   54.0392   18.8930 C   0  0  0  0  0  0
    6.2199   53.0193   18.5778 O   0  0  0  0  0  0
    6.0023   55.2743   18.4717 N   0  0  0  0  0  0
    7.3131   55.3917   17.7724 C   0  0  0  0  0  0
    7.1389   56.2706   16.5162 C   0  0  0  0  0  0
    6.5348   57.6581   16.8085 C   0  0  0  0  0  0
    5.1765   57.4086   17.4922 C   0  0  0  0  0  0
    5.1941   56.4924   18.7443 C   0  0  0  0  0  0
    7.5000   58.4965   17.6892 C   0  0  0  0  0  0
    7.2910   58.7065   18.8816 O   0  0  0  0  0  0
    8.5932   58.9742   17.0961 N   0  0  0  0  0  0
    5.3642   54.0926   24.8302 H   0  0  0  0  0  0
    1.5863   53.3959   26.7882 H   0  0  0  0  0  0
    4.9953   54.7022   29.0346 H   0  0  0  0  0  0
    1.9548   52.7019   24.5530 H   0  0  0  0  0  0
    1.5279   52.4117   22.4414 H   0  0  0  0  0  0
    1.9711   53.6853   21.3839 H   0  0  0  0  0  0
    1.6401   49.3142   19.8196 H   0  0  0  0  0  0
    0.8850   49.7052   17.4479 H   0  0  0  0  0  0
    0.1418   51.1392   18.1287 H   0  0  0  0  0  0
    0.3617   51.4282   15.6935 H   0  0  0  0  0  0
    2.0547   51.0157   15.7516 H   0  0  0  0  0  0
    0.7615   53.5353   16.8989 H   0  0  0  0  0  0
    1.8609   53.4514   15.5490 H   0  0  0  0  0  0
    3.0399   54.2270   17.6276 H   0  0  0  0  0  0
    3.7105   52.7542   17.0165 H   0  0  0  0  0  0
    3.6907   54.6437   19.9729 H   0  0  0  0  0  0
    4.9935   53.8396   20.8711 H   0  0  0  0  0  0
    8.0277   55.8558   18.4556 H   0  0  0  0  0  0
    7.7052   54.4309   17.4246 H   0  0  0  0  0  0
    8.0624   56.3663   15.9423 H   0  0  0  0  0  0
    6.5002   55.7519   15.7982 H   0  0  0  0  0  0
    6.3941   58.2410   15.8949 H   0  0  0  0  0  0
    4.5032   56.9858   16.7451 H   0  0  0  0  0  0
    4.6776   58.3604   17.6795 H   0  0  0  0  0  0
    4.1400   56.2676   18.8817 H   0  0  0  0  0  0
    5.6055   57.0180   19.6061 H   0  0  0  0  0  0
    8.7453   58.8325   16.1095 H   0  0  0  0  0  0
    9.2408   59.5204   17.6397 H   0  0  0  0  0  0
    3.7640   52.4956   19.8109 N   0  3  1  0  0  0
    4.4593   51.8605   19.4171 H   0  0  0  0  0  0
  1  6  2  0  0  0
  1  2  1  0  0  0
  1 38  1  0  0  0
  2  3  2  0  0  0
  2  9  1  0  0  0
  3  4  1  0  0  0
  3 39  1  0  0  0
  4  5  2  0  0  0
  4  8  1  0  0  0
  5  6  1  0  0  0
  5 40  1  0  0  0
  6  7  1  0  0  0
  9 10  1  0  0  0
  9 41  1  0  0  0
 10 11  2  0  0  0
 10 12  1  0  0  0
 12 13  1  0  0  0
 12 42  1  0  0  0
 12 43  1  0  0  0
 13 14  1  0  0  0
 13 15  1  0  0  0
 13 66  1  0  0  0
 15 16  2  0  0  0
 15 17  1  0  0  0
 17 18  1  0  0  0
 17 44  1  0  0  0
 18 19  1  0  0  0
 18 24  1  0  0  0
 18 20  1  0  0  0
 20 21  1  0  0  0
 20 45  1  0  0  0
 20 46  1  0  0  0
 21 22  1  0  0  0
 21 47  1  0  0  0
 21 48  1  0  0  0
 22 23  1  0  0  0
 22 49  1  0  0  0
 22 50  1  0  0  0
 23 24  1  0  0  0
 23 51  1  0  0  0
 23 52  1  0  0  0
 24 25  1  0  0  0
 24 66  1  0  0  0
 26 27  1  0  0  0
 26 53  1  0  0  0
 26 54  1  0  0  0
 26 66  1  0  0  0
 27 28  2  0  0  0
 27 29  1  0  0  0
 29 34  1  0  0  0
 29 30  1  0  0  0
 30 31  1  0  0  0
 30 55  1  0  0  0
 30 56  1  0  0  0
 31 32  1  0  0  0
 31 57  1  0  0  0
 31 58  1  0  0  0
 32 33  1  0  0  0
 32 35  1  0  0  0
 32 59  1  0  0  0
 33 34  1  0  0  0
 33 60  1  0  0  0
 33 61  1  0  0  0
 34 62  1  0  0  0
 34 63  1  0  0  0
 35 36  2  0  0  0
 35 37  1  0  0  0
 37 64  1  0  0  0
 37 65  1  0  0  0
 66 67  1  0  0  0
M  CHG  1  66   1
M  END
> <i_i_glide_confnum>
3

> <i_i_glide_lignum>
5527

> <i_i_glide_posenum>
152

> <i_i_glide_rotatable_bonds>
8

> <i_m_Source_File_Index>
1766

> <b_m_subgroup_collapsed>
0

> <r_i_docking_score>
-4.69476

> <r_i_glide_ecoul>
-4.30447

> <r_i_glide_eff_state_penalty>
0

> <r_i_glide_einternal>
8.67455

> <r_i_glide_emodel>
-54.4235

> <r_i_glide_energy>
-43.151

> <r_i_glide_erotb>
0.447298

> <r_i_glide_esite>
-0.16214

> <r_i_glide_evdw>
-38.8465

> <r_i_glide_gscore>
-4.69476

> <r_i_glide_hbond>
-0.16585

> <r_i_glide_ligand_efficiency>
-0.134136

> <r_i_glide_ligand_efficiency_ln>
-1.0306

> <r_i_glide_ligand_efficiency_sa>
-0.438767

> <r_i_glide_lipo>
-1.74799

> <r_i_glide_metal>
0

> <r_i_glide_rewards>
-0.478082

> <s_i_glide_gridfile>
wee1_glide-grid

> <s_m_Source_File>
wee1_decoys_glide_SP.sdf

> <s_m_Source_Path>
/Users/zhangxujun/Desktop

> <s_m_entry_id>
2041

> <s_m_entry_name>
wee1_decoys_glide_SP.1766

> <s_m_subgroup_title>
wee1_decoys_glide_SP

> <s_m_subgroupid>
wee1_decoys_glide_SP


$$$$
