ZINC59170582_5005
                    3D
 Schrodinger Suite 2024-2.
 51 54  0  0  1  0            999 V2000
    4.6695   54.6239   29.2459 C   0  0  0  0  0  0
    4.6544   54.4957   27.7360 C   0  0  0  0  0  0
    5.8014   54.7756   26.9799 C   0  0  0  0  0  0
    5.7764   54.6569   25.5864 C   0  0  0  0  0  0
    4.5968   54.2489   24.9630 C   0  0  0  0  0  0
    3.4589   53.9686   25.7093 C   0  0  0  0  0  0
    3.4779   54.0949   27.0969 C   0  0  0  0  0  0
    2.3114   53.4897   24.9370 C   0  0  0  0  0  0
    2.3053   53.3211   23.5793 C   0  0  0  0  0  0
    3.5115   53.6976   22.9175 C   0  0  0  0  0  0
    3.6734   53.6609   21.5894 N   0  3  0  0  0  0
    4.7909   54.0088   20.7604 C   0  0  0  0  0  0
    4.8666   53.4015   19.5036 C   0  0  0  0  0  0
    5.8991   53.7215   18.6268 C   0  0  0  0  0  0
    6.8468   54.6772   18.9953 C   0  0  0  0  0  0
    6.7819   55.2946   20.2443 C   0  0  0  0  0  0
    5.7641   54.9509   21.1274 C   0  0  0  0  0  0
    8.1687   55.1018   17.8725 S   0  0  0  0  0  0
    8.8978   56.2391   18.4411 O   0  0  0  0  0  0
    8.8439   53.8481   17.5275 O   0  0  0  0  0  0
    7.3653   55.6669   16.4357 N   0  0  0  0  0  0
    4.5592   54.0969   23.5873 O   0  0  0  0  0  0
    1.1397   52.7494   22.8775 C   0  0  0  0  0  0
    1.1772   52.4965   21.6735 O   0  0  0  0  0  0
    0.0421   52.5047   23.6348 N   0  0  0  0  0  0
   -1.1844   51.8851   23.3176 C   0  0  0  0  0  0
   -1.4981   51.3314   22.0639 C   0  0  0  0  0  0
   -2.7243   50.7016   21.8547 C   0  0  0  0  0  0
   -3.6540   50.6192   22.8888 C   0  0  0  0  0  0
   -3.3567   51.1691   24.1344 C   0  0  0  0  0  0
   -2.1301   51.7959   24.3545 C   0  0  0  0  0  0
   -1.7751   52.4968   26.0971 Br  0  0  0  0  0  0
    3.7618   55.1157   29.5948 H   0  0  0  0  0  0
    4.7038   53.6295   29.6841 H   0  0  0  0  0  0
    5.5076   55.2174   29.6075 H   0  0  0  0  0  0
    6.7085   55.0860   27.4786 H   0  0  0  0  0  0
    6.6615   54.8622   25.0011 H   0  0  0  0  0  0
    2.5978   53.8675   27.6795 H   0  0  0  0  0  0
    1.4491   53.2230   25.5273 H   0  0  0  0  0  0
    4.1368   52.6646   19.1966 H   0  0  0  0  0  0
    5.9573   53.2249   17.6682 H   0  0  0  0  0  0
    7.5242   56.0206   20.5436 H   0  0  0  0  0  0
    5.7445   55.4490   22.0813 H   0  0  0  0  0  0
    7.2954   56.6864   16.3842 H   0  0  0  0  0  0
    7.7276   55.2503   15.5723 H   0  0  0  0  0  0
    0.0768   52.8034   24.5937 H   0  0  0  0  0  0
   -0.8102   51.3517   21.2343 H   0  0  0  0  0  0
   -2.9505   50.2706   20.8913 H   0  0  0  0  0  0
   -4.6026   50.1281   22.7291 H   0  0  0  0  0  0
   -4.0736   51.0962   24.9388 H   0  0  0  0  0  0
    2.8726   53.3123   21.0657 H   0  0  0  0  0  0
  1  2  1  0  0  0
  1 33  1  0  0  0
  1 34  1  0  0  0
  1 35  1  0  0  0
  2  7  2  0  0  0
  2  3  1  0  0  0
  3  4  2  0  0  0
  3 36  1  0  0  0
  4  5  1  0  0  0
  4 37  1  0  0  0
  5 22  1  0  0  0
  5  6  2  0  0  0
  6  7  1  0  0  0
  6  8  1  0  0  0
  7 38  1  0  0  0
  8  9  2  0  0  0
  8 39  1  0  0  0
  9 10  1  0  0  0
  9 23  1  0  0  0
 10 11  2  0  0  0
 10 22  1  0  0  0
 11 12  1  0  0  0
 11 51  1  0  0  0
 12 17  2  0  0  0
 12 13  1  0  0  0
 13 14  2  0  0  0
 13 40  1  0  0  0
 14 15  1  0  0  0
 14 41  1  0  0  0
 15 16  2  0  0  0
 15 18  1  0  0  0
 16 17  1  0  0  0
 16 42  1  0  0  0
 17 43  1  0  0  0
 18 19  2  0  0  0
 18 20  2  0  0  0
 18 21  1  0  0  0
 21 44  1  0  0  0
 21 45  1  0  0  0
 23 24  2  0  0  0
 23 25  1  0  0  0
 25 26  1  0  0  0
 25 46  1  0  0  0
 26 31  2  0  0  0
 26 27  1  0  0  0
 27 28  2  0  0  0
 27 47  1  0  0  0
 28 29  1  0  0  0
 28 48  1  0  0  0
 29 30  2  0  0  0
 29 49  1  0  0  0
 30 31  1  0  0  0
 30 50  1  0  0  0
 31 32  1  0  0  0
M  CHG  1  11   1
M  END
> <i_i_glide_confnum>
7

> <i_i_glide_lignum>
5006

> <i_i_glide_posenum>
179

> <i_i_glide_rotatable_bonds>
5

> <i_m_Source_File_Index>
2928

> <b_m_subgroup_collapsed>
0

> <r_i_docking_score>
-3.83077

> <r_i_glide_ecoul>
1.91056

> <r_i_glide_eff_state_penalty>
0

> <r_i_glide_einternal>
3.11472

> <r_i_glide_emodel>
-48.9634

> <r_i_glide_energy>
-40.2835

> <r_i_glide_erotb>
0.311208

> <r_i_glide_esite>
-0.000368908

> <r_i_glide_evdw>
-42.1941

> <r_i_glide_gscore>
-3.83077

> <r_i_glide_hbond>
0

> <r_i_glide_ligand_efficiency>
-0.119712

> <r_i_glide_ligand_efficiency_ln>
-0.857814

> <r_i_glide_ligand_efficiency_sa>
-0.380061

> <r_i_glide_lipo>
-2.85873

> <r_i_glide_metal>
0

> <r_i_glide_rewards>
0.54024

> <s_i_glide_gridfile>
wee1_glide-grid

> <s_m_Source_File>
wee1_decoys_glide_SP.sdf

> <s_m_Source_Path>
/Users/zhangxujun/Desktop

> <s_m_entry_id>
3203

> <s_m_entry_name>
wee1_decoys_glide_SP.2928

> <s_m_subgroup_title>
wee1_decoys_glide_SP

> <s_m_subgroupid>
wee1_decoys_glide_SP


$$$$
