@<TRIPOS>MOLECULE
ZINC45898325_291
59   62    1
SMALL
USER_CHARGES


@<TRIPOS>ATOM
      1 C1          1.1699   50.1457   20.6852 C.3       1 UNK         0.0000 
      2 C2          1.4646   51.4610   19.9445 C.3       1 UNK         0.0000 
      3 H3          1.0153   52.2830   20.5062 H         1 UNK         0.0000 
      4 C4          0.8733   51.4648   18.5219 C.3       1 UNK         0.0000 
      5 C5          1.0954   52.8309   17.8381 C.3       1 UNK         0.0000 
      6 H6          0.6615   53.6073   18.4746 H         1 UNK         0.0000 
      7 C7          2.6151   53.0907   17.7315 C.3       1 UNK         0.0000 
      8 N8          3.2313   53.0869   19.1554 N.4       1 UNK         0.0000 
      9 C9          2.9861   51.7143   19.8520 C.3       1 UNK         0.0000 
     10 C10         4.7471   53.4259   19.0770 C.3       1 UNK         0.0000 
     11 C11         5.2927   54.0592   20.3598 C.2       1 UNK         0.0000 
     12 C12         6.3659   54.9464   20.4561 C.2       1 UNK         0.0000 
     13 S13         6.7048   55.2967   22.1274 S.3       1 UNK         0.0000 
     14 C14         5.3308   54.3132   22.5434 C.2       1 UNK         0.0000 
     15 N15         4.7315   53.7630   21.5206 N.2       1 UNK         0.0000 
     16 N16         4.8387   54.0969   23.8204 N.am      1 UNK         0.0000 
     17 C17         5.3161   54.5326   25.0091 C.2       1 UNK         0.0000 
     18 O18         6.3300   55.2135   25.1733 O.2       1 UNK         0.0000 
     19 C19         4.4927   54.1348   26.1362 C.ar      1 UNK         0.0000 
     20 C20         4.8262   54.0994   27.4871 C.ar      1 UNK         0.0000 
     21 C21         3.7100   53.5650   28.2147 C.ar      1 UNK         0.0000 
     22 C22         3.4623   53.2675   29.5626 C.ar      1 UNK         0.0000 
     23 C23         2.2244   52.7457   29.9399 C.ar      1 UNK         0.0000 
     24 C24         1.2499   52.4793   28.9695 C.ar      1 UNK         0.0000 
     25 C25         1.4536   52.7492   27.6111 C.ar      1 UNK         0.0000 
     26 C26         2.6863   53.3115   27.2635 C.ar      1 UNK         0.0000 
     27 N27         3.1847   53.6965   26.0398 N.pl3     1 UNK         0.0000 
     28 H28         2.6816   53.6484   25.1676 H         1 UNK         0.0000 
     29 O29         0.5584   52.4966   26.5910 O.3       1 UNK         0.0000 
     30 C30        -0.6482   51.8031   26.8982 C.3       1 UNK         0.0000 
     31 O31         2.0386   52.4953   31.2820 O.3       1 UNK         0.0000 
     32 C32         0.7048   52.5178   31.7953 C.3       1 UNK         0.0000 
     33 C33         0.4190   52.8999   16.4589 C.3       1 UNK         0.0000 
     34 H34         1.6196   49.2910   20.1789 H         1 UNK         0.0000 
     35 H35         1.5572   50.1652   21.7043 H         1 UNK         0.0000 
     36 H36         0.0968   49.9606   20.7534 H         1 UNK         0.0000 
     37 H37        -0.1949   51.2404   18.5645 H         1 UNK         0.0000 
     38 H38         1.2793   50.6494   17.9206 H         1 UNK         0.0000 
     39 H39         2.7959   54.0814   17.3087 H         1 UNK         0.0000 
     40 H40         3.1424   52.3393   17.1371 H         1 UNK         0.0000 
     41 H41         3.5045   50.9416   19.2833 H         1 UNK         0.0000 
     42 H42         3.4178   51.7506   20.8483 H         1 UNK         0.0000 
     43 H43         4.8646   54.1148   18.2395 H         1 UNK         0.0000 
     44 H44         5.2509   52.4974   18.7987 H         1 UNK         0.0000 
     45 H45         6.9893   55.3420   19.6664 H         1 UNK         0.0000 
     46 H46         4.0327   53.4965   23.8596 H         1 UNK         0.0000 
     47 H47         5.7816   54.4054   27.8911 H         1 UNK         0.0000 
     48 H48         4.2188   53.4518   30.3075 H         1 UNK         0.0000 
     49 H49         0.3125   52.0416   29.2760 H         1 UNK         0.0000 
     50 H50        -1.2134   51.6441   25.9795 H         1 UNK         0.0000 
     51 H51        -0.4509   50.8224   27.3379 H         1 UNK         0.0000 
     52 H52        -1.2783   52.3800   27.5773 H         1 UNK         0.0000 
     53 H53         0.7124   52.4279   32.8813 H         1 UNK         0.0000 
     54 H54         0.1025   51.6967   31.4150 H         1 UNK         0.0000 
     55 H55         0.2018   53.4550   31.5547 H         1 UNK         0.0000 
     56 H56         0.8238   52.1522   15.7758 H         1 UNK         0.0000 
     57 H57        -0.6558   52.7313   16.5360 H         1 UNK         0.0000 
     58 H58         0.5615   53.8791   15.9993 H         1 UNK         0.0000 
     59 H59         2.7721   53.8214   19.6831 H         1 UNK         0.0000 
@<TRIPOS>BOND
     1    1    2 1    
     2    1   34 1    
     3    1   35 1    
     4    1   36 1    
     5    2    3 1    
     6    2    9 1    
     7    2    4 1    
     8    4    5 1    
     9    4   37 1    
    10    4   38 1    
    11    5    6 1    
    12    5    7 1    
    13    5   33 1    
    14    7    8 1    
    15    7   39 1    
    16    7   40 1    
    17    8    9 1    
    18    8   10 1    
    19    8   59 1    
    20    9   41 1    
    21    9   42 1    
    22   10   11 1    
    23   10   43 1    
    24   10   44 1    
    25   11   15 1    
    26   11   12 2    
    27   12   13 1    
    28   12   45 1    
    29   13   14 1    
    30   14   15 2    
    31   14   16 am   BACKBONE|DICT|INTERRES
    32   16   17 am   BACKBONE|DICT|INTERRES
    33   16   46 1    
    34   17   18 2    
    35   17   19 1    
    36   19   27 ar   
    37   19   20 ar   
    38   20   21 ar   
    39   20   47 1    
    40   21   26 ar   
    41   21   22 ar   
    42   22   23 ar   
    43   22   48 1    
    44   23   24 ar   
    45   23   31 1    
    46   24   25 ar   
    47   24   49 1    
    48   25   26 ar   
    49   25   29 1    
    50   26   27 ar   
    51   27   28 1    
    52   29   30 1    
    53   30   50 1    
    54   30   51 1    
    55   30   52 1    
    56   31   32 1    
    57   32   53 1    
    58   32   54 1    
    59   32   55 1    
    60   33   56 1    
    61   33   57 1    
    62   33   58 1    
@<TRIPOS>SUBSTRUCTURE
     1 UNK         1 GROUP             0       ****    0 ROOT    
