@<TRIPOS>MOLECULE
ZINC17857125_427
54   56    1
SMALL
USER_CHARGES


@<TRIPOS>ATOM
      1 C1         -3.1748   52.6424   25.4174 C.3       1 UNK         0.0000 
      2 C2         -4.1809   51.7605   26.1492 C.ar      1 UNK         0.0000 
      3 C3         -5.4562   52.2874   26.3734 C.ar      1 UNK         0.0000 
      4 C4         -6.3983   51.5790   27.1127 C.ar      1 UNK         0.0000 
      5 C5         -6.0697   50.3389   27.6505 C.ar      1 UNK         0.0000 
      6 C6         -4.8031   49.7861   27.4425 C.ar      1 UNK         0.0000 
      7 C7         -3.8562   50.4817   26.6629 C.ar      1 UNK         0.0000 
      8 N8         -2.5899   49.8912   26.4817 N.am      1 UNK         0.0000 
      9 C9         -1.9596   49.6717   25.3112 C.2       1 UNK         0.0000 
     10 O10        -2.4727   49.8654   24.2052 O.2       1 UNK         0.0000 
     11 C11        -0.5324   49.0966   25.4310 C.3       1 UNK         0.0000 
     12 N12         0.3542   49.5030   24.3279 N.am      1 UNK         0.0000 
     13 C13         0.6332   50.7697   23.9583 C.2       1 UNK         0.0000 
     14 O14         0.1860   51.7584   24.5443 O.2       1 UNK         0.0000 
     15 C15         1.5958   50.9407   22.8055 C.ar      1 UNK         0.0000 
     16 C16         1.7742   49.9546   21.8228 C.ar      1 UNK         0.0000 
     17 C17         2.7045   50.1393   20.7994 C.ar      1 UNK         0.0000 
     18 C18         3.5017   51.2851   20.7672 C.ar      1 UNK         0.0000 
     19 C19         3.3349   52.2800   21.7345 C.ar      1 UNK         0.0000 
     20 C20         2.3460   52.1196   22.7120 C.ar      1 UNK         0.0000 
     21 S21         4.3612   53.7609   21.7104 S.o2      1 UNK         0.0000 
     22 O22         5.1649   53.7247   20.4851 O.2       1 UNK         0.0000 
     23 O23         3.4995   54.8967   22.0088 O.2       1 UNK         0.0000 
     24 N24         5.5203   53.6973   23.0496 N.pl3     1 UNK         0.0000 
     25 C25         5.2736   54.0948   24.3776 C.ar      1 UNK         0.0000 
     26 C26         4.0029   54.3865   24.8969 C.ar      1 UNK         0.0000 
     27 C27         3.8153   54.5679   26.2660 C.ar      1 UNK         0.0000 
     28 C28         4.9002   54.4967   27.1314 C.ar      1 UNK         0.0000 
     29 C29         6.1729   54.2739   26.6182 C.ar      1 UNK         0.0000 
     30 C30         6.3634   54.0967   25.2491 C.ar      1 UNK         0.0000 
     31 Cl31        7.5043   54.1603   27.6889 Cl        1 UNK         0.0000 
     32 C32        -4.4950   48.4268   28.0634 C.3       1 UNK         0.0000 
     33 H33        -3.1655   52.4204   24.3503 H         1 UNK         0.0000 
     34 H34        -3.4092   53.6973   25.5503 H         1 UNK         0.0000 
     35 H35        -2.1689   52.5086   25.8147 H         1 UNK         0.0000 
     36 H36        -5.7196   53.2596   25.9830 H         1 UNK         0.0000 
     37 H37        -7.3797   51.9972   27.2807 H         1 UNK         0.0000 
     38 H38        -6.8066   49.8070   28.2354 H         1 UNK         0.0000 
     39 H39        -2.1593   49.4818   27.3154 H         1 UNK         0.0000 
     40 H40        -0.0758   49.4031   26.3744 H         1 UNK         0.0000 
     41 H41        -0.5957   48.0086   25.4527 H         1 UNK         0.0000 
     42 H42         0.8551   48.7586   23.8695 H         1 UNK         0.0000 
     43 H43         1.1944   49.0434   21.8313 H         1 UNK         0.0000 
     44 H44         2.8312   49.3819   20.0383 H         1 UNK         0.0000 
     45 H45         4.2348   51.3962   19.9789 H         1 UNK         0.0000 
     46 H46         2.1822   52.8948   23.4385 H         1 UNK         0.0000 
     47 H47         6.4542   53.4022   22.8139 H         1 UNK         0.0000 
     48 H48         3.1326   54.4626   24.2747 H         1 UNK         0.0000 
     49 H49         2.8273   54.7561   26.6585 H         1 UNK         0.0000 
     50 H50         4.7576   54.6244   28.1946 H         1 UNK         0.0000 
     51 H51         7.3549   53.8839   24.8762 H         1 UNK         0.0000 
     52 H52        -4.0461   47.7615   27.3243 H         1 UNK         0.0000 
     53 H53        -3.7795   48.5378   28.8810 H         1 UNK         0.0000 
     54 H54        -5.3901   47.9307   28.4431 H         1 UNK         0.0000 
@<TRIPOS>BOND
     1    1    2 1    
     2    1   33 1    
     3    1   34 1    
     4    1   35 1    
     5    2    7 ar   
     6    2    3 ar   
     7    3    4 ar   
     8    3   36 1    
     9    4    5 ar   
    10    4   37 1    
    11    5    6 ar   
    12    5   38 1    
    13    6    7 ar   
    14    6   32 1    
    15    7    8 1    
    16    8    9 am   BACKBONE|DICT|INTERRES
    17    8   39 1    
    18    9   10 2    
    19    9   11 1    
    20   11   12 1    
    21   11   40 1    
    22   11   41 1    
    23   12   13 am   BACKBONE|DICT|INTERRES
    24   12   42 1    
    25   13   14 2    
    26   13   15 1    
    27   15   20 ar   
    28   15   16 ar   
    29   16   17 ar   
    30   16   43 1    
    31   17   18 ar   
    32   17   44 1    
    33   18   19 ar   
    34   18   45 1    
    35   19   20 ar   
    36   19   21 1    
    37   20   46 1    
    38   21   22 2    
    39   21   23 2    
    40   21   24 1    
    41   24   25 1    
    42   24   47 1    
    43   25   30 ar   
    44   25   26 ar   
    45   26   27 ar   
    46   26   48 1    
    47   27   28 ar   
    48   27   49 1    
    49   28   29 ar   
    50   28   50 1    
    51   29   30 ar   
    52   29   31 1    
    53   30   51 1    
    54   32   52 1    
    55   32   53 1    
    56   32   54 1    
@<TRIPOS>SUBSTRUCTURE
     1 UNK         1 GROUP             0       ****    0 ROOT    
