@<TRIPOS>MOLECULE
ZINC37885383_3882
26   27    1
SMALL
USER_CHARGES


@<TRIPOS>ATOM
      1 C1          4.3137   54.3486   25.1846 C.ar      1 UNK         0.0000 
      2 C2          5.4851   54.5505   25.9073 C.ar      1 UNK         0.0000 
      3 C3          5.4655   54.4965   27.2977 C.ar      1 UNK         0.0000 
      4 C4          4.2689   54.2614   27.9735 C.ar      1 UNK         0.0000 
      5 C5          3.0781   54.0497   27.2524 C.ar      1 UNK         0.0000 
      6 C6          3.1126   54.0966   25.8459 C.ar      1 UNK         0.0000 
      7 Cl7         1.6904   53.8804   24.8803 Cl        1 UNK         0.0000 
      8 N8          1.8633   53.8310   27.9240 N.pl3     1 UNK         0.0000 
      9 C9          1.6759   52.4956   28.5031 C.3       1 UNK         0.0000 
     10 H10         2.6362   51.9908   28.6344 H         1 UNK         0.0000 
     11 C11         0.7919   51.6314   27.5963 C.3       1 UNK         0.0000 
     12 O12        -0.5274   51.9783   27.9879 O.3       1 UNK         0.0000 
     13 C13        -0.5400   52.0962   29.4075 C.3       1 UNK         0.0000 
     14 C14         0.8846   52.4969   29.8211 C.3       1 UNK         0.0000 
     15 H15         1.2870   51.6964   30.4399 H         1 UNK         0.0000 
     16 O16         0.9296   53.6799   30.6046 O.3       1 UNK         0.0000 
     17 Cl17        4.3043   54.2653   29.7041 Cl        1 UNK         0.0000 
     18 Br18        7.1044   54.9292   24.9916 Br        1 UNK         0.0000 
     19 H19         4.3357   54.3957   24.1051 H         1 UNK         0.0000 
     20 H20         6.3753   54.6612   27.8566 H         1 UNK         0.0000 
     21 H21         1.0475   54.1663   27.4302 H         1 UNK         0.0000 
     22 H22         0.9396   50.5579   27.7276 H         1 UNK         0.0000 
     23 H23         0.9381   51.8036   26.5309 H         1 UNK         0.0000 
     24 H24        -1.2955   52.8252   29.6951 H         1 UNK         0.0000 
     25 H25        -0.8392   51.1459   29.8535 H         1 UNK         0.0000 
     26 H26         0.3565   53.5570   31.3676 H         1 UNK         0.0000 
@<TRIPOS>BOND
     1    1    6 ar   
     2    1    2 ar   
     3    1   19 1    
     4    2    3 ar   
     5    2   18 1    
     6    3    4 ar   
     7    3   20 1    
     8    4    5 ar   
     9    4   17 1    
    10    5    6 ar   
    11    5    8 1    
    12    6    7 1    
    13    8    9 1    
    14    8   21 1    
    15    9   10 1    
    16    9   14 1    
    17    9   11 1    
    18   11   12 1    
    19   11   22 1    
    20   11   23 1    
    21   12   13 1    
    22   13   14 1    
    23   13   24 1    
    24   13   25 1    
    25   14   15 1    
    26   14   16 1    
    27   16   26 1    
@<TRIPOS>SUBSTRUCTURE
     1 UNK         1 GROUP             0       ****    0 ROOT    
