ZINC35346990_3575
                    3D
 Schrodinger Suite 2024-2.
 32 33  0  0  1  0            999 V2000
   -2.8274   53.2508   23.8224 C   0  0  0  0  0  0
   -3.5673   52.7460   25.0558 C   0  0  0  0  0  0
   -4.7340   53.4344   25.4043 C   0  0  0  0  0  0
   -5.5190   53.0167   26.4713 C   0  0  0  0  0  0
   -5.1418   51.9008   27.2058 C   0  0  0  0  0  0
   -3.9764   51.2038   26.8906 C   0  0  0  0  0  0
   -3.1614   51.6175   25.8135 C   0  0  0  0  0  0
   -1.6735   50.6504   25.3977 S   0  0  0  0  0  0
   -2.1424   49.2973   25.0833 O   0  0  0  0  0  0
   -0.8531   51.3779   24.4266 O   0  0  0  0  0  0
   -0.7081   50.4967   26.8817 N   0  0  0  0  0  0
   -0.1941   51.5969   27.5821 C   0  0  0  0  0  0
   -0.5750   51.7489   28.9199 C   0  0  0  0  0  0
   -0.0942   52.8171   29.6794 C   0  0  0  0  0  0
    0.7837   53.7370   29.1053 C   0  0  0  0  0  0
    1.2104   53.5621   27.7913 C   0  0  0  0  0  0
    0.7341   52.4951   27.0305 C   0  0  0  0  0  0
    1.2062   52.3459   25.7733 F   0  0  0  0  0  0
    1.4012   55.2379   30.0972 Br  0  0  0  0  0  0
   -3.6955   50.0965   27.6909 N   0  0  0  0  0  0
   -1.8372   53.6232   24.0825 H   0  0  0  0  0  0
   -2.7091   52.4447   23.0982 H   0  0  0  0  0  0
   -3.3599   54.0557   23.3163 H   0  0  0  0  0  0
   -5.0537   54.2911   24.8289 H   0  0  0  0  0  0
   -6.4249   53.5493   26.7212 H   0  0  0  0  0  0
   -5.7673   51.5789   28.0259 H   0  0  0  0  0  0
   -0.9073   49.6531   27.4237 H   0  0  0  0  0  0
   -1.2611   51.0446   29.3730 H   0  0  0  0  0  0
   -0.4126   52.9307   30.7064 H   0  0  0  0  0  0
    1.9097   54.2591   27.3535 H   0  0  0  0  0  0
   -2.8566   49.5346   27.5555 H   0  0  0  0  0  0
   -4.3102   49.8674   28.4569 H   0  0  0  0  0  0
  1  2  1  0  0  0
  1 21  1  0  0  0
  1 22  1  0  0  0
  1 23  1  0  0  0
  2  7  2  0  0  0
  2  3  1  0  0  0
  3  4  2  0  0  0
  3 24  1  0  0  0
  4  5  1  0  0  0
  4 25  1  0  0  0
  5  6  2  0  0  0
  5 26  1  0  0  0
  6  7  1  0  0  0
  6 20  1  0  0  0
  7  8  1  0  0  0
  8  9  2  0  0  0
  8 10  2  0  0  0
  8 11  1  0  0  0
 11 12  1  0  0  0
 11 27  1  0  0  0
 12 17  2  0  0  0
 12 13  1  0  0  0
 13 14  2  0  0  0
 13 28  1  0  0  0
 14 15  1  0  0  0
 14 29  1  0  0  0
 15 16  2  0  0  0
 15 19  1  0  0  0
 16 17  1  0  0  0
 16 30  1  0  0  0
 17 18  1  0  0  0
 20 31  1  0  0  0
 20 32  1  0  0  0
M  END
> <i_i_glide_confnum>
13

> <i_i_glide_lignum>
3576

> <i_i_glide_posenum>
242

> <i_i_glide_rotatable_bonds>
3

> <i_m_Source_File_Index>
448

> <b_m_subgroup_collapsed>
0

> <r_i_docking_score>
-4.14987

> <r_i_glide_ecoul>
-4.7345

> <r_i_glide_eff_state_penalty>
0

> <r_i_glide_einternal>
5.13893

> <r_i_glide_emodel>
-34.6002

> <r_i_glide_energy>
-28.9061

> <r_i_glide_erotb>
0.445571

> <r_i_glide_esite>
-0.280237

> <r_i_glide_evdw>
-24.1716

> <r_i_glide_gscore>
-4.14987

> <r_i_glide_hbond>
-0.29338

> <r_i_glide_ligand_efficiency>
-0.207493

> <r_i_glide_ligand_efficiency_ln>
-1.03858

> <r_i_glide_ligand_efficiency_sa>
-0.563224

> <r_i_glide_lipo>
-1.19897

> <r_i_glide_metal>
0

> <r_i_glide_rewards>
-0.9041

> <s_i_glide_gridfile>
wee1_glide-grid

> <s_m_Source_File>
wee1_decoys_glide_SP.sdf

> <s_m_Source_Path>
/Users/zhangxujun/Desktop

> <s_m_entry_id>
723

> <s_m_entry_name>
wee1_decoys_glide_SP.448

> <s_m_subgroup_title>
wee1_decoys_glide_SP

> <s_m_subgroupid>
wee1_decoys_glide_SP


$$$$
