ZINC02595210_2279
                    3D
 Schrodinger Suite 2024-2.
 57 59  0  0  1  0            999 V2000
    4.5207   52.6514   28.8819 C   0  0  0  0  0  0
    3.4935   53.5416   29.5968 C   0  0  0  0  0  0
    3.2726   54.8951   28.9031 C   0  0  0  0  0  0
    2.2781   52.8797   29.9693 O   0  0  0  0  0  0
    1.3002   52.4978   29.0655 C   0  0  0  0  0  0
    1.4351   52.4889   27.6697 C   0  0  0  0  0  0
    0.3736   52.0978   26.8568 C   0  0  0  0  0  0
   -0.8488   51.7118   27.4235 C   0  0  0  0  0  0
   -0.9740   51.6967   28.8171 C   0  0  0  0  0  0
    0.0884   52.0950   29.6250 C   0  0  0  0  0  0
   -2.0422   51.3829   26.5581 C   0  0  0  0  0  0
   -3.1705   51.7198   26.9133 O   0  0  0  0  0  0
   -1.7618   50.7469   25.4024 N   0  0  0  0  0  0
   -2.5722   50.4838   24.1832 C   0  0  1  0  0  0
   -1.9494   51.2734   23.0289 C   0  0  0  0  0  0
   -2.0166   52.4954   22.8841 O   0  0  0  0  0  0
   -1.3453   50.3384   22.2515 N   0  0  0  0  0  0
   -1.7431   49.1273   22.7401 C   0  0  0  0  0  0
   -2.4031   49.1157   23.8164 N   0  0  0  0  0  0
   -1.4389   47.9634   22.0862 O   0  0  0  0  0  0
   -0.4546   50.6395   21.0784 C   0  0  0  0  0  0
    0.1074   52.0925   20.9363 C   0  0  0  0  0  0
    1.0634   52.6412   22.0234 C   0  0  0  0  0  0
    2.2819   51.7798   22.3818 C   0  0  0  0  0  0
    1.9048   50.4396   23.0317 C   0  0  0  0  0  0
    1.6126   49.2978   22.0525 C   0  0  0  0  0  0
    0.7123   49.6323   20.8448 C   0  0  0  0  0  0
   -4.1147   50.8134   24.2623 C   0  0  0  0  0  0
   -4.7557   50.4929   23.1334 F   0  0  0  0  0  0
   -4.7200   50.1276   25.2346 F   0  0  0  0  0  0
   -4.3710   52.1069   24.4780 F   0  0  0  0  0  0
    5.5039   53.1228   28.8804 H   0  0  0  0  0  0
    4.2766   52.4651   27.8405 H   0  0  0  0  0  0
    4.6246   51.6930   29.3880 H   0  0  0  0  0  0
    3.9578   53.7728   30.5555 H   0  0  0  0  0  0
    4.2315   55.2969   28.5815 H   0  0  0  0  0  0
    2.6379   54.8366   28.0214 H   0  0  0  0  0  0
    2.8169   55.6158   29.5832 H   0  0  0  0  0  0
    2.3418   52.7984   27.1826 H   0  0  0  0  0  0
    0.5043   52.1370   25.7843 H   0  0  0  0  0  0
   -1.8994   51.3844   29.2822 H   0  0  0  0  0  0
   -0.0335   52.0894   30.6996 H   0  0  0  0  0  0
   -0.8149   50.4085   25.3393 H   0  0  0  0  0  0
   -0.9689   48.1678   21.2776 H   0  0  0  0  0  0
   -1.1052   50.5205   20.2100 H   0  0  0  0  0  0
    0.6139   52.1720   19.9728 H   0  0  0  0  0  0
   -0.7256   52.7780   20.8131 H   0  0  0  0  0  0
    1.4252   53.6144   21.6898 H   0  0  0  0  0  0
    0.5084   52.8529   22.9369 H   0  0  0  0  0  0
    2.9119   51.6185   21.5053 H   0  0  0  0  0  0
    2.8915   52.3521   23.0821 H   0  0  0  0  0  0
    2.7044   50.0990   23.6818 H   0  0  0  0  0  0
    1.0558   50.5835   23.7014 H   0  0  0  0  0  0
    2.5554   48.8910   21.6813 H   0  0  0  0  0  0
    1.1650   48.4973   22.6378 H   0  0  0  0  0  0
    0.3311   48.7038   20.4230 H   0  0  0  0  0  0
    1.3376   49.9984   20.0284 H   0  0  0  0  0  0
  1  2  1  0  0  0
  1 32  1  0  0  0
  1 33  1  0  0  0
  1 34  1  0  0  0
  2  3  1  0  0  0
  2  4  1  0  0  0
  2 35  1  0  0  0
  3 36  1  0  0  0
  3 37  1  0  0  0
  3 38  1  0  0  0
  4  5  1  0  0  0
  5 10  2  0  0  0
  5  6  1  0  0  0
  6  7  2  0  0  0
  6 39  1  0  0  0
  7  8  1  0  0  0
  7 40  1  0  0  0
  8  9  2  0  0  0
  8 11  1  0  0  0
  9 10  1  0  0  0
  9 41  1  0  0  0
 10 42  1  0  0  0
 11 12  2  0  0  0
 11 13  1  0  0  0
 13 14  1  0  0  0
 13 43  1  0  0  0
 14 19  1  0  0  0
 14 15  1  0  0  0
 14 28  1  0  0  0
 15 16  2  0  0  0
 15 17  1  0  0  0
 17 18  1  0  0  0
 17 21  1  0  0  0
 18 19  2  0  0  0
 18 20  1  0  0  0
 20 44  1  0  0  0
 21 27  1  0  0  0
 21 22  1  0  0  0
 21 45  1  0  0  0
 22 23  1  0  0  0
 22 46  1  0  0  0
 22 47  1  0  0  0
 23 24  1  0  0  0
 23 48  1  0  0  0
 23 49  1  0  0  0
 24 25  1  0  0  0
 24 50  1  0  0  0
 24 51  1  0  0  0
 25 26  1  0  0  0
 25 52  1  0  0  0
 25 53  1  0  0  0
 26 27  1  0  0  0
 26 54  1  0  0  0
 26 55  1  0  0  0
 27 56  1  0  0  0
 27 57  1  0  0  0
 28 29  1  0  0  0
 28 30  1  0  0  0
 28 31  1  0  0  0
M  END
> <i_i_glide_confnum>
69

> <i_i_glide_lignum>
2280

> <i_i_glide_posenum>
205

> <i_i_glide_rotatable_bonds>
8

> <i_m_Source_File_Index>
4704

> <b_m_subgroup_collapsed>
0

> <r_i_docking_score>
-3.34875

> <r_i_glide_ecoul>
-2.3922

> <r_i_glide_eff_state_penalty>
0

> <r_i_glide_einternal>
7.98732

> <r_i_glide_emodel>
-42.81

> <r_i_glide_energy>
-37.6114

> <r_i_glide_erotb>
0.512515

> <r_i_glide_esite>
-0.0844877

> <r_i_glide_evdw>
-35.2192

> <r_i_glide_gscore>
-3.34875

> <r_i_glide_hbond>
0

> <r_i_glide_ligand_efficiency>
-0.108024

> <r_i_glide_ligand_efficiency_ln>
-0.755245

> <r_i_glide_ligand_efficiency_sa>
-0.339345

> <r_i_glide_lipo>
-1.22312

> <r_i_glide_metal>
0

> <r_i_glide_rewards>
-0.433864

> <s_i_glide_gridfile>
wee1_glide-grid

> <s_m_Source_File>
wee1_decoys_glide_SP.sdf

> <s_m_Source_Path>
/Users/zhangxujun/Desktop

> <s_m_entry_id>
4979

> <s_m_entry_name>
wee1_decoys_glide_SP.4704

> <s_m_subgroup_title>
wee1_decoys_glide_SP

> <s_m_subgroupid>
wee1_decoys_glide_SP


$$$$
