@<TRIPOS>MOLECULE
ZINC12932265_6097
49   52    1
SMALL
USER_CHARGES


@<TRIPOS>ATOM
      1 C1          2.0958   53.4896   29.7025 C.ar      1 UNK         0.0000 
      2 C2          1.9944   54.4190   28.6694 C.ar      1 UNK         0.0000 
      3 C3          3.0610   54.5815   27.7892 C.ar      1 UNK         0.0000 
      4 C4          4.2185   53.8111   27.9220 C.ar      1 UNK         0.0000 
      5 C5          4.3124   52.8985   28.9720 C.ar      1 UNK         0.0000 
      6 C6          3.2547   52.7341   29.8639 C.ar      1 UNK         0.0000 
      7 O7          5.3224   53.9718   27.1082 O.3       1 UNK         0.0000 
      8 C8          5.2672   54.1624   25.7376 C.ar      1 UNK         0.0000 
      9 C9          6.4697   54.5012   25.1160 C.ar      1 UNK         0.0000 
     10 C10         6.5466   54.6350   23.7313 C.ar      1 UNK         0.0000 
     11 C11         5.4032   54.4299   22.9481 C.ar      1 UNK         0.0000 
     12 C12         4.1956   54.0962   23.5607 C.ar      1 UNK         0.0000 
     13 C13         4.1256   53.9671   24.9467 C.ar      1 UNK         0.0000 
     14 N14         5.4146   54.4911   21.5448 N.am      1 UNK         0.0000 
     15 C15         6.1615   55.2968   20.7586 C.2       1 UNK         0.0000 
     16 O16         6.9184   56.1758   21.1756 O.2       1 UNK         0.0000 
     17 C17         5.9999   55.0567   19.2782 C.ar      1 UNK         0.0000 
     18 C18         4.7127   55.0002   18.7171 C.ar      1 UNK         0.0000 
     19 C19         4.5350   54.7392   17.3567 C.ar      1 UNK         0.0000 
     20 C20         5.6452   54.5200   16.5413 C.ar      1 UNK         0.0000 
     21 C21         6.9263   54.5731   17.0849 C.ar      1 UNK         0.0000 
     22 C22         7.1137   54.8416   18.4412 C.ar      1 UNK         0.0000 
     23 Br23        8.9144   54.8973   19.0796 Br        1 UNK         0.0000 
     24 S24         2.8840   54.7123   16.6648 S.o2      1 UNK         0.0000 
     25 O25         2.9708   54.1388   15.3165 O.2       1 UNK         0.0000 
     26 O26         2.3231   56.0490   16.8822 O.2       1 UNK         0.0000 
     27 N27         1.9841   53.6002   17.6822 N.pl3     1 UNK         0.0000 
     28 C28         2.3100   52.1632   17.6566 C.3       1 UNK         0.0000 
     29 C29         1.1606   51.2136   17.9050 C.3       1 UNK         0.0000 
     30 C30         1.7161   51.3655   16.5152 C.3       1 UNK         0.0000 
     31 H31         1.2678   53.3586   30.3854 H         1 UNK         0.0000 
     32 H32         1.0985   55.0097   28.5522 H         1 UNK         0.0000 
     33 H33         2.9952   55.3010   26.9927 H         1 UNK         0.0000 
     34 H34         5.2126   52.3160   29.0889 H         1 UNK         0.0000 
     35 H35         3.3339   52.0299   30.6783 H         1 UNK         0.0000 
     36 H36         7.3568   54.6261   25.7154 H         1 UNK         0.0000 
     37 H37         7.5005   54.8689   23.2801 H         1 UNK         0.0000 
     38 H38         3.3088   53.9190   22.9675 H         1 UNK         0.0000 
     39 H39         3.1902   53.6571   25.3856 H         1 UNK         0.0000 
     40 H40         4.7625   53.8809   21.0762 H         1 UNK         0.0000 
     41 H41         3.8365   55.1691   19.3295 H         1 UNK         0.0000 
     42 H42         5.5200   54.3139   15.4880 H         1 UNK         0.0000 
     43 H43         7.7814   54.4018   16.4476 H         1 UNK         0.0000 
     44 H44         1.6750   53.9851   18.5821 H         1 UNK         0.0000 
     45 H45         3.3096   51.8912   18.0061 H         1 UNK         0.0000 
     46 H46         0.1781   51.6251   18.1348 H         1 UNK         0.0000 
     47 H47         1.3663   50.2960   18.4582 H         1 UNK         0.0000 
     48 H48         2.3050   50.5513   16.0921 H         1 UNK         0.0000 
     49 H49         1.1379   51.8944   15.7569 H         1 UNK         0.0000 
@<TRIPOS>BOND
     1    1    6 ar   
     2    1    2 ar   
     3    1   31 1    
     4    2    3 ar   
     5    2   32 1    
     6    3    4 ar   
     7    3   33 1    
     8    4    5 ar   
     9    4    7 1    
    10    5    6 ar   
    11    5   34 1    
    12    6   35 1    
    13    7    8 1    
    14    8   13 ar   
    15    8    9 ar   
    16    9   10 ar   
    17    9   36 1    
    18   10   11 ar   
    19   10   37 1    
    20   11   12 ar   
    21   11   14 1    
    22   12   13 ar   
    23   12   38 1    
    24   13   39 1    
    25   14   15 am   BACKBONE|DICT|INTERRES
    26   14   40 1    
    27   15   16 2    
    28   15   17 1    
    29   17   22 ar   
    30   17   18 ar   
    31   18   19 ar   
    32   18   41 1    
    33   19   20 ar   
    34   19   24 1    
    35   20   21 ar   
    36   20   42 1    
    37   21   22 ar   
    38   21   43 1    
    39   22   23 1    
    40   24   25 2    
    41   24   26 2    
    42   24   27 1    
    43   27   28 1    
    44   27   44 1    
    45   28   30 1    
    46   28   29 1    
    47   28   45 1    
    48   29   30 1    
    49   29   46 1    
    50   29   47 1    
    51   30   48 1    
    52   30   49 1    
@<TRIPOS>SUBSTRUCTURE
     1 UNK         1 GROUP             0       ****    0 ROOT    
