@<TRIPOS>MOLECULE
ZINC20751744_4489
64   69    1
SMALL
USER_CHARGES


@<TRIPOS>ATOM
      1 C1          1.0937   43.9639   17.2047 C.3       1 UNK         0.0000 
      2 C2          0.0088   44.7560   17.9113 C.ar      1 UNK         0.0000 
      3 C3         -0.3148   44.4856   19.2441 C.ar      1 UNK         0.0000 
      4 C4         -1.3196   45.2162   19.8828 C.ar      1 UNK         0.0000 
      5 C5         -2.0001   46.2172   19.1838 C.ar      1 UNK         0.0000 
      6 C6         -1.6828   46.5042   17.8495 C.ar      1 UNK         0.0000 
      7 C7         -0.6731   45.7652   17.2253 C.ar      1 UNK         0.0000 
      8 N8         -2.3316   47.4893   17.0877 N.pl3     1 UNK         0.0000 
      9 S9         -3.3325   48.8119   17.7248 S.o2      1 UNK         0.0000 
     10 O10        -3.8468   49.5230   16.5499 O.2       1 UNK         0.0000 
     11 O11        -4.2571   48.2635   18.7207 O.2       1 UNK         0.0000 
     12 C12        -2.1947   49.9193   18.5514 C.ar      1 UNK         0.0000 
     13 C13        -1.5945   50.9615   17.8429 C.ar      1 UNK         0.0000 
     14 C14        -0.7070   51.8217   18.4855 C.ar      1 UNK         0.0000 
     15 C15        -0.4139   51.6474   19.8379 C.ar      1 UNK         0.0000 
     16 C16        -0.9888   50.5782   20.5597 C.ar      1 UNK         0.0000 
     17 C17        -1.8942   49.7348   19.9029 C.ar      1 UNK         0.0000 
     18 C18        -0.6042   50.4261   22.0251 C.3       1 UNK         0.0000 
     19 H19        -1.1970   51.1627   22.5750 H         1 UNK         0.0000 
     20 C20        -0.7031   49.0958   22.7415 C.2       1 UNK         0.0000 
     21 C21         0.3041   48.9970   23.6329 C.2       1 UNK         0.0000 
     22 C22         1.2686   50.1674   23.5084 C.3       1 UNK         0.0000 
     23 C23         0.8849   50.7201   22.1355 C.3       1 UNK         0.0000 
     24 H24         1.4326   50.1142   21.4050 H         1 UNK         0.0000 
     25 C25         1.1458   52.2030   21.7486 C.3       1 UNK         0.0000 
     26 H26         0.5679   52.8479   22.4033 H         1 UNK         0.0000 
     27 N27         0.5496   52.4967   20.4305 N.pl3     1 UNK         0.0000 
     28 C28         2.6263   52.6215   21.8758 C.ar      1 UNK         0.0000 
     29 C29         3.0785   53.2968   23.0683 C.ar      1 UNK         0.0000 
     30 C30         2.2643   53.5126   24.2229 C.ar      1 UNK         0.0000 
     31 C31         2.7851   54.0922   25.3743 C.ar      1 UNK         0.0000 
     32 C32         4.1040   54.5192   25.4199 C.ar      1 UNK         0.0000 
     33 C33         4.9251   54.3695   24.3100 C.ar      1 UNK         0.0000 
     34 C34         4.4374   53.7460   23.1340 C.ar      1 UNK         0.0000 
     35 C35         5.2900   53.5395   22.0323 C.ar      1 UNK         0.0000 
     36 C36         4.8526   52.8295   20.9236 C.ar      1 UNK         0.0000 
     37 C37         3.5529   52.3516   20.8466 C.ar      1 UNK         0.0000 
     38 O38         3.2319   51.6018   19.7391 O.3       1 UNK         0.0000 
     39 C39        -1.6913   44.9257   21.3255 C.3       1 UNK         0.0000 
     40 H40         1.8196   44.6423   16.7483 H         1 UNK         0.0000 
     41 H41         0.6595   43.3643   16.4007 H         1 UNK         0.0000 
     42 H42         1.6329   43.2970   17.8832 H         1 UNK         0.0000 
     43 H43         0.2183   43.7142   19.7815 H         1 UNK         0.0000 
     44 H44        -2.7744   46.7552   19.7046 H         1 UNK         0.0000 
     45 H45        -0.4144   45.9689   16.1960 H         1 UNK         0.0000 
     46 H46        -2.0109   47.6131   16.1414 H         1 UNK         0.0000 
     47 H47        -1.8087   51.1041   16.7934 H         1 UNK         0.0000 
     48 H48        -0.2335   52.6142   17.9227 H         1 UNK         0.0000 
     49 H49        -2.3619   48.9292   20.4478 H         1 UNK         0.0000 
     50 H50        -1.5366   48.4178   22.6286 H         1 UNK         0.0000 
     51 H51         0.4563   48.2009   24.3486 H         1 UNK         0.0000 
     52 H52         2.3077   49.8401   23.5212 H         1 UNK         0.0000 
     53 H53         1.1410   50.8902   24.3153 H         1 UNK         0.0000 
     54 H54         0.8913   53.3450   19.9890 H         1 UNK         0.0000 
     55 H55         1.2368   53.1873   24.2566 H         1 UNK         0.0000 
     56 H56         2.1556   54.2088   26.2457 H         1 UNK         0.0000 
     57 H57         4.4913   54.9697   26.3217 H         1 UNK         0.0000 
     58 H58         5.9521   54.7001   24.3535 H         1 UNK         0.0000 
     59 H59         6.3046   53.9011   22.0820 H         1 UNK         0.0000 
     60 H60         5.5361   52.6405   20.1074 H         1 UNK         0.0000 
     61 H61         3.9829   51.3459   19.1832 H         1 UNK         0.0000 
     62 H62        -2.7756   44.8979   21.4426 H         1 UNK         0.0000 
     63 H63        -1.2956   43.9656   21.6581 H         1 UNK         0.0000 
     64 H64        -1.2960   45.7114   21.9722 H         1 UNK         0.0000 
@<TRIPOS>BOND
     1    1    2 1    
     2    1   40 1    
     3    1   41 1    
     4    1   42 1    
     5    2    7 ar   
     6    2    3 ar   
     7    3    4 ar   
     8    3   43 1    
     9    4    5 ar   
    10    4   39 1    
    11    5    6 ar   
    12    5   44 1    
    13    6    7 ar   
    14    6    8 1    
    15    7   45 1    
    16    8    9 1    
    17    8   46 1    
    18    9   10 2    
    19    9   11 2    
    20    9   12 1    
    21   12   17 ar   
    22   12   13 ar   
    23   13   14 ar   
    24   13   47 1    
    25   14   15 ar   
    26   14   48 1    
    27   15   27 1    
    28   15   16 ar   
    29   16   17 ar   
    30   16   18 1    
    31   17   49 1    
    32   18   19 1    
    33   18   23 1    
    34   18   20 1    
    35   20   21 2    
    36   20   50 1    
    37   21   22 1    
    38   21   51 1    
    39   22   23 1    
    40   22   52 1    
    41   22   53 1    
    42   23   24 1    
    43   23   25 1    
    44   25   26 1    
    45   25   27 1    
    46   25   28 1    
    47   27   54 1    
    48   28   37 ar   
    49   28   29 ar   
    50   29   34 ar   
    51   29   30 ar   
    52   30   31 ar   
    53   30   55 1    
    54   31   32 ar   
    55   31   56 1    
    56   32   33 ar   
    57   32   57 1    
    58   33   34 ar   
    59   33   58 1    
    60   34   35 ar   
    61   35   36 ar   
    62   35   59 1    
    63   36   37 ar   
    64   36   60 1    
    65   37   38 1    
    66   38   61 1    
    67   39   62 1    
    68   39   63 1    
    69   39   64 1    
@<TRIPOS>SUBSTRUCTURE
     1 UNK         1 GROUP             0       ****    0 ROOT    
