ZINC16675637_1309
                    3D
 Schrodinger Suite 2024-2.
 45 47  0  0  1  0            999 V2000
   -3.6951   50.4968   28.3039 C   0  0  0  0  0  0
   -3.5217   51.1896   26.9414 C   0  0  0  0  0  0
   -2.5286   51.0083   26.1499 N   0  0  0  0  0  0
   -1.5560   50.0991   26.4814 N   0  0  0  0  0  0
   -0.5931   49.7757   25.6004 C   0  0  0  0  0  0
    0.0617   48.6270   25.6821 N   0  3  0  0  0  0
   -0.1414   50.7743   24.2389 S   0  0  0  0  0  0
    0.1011   52.4589   24.8934 C   0  0  2  0  0  0
   -0.8747   52.8529   25.1799 H   0  0  0  0  0  0
    0.7616   53.3436   23.8775 C   0  0  0  0  0  0
    2.0549   53.7884   24.5194 C   0  0  0  0  0  0
    2.8819   54.4966   23.9457 O   0  0  0  0  0  0
    2.0980   53.3145   25.7986 N   0  0  0  0  0  0
    1.0420   52.4967   26.0912 C   0  0  0  0  0  0
    0.8399   51.8855   27.1418 O   0  0  0  0  0  0
    3.1027   53.6901   26.7380 C   0  0  0  0  0  0
    2.7470   54.0933   28.0380 C   0  0  0  0  0  0
    3.7226   54.4941   28.9509 C   0  0  0  0  0  0
    5.0672   54.4967   28.5814 C   0  0  0  0  0  0
    5.4385   54.1013   27.2974 C   0  0  0  0  0  0
    4.4646   53.7007   26.3828 C   0  0  0  0  0  0
    7.1036   54.1310   26.8385 Cl  0  0  0  0  0  0
   -4.6488   52.0706   26.5140 C   0  0  0  0  0  0
   -4.5242   52.9021   25.3845 C   0  0  0  0  0  0
   -5.5776   53.7055   24.9572 C   0  0  0  0  0  0
   -6.7812   53.6957   25.6535 C   0  0  0  0  0  0
   -6.9345   52.8872   26.7737 C   0  0  0  0  0  0
   -5.8810   52.0809   27.1952 C   0  0  0  0  0  0
   -8.0945   54.6809   25.1219 Cl  0  0  0  0  0  0
   -4.0801   51.1776   29.0625 H   0  0  0  0  0  0
   -4.3745   49.6489   28.2192 H   0  0  0  0  0  0
   -2.7703   50.0982   28.7112 H   0  0  0  0  0  0
   -1.6957   49.5051   27.3064 H   0  0  0  0  0  0
    0.8319   48.4308   25.0559 H   0  0  0  0  0  0
    0.9671   52.8587   22.9214 H   0  0  0  0  0  0
    0.1614   54.2307   23.6817 H   0  0  0  0  0  0
    1.7102   54.1137   28.3445 H   0  0  0  0  0  0
    3.4339   54.8162   29.9397 H   0  0  0  0  0  0
    5.8224   54.8229   29.2817 H   0  0  0  0  0  0
    4.7770   53.3970   25.3927 H   0  0  0  0  0  0
   -3.6039   52.9295   24.8173 H   0  0  0  0  0  0
   -5.4657   54.3284   24.0813 H   0  0  0  0  0  0
   -7.8740   52.8728   27.3072 H   0  0  0  0  0  0
   -6.0609   51.4518   28.0545 H   0  0  0  0  0  0
   -0.1233   47.9797   26.4456 H   0  0  0  0  0  0
  1  2  1  0  0  0
  1 30  1  0  0  0
  1 31  1  0  0  0
  1 32  1  0  0  0
  2  3  2  0  0  0
  2 23  1  0  0  0
  3  4  1  0  0  0
  4  5  1  0  0  0
  4 33  1  0  0  0
  5  6  2  0  0  0
  5  7  1  0  0  0
  6 34  1  0  0  0
  6 45  1  0  0  0
  7  8  1  0  0  0
  8  9  1  0  0  0
  8 14  1  0  0  0
  8 10  1  0  0  0
 10 11  1  0  0  0
 10 35  1  0  0  0
 10 36  1  0  0  0
 11 12  2  0  0  0
 11 13  1  0  0  0
 13 14  1  0  0  0
 13 16  1  0  0  0
 14 15  2  0  0  0
 16 21  2  0  0  0
 16 17  1  0  0  0
 17 18  2  0  0  0
 17 37  1  0  0  0
 18 19  1  0  0  0
 18 38  1  0  0  0
 19 20  2  0  0  0
 19 39  1  0  0  0
 20 21  1  0  0  0
 20 22  1  0  0  0
 21 40  1  0  0  0
 23 28  2  0  0  0
 23 24  1  0  0  0
 24 25  2  0  0  0
 24 41  1  0  0  0
 25 26  1  0  0  0
 25 42  1  0  0  0
 26 27  2  0  0  0
 26 29  1  0  0  0
 27 28  1  0  0  0
 27 43  1  0  0  0
 28 44  1  0  0  0
M  CHG  1   6   1
M  END
> <i_i_glide_confnum>
63

> <i_i_glide_lignum>
1310

> <i_i_glide_posenum>
255

> <i_i_glide_rotatable_bonds>
6

> <i_m_Source_File_Index>
4609

> <b_m_subgroup_collapsed>
0

> <r_i_docking_score>
-5.83594

> <r_i_glide_ecoul>
-7.09304

> <r_i_glide_eff_state_penalty>
0

> <r_i_glide_einternal>
10.2464

> <r_i_glide_emodel>
-54.9096

> <r_i_glide_energy>
-42.6056

> <r_i_glide_erotb>
0.523455

> <r_i_glide_esite>
-0.287852

> <r_i_glide_evdw>
-35.5125

> <r_i_glide_gscore>
-5.83594

> <r_i_glide_hbond>
-0.221985

> <r_i_glide_ligand_efficiency>
-0.208426

> <r_i_glide_ligand_efficiency_ln>
-1.34711

> <r_i_glide_ligand_efficiency_sa>
-0.632905

> <r_i_glide_lipo>
-1.90492

> <r_i_glide_metal>
0

> <r_i_glide_rewards>
-1.10506

> <s_i_glide_gridfile>
wee1_glide-grid

> <s_m_Source_File>
wee1_decoys_glide_SP.sdf

> <s_m_Source_Path>
/Users/zhangxujun/Desktop

> <s_m_entry_id>
4884

> <s_m_entry_name>
wee1_decoys_glide_SP.4609

> <s_m_subgroup_title>
wee1_decoys_glide_SP

> <s_m_subgroupid>
wee1_decoys_glide_SP


$$$$
