@<TRIPOS>MOLECULE
ZINC66160781_1355
57   59    1
SMALL
USER_CHARGES


@<TRIPOS>ATOM
      1 C1          7.5818   58.5179   18.4437 C.3       1 UNK         0.0000 
      2 C2          7.8781   57.2437   17.6307 C.3       1 UNK         0.0000 
      3 C3          8.5936   56.1164   18.4195 C.3       1 UNK         0.0000 
      4 H4          9.5728   56.5146   18.6954 H         1 UNK         0.0000 
      5 C5          8.8675   54.8776   17.5460 C.3       1 UNK         0.0000 
      6 N6          7.9596   55.7539   19.6927 N.am      1 UNK         0.0000 
      7 C7          6.6953   55.3253   19.8851 C.2       1 UNK         0.0000 
      8 O8          5.8894   55.1788   18.9655 O.2       1 UNK         0.0000 
      9 C9          6.3003   55.0296   21.3166 C.ar      1 UNK         0.0000 
     10 C10         5.1034   54.3493   21.5850 C.ar      1 UNK         0.0000 
     11 C11         4.7146   54.0851   22.8971 C.ar      1 UNK         0.0000 
     12 C12         5.5117   54.4968   23.9678 C.ar      1 UNK         0.0000 
     13 C13         6.7044   55.1782   23.7027 C.ar      1 UNK         0.0000 
     14 C14         7.1000   55.4319   22.3946 C.ar      1 UNK         0.0000 
     15 N15         5.0276   54.2232   25.2609 N.am      1 UNK         0.0000 
     16 C16         5.5853   54.4655   26.4730 C.2       1 UNK         0.0000 
     17 O17         6.7044   54.9585   26.6332 O.2       1 UNK         0.0000 
     18 N18         4.8134   54.0955   27.5280 N.am      1 UNK         0.0000 
     19 C19         5.3800   53.9562   28.8769 C.3       1 UNK         0.0000 
     20 C20         4.1497   53.6638   29.7277 C.3       1 UNK         0.0000 
     21 C21         3.2463   52.8765   28.8087 C.3       1 UNK         0.0000 
     22 H22         3.6144   51.8488   28.7313 H         1 UNK         0.0000 
     23 C23         3.4488   53.5385   27.4399 C.3       1 UNK         0.0000 
     24 N24         1.8266   52.6577   29.3538 N.4       1 UNK         0.0000 
     25 C25         1.0814   53.9274   29.7755 C.3       1 UNK         0.0000 
     26 C26        -0.3363   53.4335   29.9504 C.3       1 UNK         0.0000 
     27 C27        -0.5277   52.2467   28.9974 C.3       1 UNK         0.0000 
     28 C28         0.8484   51.9385   28.4101 C.3       1 UNK         0.0000 
     29 H29         7.1422   59.2916   17.8113 H         1 UNK         0.0000 
     30 H30         8.4910   58.9300   18.8807 H         1 UNK         0.0000 
     31 H31         6.8739   58.3236   19.2500 H         1 UNK         0.0000 
     32 H32         6.9393   56.8707   17.2192 H         1 UNK         0.0000 
     33 H33         8.4885   57.5207   16.7687 H         1 UNK         0.0000 
     34 H34         9.3097   55.1646   16.5918 H         1 UNK         0.0000 
     35 H35         9.5699   54.1962   18.0278 H         1 UNK         0.0000 
     36 H36         7.9512   54.3323   17.3122 H         1 UNK         0.0000 
     37 H37         8.5817   55.7242   20.4853 H         1 UNK         0.0000 
     38 H38         4.4625   54.0233   20.7763 H         1 UNK         0.0000 
     39 H39         3.7829   53.5662   23.0719 H         1 UNK         0.0000 
     40 H40         7.3600   55.5302   24.4813 H         1 UNK         0.0000 
     41 H41         8.0227   55.9724   22.2474 H         1 UNK         0.0000 
     42 H42         4.1207   53.7842   25.2773 H         1 UNK         0.0000 
     43 H43         6.0722   53.1126   28.8816 H         1 UNK         0.0000 
     44 H44         5.9047   54.8576   29.1983 H         1 UNK         0.0000 
     45 H45         4.3071   53.1456   30.6721 H         1 UNK         0.0000 
     46 H46         3.7029   54.6275   29.9755 H         1 UNK         0.0000 
     47 H47         2.7104   54.3301   27.3158 H         1 UNK         0.0000 
     48 H48         3.3371   52.7726   26.6727 H         1 UNK         0.0000 
     49 H49         1.5209   54.3370   30.6846 H         1 UNK         0.0000 
     50 H50         1.1950   54.6524   28.9672 H         1 UNK         0.0000 
     51 H51        -0.5020   53.1355   30.9886 H         1 UNK         0.0000 
     52 H52        -0.9838   54.2679   29.7214 H         1 UNK         0.0000 
     53 H53        -1.2330   52.4808   28.1969 H         1 UNK         0.0000 
     54 H54        -0.9279   51.3774   29.5251 H         1 UNK         0.0000 
     55 H55         0.9808   52.3777   27.4199 H         1 UNK         0.0000 
     56 H56         1.1241   50.8886   28.3671 H         1 UNK         0.0000 
     57 H57         1.9222   52.0947   30.1870 H         1 UNK         0.0000 
@<TRIPOS>BOND
     1    1    2 1    
     2    1   29 1    
     3    1   30 1    
     4    1   31 1    
     5    2    3 1    
     6    2   32 1    
     7    2   33 1    
     8    3    4 1    
     9    3    5 1    
    10    3    6 1    
    11    5   34 1    
    12    5   35 1    
    13    5   36 1    
    14    6    7 am   BACKBONE|DICT|INTERRES
    15    6   37 1    
    16    7    8 2    
    17    7    9 1    
    18    9   14 ar   
    19    9   10 ar   
    20   10   11 ar   
    21   10   38 1    
    22   11   12 ar   
    23   11   39 1    
    24   12   13 ar   
    25   12   15 1    
    26   13   14 ar   
    27   13   40 1    
    28   14   41 1    
    29   15   16 am   BACKBONE|DICT|INTERRES
    30   15   42 1    
    31   16   17 2    
    32   16   18 am   BACKBONE|DICT|INTERRES
    33   18   23 1    
    34   18   19 1    
    35   19   20 1    
    36   19   43 1    
    37   19   44 1    
    38   20   21 1    
    39   20   45 1    
    40   20   46 1    
    41   21   22 1    
    42   21   23 1    
    43   21   24 1    
    44   23   47 1    
    45   23   48 1    
    46   24   28 1    
    47   24   25 1    
    48   24   57 1    
    49   25   26 1    
    50   25   49 1    
    51   25   50 1    
    52   26   27 1    
    53   26   51 1    
    54   26   52 1    
    55   27   28 1    
    56   27   53 1    
    57   27   54 1    
    58   28   55 1    
    59   28   56 1    
@<TRIPOS>SUBSTRUCTURE
     1 UNK         1 GROUP             0       ****    0 ROOT    
