@<TRIPOS>MOLECULE
ZINC35403689_4134
65   68    1
SMALL
USER_CHARGES


@<TRIPOS>ATOM
      1 C1          9.0256   50.0958   11.2266 C.3       1 UNK         0.0000 
      2 C2          7.4947   49.8948   11.2445 C.3       1 UNK         0.0000 
      3 C3          7.0886   48.4451   11.5613 C.3       1 UNK         0.0000 
      4 C4          6.8022   50.8641   12.1981 C.ar      1 UNK         0.0000 
      5 C5          7.2493   50.9973   13.5138 C.ar      1 UNK         0.0000 
      6 C6          6.6178   51.8779   14.3823 C.ar      1 UNK         0.0000 
      7 C7          5.5188   52.6384   13.9482 C.ar      1 UNK         0.0000 
      8 C8          5.0757   52.4982   12.6253 C.ar      1 UNK         0.0000 
      9 C9          5.7111   51.6158   11.7583 C.ar      1 UNK         0.0000 
     10 C10         4.8301   53.6172   14.8710 C.2       1 UNK         0.0000 
     11 O11         4.1925   54.5609   14.3990 O.2       1 UNK         0.0000 
     12 N12         4.9471   53.3302   16.1917 N.am      1 UNK         0.0000 
     13 C13         4.7533   54.0728   17.3250 C.2       1 UNK         0.0000 
     14 S14         4.3045   55.6985   17.4041 S.2       1 UNK         0.0000 
     15 N15         4.9853   53.2967   18.4237 N.pl3     1 UNK         0.0000 
     16 C16         4.9369   53.6118   19.7857 C.ar      1 UNK         0.0000 
     17 C17         5.7469   54.6026   20.3488 C.ar      1 UNK         0.0000 
     18 C18         5.6945   54.8377   21.7221 C.ar      1 UNK         0.0000 
     19 C19         4.8256   54.0931   22.5368 C.ar      1 UNK         0.0000 
     20 C20         4.0290   53.1033   21.9448 C.ar      1 UNK         0.0000 
     21 C21         4.0861   52.8552   20.5811 C.ar      1 UNK         0.0000 
     22 N22         4.7624   54.2650   23.9181 N.pl3     1 UNK         0.0000 
     23 C23         3.4790   54.2541   24.6355 C.3       1 UNK         0.0000 
     24 C24         3.5178   53.6495   26.0466 C.3       1 UNK         0.0000 
     25 N25         4.6571   54.1954   26.8094 N.am      1 UNK         0.0000 
     26 C26         5.9730   54.2951   26.1504 C.3       1 UNK         0.0000 
     27 C27         5.8342   54.8658   24.7224 C.3       1 UNK         0.0000 
     28 C28         4.5693   54.4657   28.1417 C.2       1 UNK         0.0000 
     29 O29         5.5043   54.8966   28.8134 O.2       1 UNK         0.0000 
     30 C30         3.2758   54.1868   28.8517 C.ar      1 UNK         0.0000 
     31 C31         2.5282   55.2418   29.3870 C.ar      1 UNK         0.0000 
     32 C32         1.3532   54.9671   30.0810 C.ar      1 UNK         0.0000 
     33 C33         0.9354   53.6450   30.2284 C.ar      1 UNK         0.0000 
     34 C34         1.6684   52.5936   29.6859 C.ar      1 UNK         0.0000 
     35 C35         2.8460   52.8630   29.0015 C.ar      1 UNK         0.0000 
     36 Cl36       -0.4946   53.2962   31.1137 Cl        1 UNK         0.0000 
     37 H37         9.2853   51.1309   10.9916 H         1 UNK         0.0000 
     38 H38         9.5055   49.4680   10.4808 H         1 UNK         0.0000 
     39 H39         9.4891   49.8535   12.1846 H         1 UNK         0.0000 
     40 H40         7.1465   50.1184   10.2341 H         1 UNK         0.0000 
     41 H41         6.0029   48.3263   11.5565 H         1 UNK         0.0000 
     42 H42         7.4899   47.7453   10.8292 H         1 UNK         0.0000 
     43 H43         7.4421   48.1363   12.5481 H         1 UNK         0.0000 
     44 H44         8.0847   50.4152   13.8729 H         1 UNK         0.0000 
     45 H45         7.0064   51.9620   15.3886 H         1 UNK         0.0000 
     46 H46         4.2359   53.0736   12.2634 H         1 UNK         0.0000 
     47 H47         5.3507   51.5215   10.7446 H         1 UNK         0.0000 
     48 H48         5.3816   52.4358   16.3606 H         1 UNK         0.0000 
     49 H49         5.1035   52.3034   18.2515 H         1 UNK         0.0000 
     50 H50         6.4264   55.1723   19.7324 H         1 UNK         0.0000 
     51 H51         6.3291   55.6023   22.1458 H         1 UNK         0.0000 
     52 H52         3.3694   52.4933   22.5404 H         1 UNK         0.0000 
     53 H53         3.4707   52.0771   20.1508 H         1 UNK         0.0000 
     54 H54         3.2038   55.2994   24.7314 H         1 UNK         0.0000 
     55 H55         2.6770   53.8007   24.0547 H         1 UNK         0.0000 
     56 H56         2.5507   53.8745   26.4982 H         1 UNK         0.0000 
     57 H57         3.6240   52.5722   25.9506 H         1 UNK         0.0000 
     58 H58         6.3862   53.2916   26.0616 H         1 UNK         0.0000 
     59 H59         6.6832   54.9125   26.7007 H         1 UNK         0.0000 
     60 H60         6.7932   54.7980   24.2066 H         1 UNK         0.0000 
     61 H61         5.5851   55.9233   24.8024 H         1 UNK         0.0000 
     62 H62         2.8558   56.2683   29.2803 H         1 UNK         0.0000 
     63 H63         0.7759   55.7735   30.5116 H         1 UNK         0.0000 
     64 H64         1.3260   51.5761   29.7970 H         1 UNK         0.0000 
     65 H65         3.4254   52.0449   28.5934 H         1 UNK         0.0000 
@<TRIPOS>BOND
     1    1    2 1    
     2    1   37 1    
     3    1   38 1    
     4    1   39 1    
     5    2    3 1    
     6    2    4 1    
     7    2   40 1    
     8    3   41 1    
     9    3   42 1    
    10    3   43 1    
    11    4    9 ar   
    12    4    5 ar   
    13    5    6 ar   
    14    5   44 1    
    15    6    7 ar   
    16    6   45 1    
    17    7    8 ar   
    18    7   10 1    
    19    8    9 ar   
    20    8   46 1    
    21    9   47 1    
    22   10   11 2    
    23   10   12 am   BACKBONE|DICT|INTERRES
    24   12   13 am   BACKBONE|DICT|INTERRES
    25   12   48 1    
    26   13   14 2    
    27   13   15 1    
    28   15   16 1    
    29   15   49 1    
    30   16   21 ar   
    31   16   17 ar   
    32   17   18 ar   
    33   17   50 1    
    34   18   19 ar   
    35   18   51 1    
    36   19   20 ar   
    37   19   22 1    
    38   20   21 ar   
    39   20   52 1    
    40   21   53 1    
    41   22   27 1    
    42   22   23 1    
    43   23   24 1    
    44   23   54 1    
    45   23   55 1    
    46   24   25 1    
    47   24   56 1    
    48   24   57 1    
    49   25   26 1    
    50   25   28 am   BACKBONE|DICT|INTERRES
    51   26   27 1    
    52   26   58 1    
    53   26   59 1    
    54   27   60 1    
    55   27   61 1    
    56   28   29 2    
    57   28   30 1    
    58   30   35 ar   
    59   30   31 ar   
    60   31   32 ar   
    61   31   62 1    
    62   32   33 ar   
    63   32   63 1    
    64   33   34 ar   
    65   33   36 1    
    66   34   35 ar   
    67   34   64 1    
    68   35   65 1    
@<TRIPOS>SUBSTRUCTURE
     1 UNK         1 GROUP             0       ****    0 ROOT    
