@<TRIPOS>MOLECULE
ZINC20418921_5741
72   76    1
SMALL
USER_CHARGES


@<TRIPOS>ATOM
      1 C1          2.7595   54.1345   16.8818 C.3       1 UNK         0.0000 
      2 C2          4.0501   54.4309   17.6388 C.2       1 UNK         0.0000 
      3 C3          5.2191   54.9352   17.1530 C.2       1 UNK         0.0000 
      4 C4          6.4607   55.1187   18.0847 C.3       1 UNK         0.0000 
      5 H5          6.8536   56.1257   17.9165 H         1 UNK         0.0000 
      6 C6          6.0672   54.9862   19.5851 C.2       1 UNK         0.0000 
      7 C7          4.8303   54.5714   19.9492 C.2       1 UNK         0.0000 
      8 N8          3.9043   54.2326   18.9941 N.pl3     1 UNK         0.0000 
      9 C9          4.3717   54.4016   21.3951 C.3       1 UNK         0.0000 
     10 C10         5.5621   54.1360   22.3456 C.3       1 UNK         0.0000 
     11 H11         5.9116   53.1197   22.1622 H         1 UNK         0.0000 
     12 C12         6.7193   55.1385   22.0795 C.3       1 UNK         0.0000 
     13 C13         7.0453   55.4020   20.6044 C.2       1 UNK         0.0000 
     14 O14         8.0192   56.0960   20.3200 O.2       1 UNK         0.0000 
     15 C15         5.1757   54.1482   23.8406 C.ar      1 UNK         0.0000 
     16 C16         3.8364   54.0963   24.2498 C.ar      1 UNK         0.0000 
     17 C17         3.5043   54.1115   25.6001 C.ar      1 UNK         0.0000 
     18 C18         4.4910   54.2268   26.5886 C.ar      1 UNK         0.0000 
     19 C19         5.8298   54.2650   26.1757 C.ar      1 UNK         0.0000 
     20 C20         6.1692   54.2138   24.8261 C.ar      1 UNK         0.0000 
     21 N21         4.1379   54.3138   27.9612 N.pl3     1 UNK         0.0000 
     22 C22         5.1725   54.4358   28.9857 C.3       1 UNK         0.0000 
     23 C23         2.7670   54.0381   28.3963 C.3       1 UNK         0.0000 
     24 C24         7.6670   54.2439   17.6811 C.ar      1 UNK         0.0000 
     25 C25         7.4666   52.9177   17.2815 C.ar      1 UNK         0.0000 
     26 C26         8.5392   52.1282   16.8817 C.ar      1 UNK         0.0000 
     27 C27         9.8394   52.6481   16.8815 C.ar      1 UNK         0.0000 
     28 C28        10.0403   53.9754   17.2822 C.ar      1 UNK         0.0000 
     29 C29         8.9656   54.7643   17.6796 C.ar      1 UNK         0.0000 
     30 N30        10.9914   51.8002   16.4786 N.pl3     1 UNK         0.0000 
     31 O31        10.7738   50.6362   16.1464 O.co2     1 UNK         0.0000 
     32 O32        12.1150   52.2966   16.4853 O.co2     1 UNK         0.0000 
     33 C33         5.4224   55.2190   15.7046 C.2       1 UNK         0.0000 
     34 O34         4.6623   54.8375   14.8114 O.2       1 UNK         0.0000 
     35 O35         6.5437   55.9358   15.4526 O.3       1 UNK         0.0000 
     36 C36         6.9279   56.2726   14.1247 C.3       1 UNK         0.0000 
     37 C37         8.2671   57.0374   14.1224 C.3       1 UNK         0.0000 
     38 H38         8.1199   58.0246   14.5652 H         1 UNK         0.0000 
     39 C39         8.9928   57.0517   12.7783 C.3       1 UNK         0.0000 
     40 C40        10.4636   57.1442   13.1270 C.3       1 UNK         0.0000 
     41 C41        10.5308   56.6861   14.5832 C.3       1 UNK         0.0000 
     42 O42         9.1973   56.3124   14.9241 O.3       1 UNK         0.0000 
     43 H43         2.5719   54.8635   16.0932 H         1 UNK         0.0000 
     44 H44         2.8115   53.1408   16.4344 H         1 UNK         0.0000 
     45 H45         1.8838   54.1655   17.5299 H         1 UNK         0.0000 
     46 H46         2.9643   54.0575   19.3192 H         1 UNK         0.0000 
     47 H47         3.8167   55.2966   21.6816 H         1 UNK         0.0000 
     48 H48         3.7185   53.5304   21.4713 H         1 UNK         0.0000 
     49 H49         6.4462   56.0972   22.5162 H         1 UNK         0.0000 
     50 H50         7.6468   54.8188   22.5478 H         1 UNK         0.0000 
     51 H51         3.0264   54.0316   23.5409 H         1 UNK         0.0000 
     52 H52         2.4574   54.0775   25.8546 H         1 UNK         0.0000 
     53 H53         6.6337   54.3276   26.8923 H         1 UNK         0.0000 
     54 H54         7.2140   54.2349   24.5592 H         1 UNK         0.0000 
     55 H55         5.8010   53.5452   28.9777 H         1 UNK         0.0000 
     56 H56         5.8145   55.2962   28.7877 H         1 UNK         0.0000 
     57 H57         4.7499   54.5492   29.9848 H         1 UNK         0.0000 
     58 H58         2.0682   54.7418   27.9420 H         1 UNK         0.0000 
     59 H59         2.4701   53.0339   28.0900 H         1 UNK         0.0000 
     60 H60         2.6514   54.1024   29.4777 H         1 UNK         0.0000 
     61 H61         6.4723   52.4913   17.2878 H         1 UNK         0.0000 
     62 H62         8.3513   51.1071   16.5863 H         1 UNK         0.0000 
     63 H63        11.0328   54.4031   17.3009 H         1 UNK         0.0000 
     64 H64         9.1497   55.7849   17.9757 H         1 UNK         0.0000 
     65 H65         6.1488   56.9310   13.7354 H         1 UNK         0.0000 
     66 H66         6.9661   55.3925   13.4801 H         1 UNK         0.0000 
     67 H67         8.6287   57.8454   12.1254 H         1 UNK         0.0000 
     68 H68         8.7918   56.1240   12.2373 H         1 UNK         0.0000 
     69 H69        10.8230   58.1682   13.0324 H         1 UNK         0.0000 
     70 H70        11.0687   56.5162   12.4743 H         1 UNK         0.0000 
     71 H71        10.8638   57.4883   15.2448 H         1 UNK         0.0000 
     72 H72        11.2034   55.8383   14.7260 H         1 UNK         0.0000 
@<TRIPOS>BOND
     1    1    2 1    
     2    1   43 1    
     3    1   44 1    
     4    1   45 1    
     5    2    8 1    
     6    2    3 2    
     7    3    4 1    
     8    3   33 1    
     9    4    5 1    
    10    4    6 1    
    11    4   24 1    
    12    6   13 1    
    13    6    7 2    
    14    7    8 1    
    15    7    9 1    
    16    8   46 1    
    17    9   10 1    
    18    9   47 1    
    19    9   48 1    
    20   10   11 1    
    21   10   12 1    
    22   10   15 1    
    23   12   13 1    
    24   12   49 1    
    25   12   50 1    
    26   13   14 2    
    27   15   20 ar   
    28   15   16 ar   
    29   16   17 ar   
    30   16   51 1    
    31   17   18 ar   
    32   17   52 1    
    33   18   19 ar   
    34   18   21 1    
    35   19   20 ar   
    36   19   53 1    
    37   20   54 1    
    38   21   22 1    
    39   21   23 1    
    40   22   55 1    
    41   22   56 1    
    42   22   57 1    
    43   23   58 1    
    44   23   59 1    
    45   23   60 1    
    46   24   29 ar   
    47   24   25 ar   
    48   25   26 ar   
    49   25   61 1    
    50   26   27 ar   
    51   26   62 1    
    52   27   28 ar   
    53   27   30 1    
    54   28   29 ar   
    55   28   63 1    
    56   29   64 1    
    57   30   31 2    
    58   30   32 1    
    59   33   34 2    
    60   33   35 1    
    61   35   36 1    
    62   36   37 1    
    63   36   65 1    
    64   36   66 1    
    65   37   38 1    
    66   37   42 1    
    67   37   39 1    
    68   39   40 1    
    69   39   67 1    
    70   39   68 1    
    71   40   41 1    
    72   40   69 1    
    73   40   70 1    
    74   41   42 1    
    75   41   71 1    
    76   41   72 1    
@<TRIPOS>SUBSTRUCTURE
     1 UNK         1 GROUP             0       ****    0 ROOT    
