@<TRIPOS>MOLECULE
ZINC35987364_4038
68   72    1
SMALL
USER_CHARGES


@<TRIPOS>ATOM
      1 C1         -2.6491   49.2188   23.2035 C.3       1 UNK         0.0000 
      2 C2         -3.1834   50.4006   24.0078 C.ar      1 UNK         0.0000 
      3 C3         -4.2849   50.1917   24.8454 C.ar      1 UNK         0.0000 
      4 C4         -4.8084   51.2352   25.6070 C.ar      1 UNK         0.0000 
      5 C5         -4.2358   52.5017   25.5359 C.ar      1 UNK         0.0000 
      6 C6         -3.1378   52.7192   24.7072 C.ar      1 UNK         0.0000 
      7 C7         -2.5937   51.6820   23.9444 C.ar      1 UNK         0.0000 
      8 C8         -1.3832   51.9519   23.0840 C.2       1 UNK         0.0000 
      9 O9         -1.5426   52.0270   21.8640 O.2       1 UNK         0.0000 
     10 N10        -0.1594   52.0191   23.6888 N.am      1 UNK         0.0000 
     11 C11         0.0623   52.1579   25.1412 C.3       1 UNK         0.0000 
     12 H12        -0.5948   52.9105   25.5652 H         1 UNK         0.0000 
     13 C13         1.5077   52.6496   25.1996 C.3       1 UNK         0.0000 
     14 O14         2.0611   52.0457   24.0582 O.3       1 UNK         0.0000 
     15 C15         1.1324   51.9743   23.0234 C.3       1 UNK         0.0000 
     16 C16         1.3999   53.1671   22.0808 C.3       1 UNK         0.0000 
     17 C17         2.8324   53.0566   21.4870 C.3       1 UNK         0.0000 
     18 N18         2.9138   51.7770   20.7420 N.am      1 UNK         0.0000 
     19 C19         2.7547   50.6075   21.6337 C.3       1 UNK         0.0000 
     20 C20         1.3379   50.6560   22.2495 C.3       1 UNK         0.0000 
     21 C21         2.4633   51.6862   19.4545 C.2       1 UNK         0.0000 
     22 O22         1.8187   50.7169   19.0434 O.2       1 UNK         0.0000 
     23 C23         2.7816   52.7746   18.5494 C.2       1 UNK         0.0000 
     24 C24         3.8842   53.6388   18.5643 C.2       1 UNK         0.0000 
     25 C25         3.9035   54.5299   17.4875 C.2       1 UNK         0.0000 
     26 C26         2.8607   54.3124   16.6006 C.2       1 UNK         0.0000 
     27 S27         1.8565   52.9855   17.0864 S.3       1 UNK         0.0000 
     28 C28        -0.0945   50.8401   25.9492 C.2       1 UNK         0.0000 
     29 O29         0.0047   49.7498   25.3913 O.2       1 UNK         0.0000 
     30 N30        -0.4231   50.8969   27.2513 N.am      1 UNK         0.0000 
     31 C31        -0.4874   52.0594   28.1450 C.3       1 UNK         0.0000 
     32 H32        -1.1100   52.8098   27.6552 H         1 UNK         0.0000 
     33 C33        -1.2234   51.6759   29.4337 C.3       1 UNK         0.0000 
     34 C34         0.8669   52.6946   28.4910 C.ar      1 UNK         0.0000 
     35 C35         1.0062   54.0873   28.4798 C.ar      1 UNK         0.0000 
     36 C36         2.2291   54.6766   28.7899 C.ar      1 UNK         0.0000 
     37 C37         3.3187   53.8721   29.1152 C.ar      1 UNK         0.0000 
     38 C38         3.1933   52.4849   29.1328 C.ar      1 UNK         0.0000 
     39 C39         1.9695   51.8967   28.8197 C.ar      1 UNK         0.0000 
     40 H40        -3.1064   48.2753   23.5022 H         1 UNK         0.0000 
     41 H41        -2.8231   49.3747   22.1385 H         1 UNK         0.0000 
     42 H42        -1.5740   49.1132   23.3459 H         1 UNK         0.0000 
     43 H43        -4.7412   49.2148   24.9134 H         1 UNK         0.0000 
     44 H44        -5.6576   51.0583   26.2505 H         1 UNK         0.0000 
     45 H45        -4.6413   53.3120   26.1229 H         1 UNK         0.0000 
     46 H46        -2.6990   53.6967   24.6587 H         1 UNK         0.0000 
     47 H47         1.6242   53.7339   25.1791 H         1 UNK         0.0000 
     48 H48         2.0548   52.2748   26.0637 H         1 UNK         0.0000 
     49 H49         0.6647   53.2004   21.2781 H         1 UNK         0.0000 
     50 H50         1.3179   54.0959   22.6450 H         1 UNK         0.0000 
     51 H51         3.1072   53.9304   20.9004 H         1 UNK         0.0000 
     52 H52         3.5782   53.0389   22.2837 H         1 UNK         0.0000 
     53 H53         2.9802   49.6751   21.1111 H         1 UNK         0.0000 
     54 H54         3.4985   50.6534   22.4291 H         1 UNK         0.0000 
     55 H55         1.2117   49.8186   22.9383 H         1 UNK         0.0000 
     56 H56         0.5814   50.5543   21.4698 H         1 UNK         0.0000 
     57 H57         4.6473   53.6260   19.3279 H         1 UNK         0.0000 
     58 H58         4.6630   55.2856   17.3496 H         1 UNK         0.0000 
     59 H59         2.6539   54.8415   15.6822 H         1 UNK         0.0000 
     60 H60        -0.6302   49.9968   27.6791 H         1 UNK         0.0000 
     61 H61        -1.2946   52.5287   30.1051 H         1 UNK         0.0000 
     62 H62        -2.2305   51.3075   29.2323 H         1 UNK         0.0000 
     63 H63        -0.6955   50.8974   29.9800 H         1 UNK         0.0000 
     64 H64         0.1712   54.7187   28.2214 H         1 UNK         0.0000 
     65 H65         2.3326   55.7523   28.7744 H         1 UNK         0.0000 
     66 H66         4.2717   54.3262   29.3459 H         1 UNK         0.0000 
     67 H67         4.0468   51.8686   29.3756 H         1 UNK         0.0000 
     68 H68         1.8782   50.8210   28.8268 H         1 UNK         0.0000 
@<TRIPOS>BOND
     1    1    2 1    
     2    1   40 1    
     3    1   41 1    
     4    1   42 1    
     5    2    7 ar   
     6    2    3 ar   
     7    3    4 ar   
     8    3   43 1    
     9    4    5 ar   
    10    4   44 1    
    11    5    6 ar   
    12    5   45 1    
    13    6    7 ar   
    14    6   46 1    
    15    7    8 1    
    16    8    9 2    
    17    8   10 am   BACKBONE|DICT|INTERRES
    18   10   15 1    
    19   10   11 1    
    20   11   12 1    
    21   11   13 1    
    22   11   28 1    
    23   13   14 1    
    24   13   47 1    
    25   13   48 1    
    26   14   15 1    
    27   15   20 1    
    28   15   16 1    
    29   16   17 1    
    30   16   49 1    
    31   16   50 1    
    32   17   18 1    
    33   17   51 1    
    34   17   52 1    
    35   18   19 1    
    36   18   21 am   BACKBONE|DICT|INTERRES
    37   19   20 1    
    38   19   53 1    
    39   19   54 1    
    40   20   55 1    
    41   20   56 1    
    42   21   22 2    
    43   21   23 1    
    44   23   27 1    
    45   23   24 2    
    46   24   25 1    
    47   24   57 1    
    48   25   26 2    
    49   25   58 1    
    50   26   27 1    
    51   26   59 1    
    52   28   29 2    
    53   28   30 am   BACKBONE|DICT|INTERRES
    54   30   31 1    
    55   30   60 1    
    56   31   32 1    
    57   31   33 1    
    58   31   34 1    
    59   33   61 1    
    60   33   62 1    
    61   33   63 1    
    62   34   39 ar   
    63   34   35 ar   
    64   35   36 ar   
    65   35   64 1    
    66   36   37 ar   
    67   36   65 1    
    68   37   38 ar   
    69   37   66 1    
    70   38   39 ar   
    71   38   67 1    
    72   39   68 1    
@<TRIPOS>SUBSTRUCTURE
     1 UNK         1 GROUP             0       ****    0 ROOT    
