@<TRIPOS>MOLECULE
ZINC13369739_2245
63   66    1
SMALL
USER_CHARGES


@<TRIPOS>ATOM
      1 C1          3.9571   53.0446   19.4799 C.3       1 UNK         0.0000 
      2 C2          4.4421   52.7927   20.8998 C.2       1 UNK         0.0000 
      3 O3          4.6734   51.6481   21.2793 O.2       1 UNK         0.0000 
      4 N4          4.5931   53.8771   21.6784 N.am      1 UNK         0.0000 
      5 C5          5.0458   53.8907   23.0796 C.3       1 UNK         0.0000 
      6 H6          5.4561   52.8978   23.2785 H         1 UNK         0.0000 
      7 C7          3.9063   54.1298   24.1079 C.3       1 UNK         0.0000 
      8 H8          3.5314   55.1470   23.9941 H         1 UNK         0.0000 
      9 C9          4.4586   53.9412   25.5293 C.3       1 UNK         0.0000 
     10 H10         4.7279   52.8968   25.6684 H         1 UNK         0.0000 
     11 C11         5.7026   54.8140   25.7385 C.3       1 UNK         0.0000 
     12 H12         5.3843   55.8570   25.6821 H         1 UNK         0.0000 
     13 C13         6.1957   54.5484   27.1762 C.3       1 UNK         0.0000 
     14 O14         5.1253   54.7508   28.1177 O.3       1 UNK         0.0000 
     15 C15         3.9907   53.9735   27.7948 C.3       1 UNK         0.0000 
     16 H16         4.2708   52.9171   27.8517 H         1 UNK         0.0000 
     17 O17         3.5038   54.3086   26.5204 O.3       1 UNK         0.0000 
     18 C18         2.8527   54.2101   28.8008 C.ar      1 UNK         0.0000 
     19 C19         2.5315   55.5017   29.2236 C.ar      1 UNK         0.0000 
     20 C20         1.4582   55.7130   30.0819 C.ar      1 UNK         0.0000 
     21 C21         0.7049   54.6247   30.5206 C.ar      1 UNK         0.0000 
     22 C22         1.0179   53.3301   30.1103 C.ar      1 UNK         0.0000 
     23 C23         2.0916   53.1241   29.2469 C.ar      1 UNK         0.0000 
     24 O24         6.6949   54.5296   24.7307 O.3       1 UNK         0.0000 
     25 C25         6.2329   54.8341   23.4249 C.3       1 UNK         0.0000 
     26 H26         5.9908   55.8801   23.5268 H         1 UNK         0.0000 
     27 O27         7.2659   54.6824   22.4818 O.3       1 UNK         0.0000 
     28 C28         7.3448   55.4697   21.3344 C.ar      1 UNK         0.0000 
     29 C29         8.5453   55.4432   20.6311 C.ar      1 UNK         0.0000 
     30 C30         8.7008   56.0974   19.4149 C.ar      1 UNK         0.0000 
     31 C31         7.6520   56.8587   18.8820 C.ar      1 UNK         0.0000 
     32 C32         6.4472   56.9093   19.5946 C.ar      1 UNK         0.0000 
     33 C33         6.3046   56.2341   20.8022 C.ar      1 UNK         0.0000 
     34 C34         7.8540   57.6169   17.5457 C.3       1 UNK         0.0000 
     35 C35         9.1004   58.5320   17.6395 C.3       1 UNK         0.0000 
     36 C36         6.6531   58.5238   17.1663 C.3       1 UNK         0.0000 
     37 C37         8.0538   56.5936   16.4020 C.3       1 UNK         0.0000 
     38 O38         2.7871   53.2947   23.8700 O.3       1 UNK         0.0000 
     39 H39         4.3328   53.9942   19.0956 H         1 UNK         0.0000 
     40 H40         4.3039   52.2510   18.8167 H         1 UNK         0.0000 
     41 H41         2.8659   53.0663   19.4499 H         1 UNK         0.0000 
     42 H42         4.3957   54.7720   21.2560 H         1 UNK         0.0000 
     43 H43         6.5963   53.5397   27.2907 H         1 UNK         0.0000 
     44 H44         7.0136   55.2257   27.4237 H         1 UNK         0.0000 
     45 H45         3.1046   56.3477   28.8842 H         1 UNK         0.0000 
     46 H46         1.2132   56.7142   30.4087 H         1 UNK         0.0000 
     47 H47        -0.1212   54.7842   31.1947 H         1 UNK         0.0000 
     48 H48         0.4258   52.4944   30.4549 H         1 UNK         0.0000 
     49 H49         2.3171   52.1233   28.9108 H         1 UNK         0.0000 
     50 H50         9.3783   54.8968   21.0310 H         1 UNK         0.0000 
     51 H51         9.6489   56.0243   18.9041 H         1 UNK         0.0000 
     52 H52         5.5997   57.4679   19.2296 H         1 UNK         0.0000 
     53 H53         5.3521   56.2868   21.2817 H         1 UNK         0.0000 
     54 H54         9.2384   59.1161   16.7277 H         1 UNK         0.0000 
     55 H55        10.0222   57.9690   17.7900 H         1 UNK         0.0000 
     56 H56         9.0117   59.2380   18.4666 H         1 UNK         0.0000 
     57 H57         5.7329   57.9532   17.0273 H         1 UNK         0.0000 
     58 H58         6.4613   59.2901   17.9218 H         1 UNK         0.0000 
     59 H59         6.8302   59.0565   16.2307 H         1 UNK         0.0000 
     60 H60         7.1862   55.9395   16.2970 H         1 UNK         0.0000 
     61 H61         8.2044   57.0875   15.4406 H         1 UNK         0.0000 
     62 H62         8.9221   55.9537   16.5698 H         1 UNK         0.0000 
     63 H63         2.5760   53.3390   22.9334 H         1 UNK         0.0000 
@<TRIPOS>BOND
     1    1    2 1    
     2    1   39 1    
     3    1   40 1    
     4    1   41 1    
     5    2    3 2    
     6    2    4 am   BACKBONE|DICT|INTERRES
     7    4    5 1    
     8    4   42 1    
     9    5    6 1    
    10    5   25 1    
    11    5    7 1    
    12    7    8 1    
    13    7    9 1    
    14    7   38 1    
    15    9   10 1    
    16    9   17 1    
    17    9   11 1    
    18   11   12 1    
    19   11   13 1    
    20   11   24 1    
    21   13   14 1    
    22   13   43 1    
    23   13   44 1    
    24   14   15 1    
    25   15   16 1    
    26   15   17 1    
    27   15   18 1    
    28   18   23 ar   
    29   18   19 ar   
    30   19   20 ar   
    31   19   45 1    
    32   20   21 ar   
    33   20   46 1    
    34   21   22 ar   
    35   21   47 1    
    36   22   23 ar   
    37   22   48 1    
    38   23   49 1    
    39   24   25 1    
    40   25   26 1    
    41   25   27 1    
    42   27   28 1    
    43   28   33 ar   
    44   28   29 ar   
    45   29   30 ar   
    46   29   50 1    
    47   30   31 ar   
    48   30   51 1    
    49   31   32 ar   
    50   31   34 1    
    51   32   33 ar   
    52   32   52 1    
    53   33   53 1    
    54   34   35 1    
    55   34   36 1    
    56   34   37 1    
    57   35   54 1    
    58   35   55 1    
    59   35   56 1    
    60   36   57 1    
    61   36   58 1    
    62   36   59 1    
    63   37   60 1    
    64   37   61 1    
    65   37   62 1    
    66   38   63 1    
@<TRIPOS>SUBSTRUCTURE
     1 UNK         1 GROUP             0       ****    0 ROOT    
