@<TRIPOS>MOLECULE
ZINC44164431_5254
83   87    1
SMALL
USER_CHARGES


@<TRIPOS>ATOM
      1 C1         -3.8643   50.6095   27.6227 C.3       1 UNK         0.0000 
      2 C2         -2.4017   51.0665   27.7807 C.3       1 UNK         0.0000 
      3 C3         -1.4924   50.9832   26.5411 C.ar      1 UNK         0.0000 
      4 C4         -1.9167   50.2464   25.4341 C.ar      1 UNK         0.0000 
      5 C5         -1.2123   50.1865   24.2257 C.ar      1 UNK         0.0000 
      6 C6          0.0023   50.9137   24.1275 C.ar      1 UNK         0.0000 
      7 C7          0.4622   51.5891   25.2728 C.ar      1 UNK         0.0000 
      8 C8         -0.2425   51.6316   26.4873 C.ar      1 UNK         0.0000 
      9 C9          0.2992   52.4223   27.7043 C.3       1 UNK         0.0000 
     10 H10        -0.4858   53.1302   27.9736 H         1 UNK         0.0000 
     11 C11         0.7455   51.5596   28.9121 C.3       1 UNK         0.0000 
     12 S12         1.3005   52.4965   30.3842 S.3       1 UNK         0.0000 
     13 C13         1.1942   54.1979   29.7329 C.3       1 UNK         0.0000 
     14 C14         1.9138   54.4041   28.3675 C.3       1 UNK         0.0000 
     15 H15         1.6464   55.3677   27.9326 H         1 UNK         0.0000 
     16 N16         1.5156   53.3050   27.3422 N.4       1 UNK         0.0000 
     17 C17         3.4755   54.3856   28.4648 C.2       1 UNK         0.0000 
     18 O18         3.9702   54.1960   29.5786 O.2       1 UNK         0.0000 
     19 N19         4.2650   54.4921   27.3551 N.am      1 UNK         0.0000 
     20 C20         3.7583   55.0404   26.0862 C.3       1 UNK         0.0000 
     21 C21         4.4898   54.4042   24.8973 C.3       1 UNK         0.0000 
     22 N22         5.9394   54.5790   25.0013 N.3       1 UNK         0.0000 
     23 C23         6.4269   53.9662   26.2455 C.3       1 UNK         0.0000 
     24 C24         5.7367   54.5007   27.5251 C.3       1 UNK         0.0000 
     25 C25         6.6296   53.9509   23.8637 C.3       1 UNK         0.0000 
     26 C26         6.3044   54.5158   22.4830 C.ar      1 UNK         0.0000 
     27 C27         7.0854   55.5385   21.9373 C.ar      1 UNK         0.0000 
     28 C28         6.8370   55.9846   20.6411 C.ar      1 UNK         0.0000 
     29 C29         5.7891   55.4334   19.9083 C.ar      1 UNK         0.0000 
     30 C30         4.9728   54.4519   20.4650 C.ar      1 UNK         0.0000 
     31 C31         5.2277   53.9964   21.7546 C.ar      1 UNK         0.0000 
     32 C32         0.7780   51.0381   22.7875 C.3       1 UNK         0.0000 
     33 C33         0.4205   49.8615   21.8434 C.3       1 UNK         0.0000 
     34 C34        -1.0876   49.6353   21.7322 C.3       1 UNK         0.0000 
     35 C35        -1.7476   49.2764   23.0881 C.3       1 UNK         0.0000 
     36 C36        -1.3874   47.8146   23.4564 C.3       1 UNK         0.0000 
     37 C37        -3.2745   49.4698   22.8790 C.3       1 UNK         0.0000 
     38 C38         0.3798   52.3777   22.1231 C.3       1 UNK         0.0000 
     39 C39         2.3044   50.9517   23.0021 C.3       1 UNK         0.0000 
     40 H40        -4.4261   50.8154   28.5349 H         1 UNK         0.0000 
     41 H41        -4.3644   51.1252   26.8022 H         1 UNK         0.0000 
     42 H42        -3.9284   49.5334   27.4532 H         1 UNK         0.0000 
     43 H43        -1.9756   50.4989   28.6006 H         1 UNK         0.0000 
     44 H44        -2.4327   52.0965   28.1086 H         1 UNK         0.0000 
     45 H45        -2.8286   49.6803   25.5119 H         1 UNK         0.0000 
     46 H46         1.3943   52.1203   25.1862 H         1 UNK         0.0000 
     47 H47         1.5644   50.8978   28.6258 H         1 UNK         0.0000 
     48 H48        -0.0411   50.9049   29.2782 H         1 UNK         0.0000 
     49 H49         1.5911   54.8711   30.4930 H         1 UNK         0.0000 
     50 H50         0.1356   54.4502   29.6594 H         1 UNK         0.0000 
     51 H51         1.3186   53.7390   26.4505 H         1 UNK         0.0000 
     52 H52         3.9951   56.0967   26.0518 H         1 UNK         0.0000 
     53 H53         2.7012   54.8966   25.9176 H         1 UNK         0.0000 
     54 H54         4.1197   54.8874   23.9917 H         1 UNK         0.0000 
     55 H55         4.2535   53.3390   24.8589 H         1 UNK         0.0000 
     56 H56         6.2165   52.8972   26.1994 H         1 UNK         0.0000 
     57 H57         7.5027   54.1141   26.3425 H         1 UNK         0.0000 
     58 H58         6.0724   53.8863   28.3631 H         1 UNK         0.0000 
     59 H59         6.0773   55.5289   27.6556 H         1 UNK         0.0000 
     60 H60         6.3764   52.8968   23.8325 H         1 UNK         0.0000 
     61 H61         7.7074   54.0227   24.0173 H         1 UNK         0.0000 
     62 H62         7.9046   55.9599   22.4992 H         1 UNK         0.0000 
     63 H63         7.4601   56.7407   20.1887 H         1 UNK         0.0000 
     64 H64         5.6018   55.7783   18.9018 H         1 UNK         0.0000 
     65 H65         4.1540   54.0380   19.8932 H         1 UNK         0.0000 
     66 H66         4.6087   53.2164   22.1722 H         1 UNK         0.0000 
     67 H67         0.8348   50.0353   20.8482 H         1 UNK         0.0000 
     68 H68         0.8914   48.9409   22.1911 H         1 UNK         0.0000 
     69 H69        -1.5457   50.5297   21.3083 H         1 UNK         0.0000 
     70 H70        -1.2823   48.8516   20.9981 H         1 UNK         0.0000 
     71 H71        -1.6427   47.1183   22.6554 H         1 UNK         0.0000 
     72 H72        -0.3243   47.6949   23.6743 H         1 UNK         0.0000 
     73 H73        -1.9290   47.4900   24.3462 H         1 UNK         0.0000 
     74 H74        -3.6268   48.9418   21.9905 H         1 UNK         0.0000 
     75 H75        -3.8625   49.0803   23.7089 H         1 UNK         0.0000 
     76 H76        -3.5336   50.5234   22.7576 H         1 UNK         0.0000 
     77 H77         0.8242   52.4840   21.1335 H         1 UNK         0.0000 
     78 H78        -0.6972   52.4785   22.0096 H         1 UNK         0.0000 
     79 H79         0.7177   53.2274   22.7150 H         1 UNK         0.0000 
     80 H80         2.8383   50.8547   22.0547 H         1 UNK         0.0000 
     81 H81         2.7026   51.8519   23.4728 H         1 UNK         0.0000 
     82 H82         2.5771   50.0915   23.6167 H         1 UNK         0.0000 
     83 H83         2.3012   52.6871   27.1878 H         1 UNK         0.0000 
@<TRIPOS>BOND
     1    1    2 1    
     2    1   40 1    
     3    1   41 1    
     4    1   42 1    
     5    2    3 1    
     6    2   43 1    
     7    2   44 1    
     8    3    8 ar   
     9    3    4 ar   
    10    4    5 ar   
    11    4   45 1    
    12    5   35 1    
    13    5    6 ar   
    14    6    7 ar   
    15    6   32 1    
    16    7    8 ar   
    17    7   46 1    
    18    8    9 1    
    19    9   10 1    
    20    9   16 1    
    21    9   11 1    
    22   11   12 1    
    23   11   47 1    
    24   11   48 1    
    25   12   13 1    
    26   13   14 1    
    27   13   49 1    
    28   13   50 1    
    29   14   15 1    
    30   14   16 1    
    31   14   17 1    
    32   16   51 1    
    33   16   83 1    
    34   17   18 2    
    35   17   19 am   BACKBONE|DICT|INTERRES
    36   19   24 1    
    37   19   20 1    
    38   20   21 1    
    39   20   52 1    
    40   20   53 1    
    41   21   22 1    
    42   21   54 1    
    43   21   55 1    
    44   22   23 1    
    45   22   25 1    
    46   23   24 1    
    47   23   56 1    
    48   23   57 1    
    49   24   58 1    
    50   24   59 1    
    51   25   26 1    
    52   25   60 1    
    53   25   61 1    
    54   26   31 ar   
    55   26   27 ar   
    56   27   28 ar   
    57   27   62 1    
    58   28   29 ar   
    59   28   63 1    
    60   29   30 ar   
    61   29   64 1    
    62   30   31 ar   
    63   30   65 1    
    64   31   66 1    
    65   32   33 1    
    66   32   38 1    
    67   32   39 1    
    68   33   34 1    
    69   33   67 1    
    70   33   68 1    
    71   34   35 1    
    72   34   69 1    
    73   34   70 1    
    74   35   36 1    
    75   35   37 1    
    76   36   71 1    
    77   36   72 1    
    78   36   73 1    
    79   37   74 1    
    80   37   75 1    
    81   37   76 1    
    82   38   77 1    
    83   38   78 1    
    84   38   79 1    
    85   39   80 1    
    86   39   81 1    
    87   39   82 1    
@<TRIPOS>SUBSTRUCTURE
     1 UNK         1 GROUP             0       ****    0 ROOT    
