@<TRIPOS>MOLECULE
ZINC39609212_3662
68   71    1
SMALL
USER_CHARGES


@<TRIPOS>ATOM
      1 C1          4.4265   53.4168   28.7065 C.3       1 UNK         0.0000 
      2 C2          4.8167   53.8554   27.3071 C.ar      1 UNK         0.0000 
      3 C3          6.1639   54.0903   27.0179 C.ar      1 UNK         0.0000 
      4 C4          6.5561   54.4297   25.7271 C.ar      1 UNK         0.0000 
      5 C5          5.6188   54.5391   24.7014 C.ar      1 UNK         0.0000 
      6 C6          4.2630   54.3433   25.0007 C.ar      1 UNK         0.0000 
      7 C7          3.8574   53.9944   26.2924 C.ar      1 UNK         0.0000 
      8 C8          2.3773   53.7539   26.5589 C.3       1 UNK         0.0000 
      9 C9          6.1236   54.8959   23.3043 C.3       1 UNK         0.0000 
     10 C10         5.2187   54.4957   22.1132 C.3       1 UNK         0.0000 
     11 N11         5.5044   55.0561   20.7891 N.am      1 UNK         0.0000 
     12 C12         6.5597   55.7743   20.3560 C.2       1 UNK         0.0000 
     13 O13         7.4976   56.0959   21.0812 O.2       1 UNK         0.0000 
     14 C14         6.5675   56.3034   18.8944 C.3       1 UNK         0.0000 
     15 H15         6.5440   57.3933   18.9608 H         1 UNK         0.0000 
     16 C16         5.2780   55.8980   18.1442 C.3       1 UNK         0.0000 
     17 N17         5.6821   55.9619   16.7399 N.am      1 UNK         0.0000 
     18 C18         7.1345   56.0273   16.5790 C.3       1 UNK         0.0000 
     19 C19         7.7283   55.7899   17.9942 C.3       1 UNK         0.0000 
     20 C20         9.0593   56.5411   18.2518 C.3       1 UNK         0.0000 
     21 C21        10.1466   56.1335   17.2414 C.3       1 UNK         0.0000 
     22 N22        10.4011   54.6172   17.3939 N.4       1 UNK         0.0000 
     23 C23         9.1324   53.7431   17.2616 C.3       1 UNK         0.0000 
     24 C24         8.0609   54.2804   18.2296 C.3       1 UNK         0.0000 
     25 C25         4.8258   56.1087   15.7004 C.2       1 UNK         0.0000 
     26 O26         5.2024   56.2400   14.5337 O.2       1 UNK         0.0000 
     27 C27         3.3493   56.1152   16.0025 C.ar      1 UNK         0.0000 
     28 C28         2.6140   57.2948   15.8411 C.ar      1 UNK         0.0000 
     29 C29         1.2481   57.3180   16.1158 C.ar      1 UNK         0.0000 
     30 C30         0.5870   56.1668   16.5578 C.ar      1 UNK         0.0000 
     31 C31         1.3221   54.9795   16.7000 C.ar      1 UNK         0.0000 
     32 C32         2.6873   54.9492   16.4173 C.ar      1 UNK         0.0000 
     33 F33         3.3571   53.7804   16.5646 F         1 UNK         0.0000 
     34 C34        -0.9010   56.2286   16.9034 C.3       1 UNK         0.0000 
     35 F35        -1.6090   56.3300   15.7801 F         1 UNK         0.0000 
     36 F36        -1.3151   55.1434   17.5626 F         1 UNK         0.0000 
     37 F37        -1.1608   57.2936   17.6661 F         1 UNK         0.0000 
     38 H38         3.8849   54.2122   29.2239 H         1 UNK         0.0000 
     39 H39         3.7862   52.5327   28.6630 H         1 UNK         0.0000 
     40 H40         5.3117   53.1382   29.2815 H         1 UNK         0.0000 
     41 H41         6.9130   53.9915   27.7912 H         1 UNK         0.0000 
     42 H42         7.6000   54.5859   25.5077 H         1 UNK         0.0000 
     43 H43         3.5035   54.4472   24.2408 H         1 UNK         0.0000 
     44 H44         1.7572   53.9728   25.6857 H         1 UNK         0.0000 
     45 H45         2.2113   52.7131   26.8425 H         1 UNK         0.0000 
     46 H46         2.0325   54.3860   27.3796 H         1 UNK         0.0000 
     47 H47         6.3069   55.9686   23.3075 H         1 UNK         0.0000 
     48 H48         7.1005   54.4365   23.1518 H         1 UNK         0.0000 
     49 H49         5.1119   53.4096   22.0706 H         1 UNK         0.0000 
     50 H50         4.2028   54.8342   22.3127 H         1 UNK         0.0000 
     51 H51         4.7836   54.8792   20.1076 H         1 UNK         0.0000 
     52 H52         5.0419   54.8481   18.3294 H         1 UNK         0.0000 
     53 H53         4.4547   56.5687   18.4028 H         1 UNK         0.0000 
     54 H54         7.3561   57.0580   16.2972 H         1 UNK         0.0000 
     55 H55         7.5526   55.4033   15.7911 H         1 UNK         0.0000 
     56 H56         8.8906   57.6134   18.1370 H         1 UNK         0.0000 
     57 H57         9.4060   56.4120   19.2785 H         1 UNK         0.0000 
     58 H58         9.8625   56.3109   16.2013 H         1 UNK         0.0000 
     59 H59        11.0996   56.6205   17.4448 H         1 UNK         0.0000 
     60 H60        11.0931   54.3167   16.7217 H         1 UNK         0.0000 
     61 H61         8.8306   53.7662   16.2137 H         1 UNK         0.0000 
     62 H62         9.4385   52.7272   17.5137 H         1 UNK         0.0000 
     63 H63         8.3774   54.0968   19.2572 H         1 UNK         0.0000 
     64 H64         7.1598   53.6769   18.0927 H         1 UNK         0.0000 
     65 H65         3.0994   58.2077   15.5176 H         1 UNK         0.0000 
     66 H66         0.7054   58.2477   16.0058 H         1 UNK         0.0000 
     67 H67         0.8410   54.0733   17.0357 H         1 UNK         0.0000 
     68 H68        10.8077   54.4620   18.3068 H         1 UNK         0.0000 
@<TRIPOS>BOND
     1    1    2 1    
     2    1   38 1    
     3    1   39 1    
     4    1   40 1    
     5    2    7 ar   
     6    2    3 ar   
     7    3    4 ar   
     8    3   41 1    
     9    4    5 ar   
    10    4   42 1    
    11    5    6 ar   
    12    5    9 1    
    13    6    7 ar   
    14    6   43 1    
    15    7    8 1    
    16    8   44 1    
    17    8   45 1    
    18    8   46 1    
    19    9   10 1    
    20    9   47 1    
    21    9   48 1    
    22   10   11 1    
    23   10   49 1    
    24   10   50 1    
    25   11   12 am   BACKBONE|DICT|INTERRES
    26   11   51 1    
    27   12   13 2    
    28   12   14 1    
    29   14   15 1    
    30   14   19 1    
    31   14   16 1    
    32   16   17 1    
    33   16   52 1    
    34   16   53 1    
    35   17   18 1    
    36   17   25 am   BACKBONE|DICT|INTERRES
    37   18   19 1    
    38   18   54 1    
    39   18   55 1    
    40   19   24 1    
    41   19   20 1    
    42   20   21 1    
    43   20   56 1    
    44   20   57 1    
    45   21   22 1    
    46   21   58 1    
    47   21   59 1    
    48   22   23 1    
    49   22   60 1    
    50   22   68 1    
    51   23   24 1    
    52   23   61 1    
    53   23   62 1    
    54   24   63 1    
    55   24   64 1    
    56   25   26 2    
    57   25   27 1    
    58   27   32 ar   
    59   27   28 ar   
    60   28   29 ar   
    61   28   65 1    
    62   29   30 ar   
    63   29   66 1    
    64   30   31 ar   
    65   30   34 1    
    66   31   32 ar   
    67   31   67 1    
    68   32   33 1    
    69   34   35 1    
    70   34   36 1    
    71   34   37 1    
@<TRIPOS>SUBSTRUCTURE
     1 UNK         1 GROUP             0       ****    0 ROOT    
