ZINC09265884_2415
                    3D
 Schrodinger Suite 2024-2.
 53 56  0  0  1  0            999 V2000
    4.2208   51.4284   21.1104 C   0  0  0  0  0  0
    3.5166   52.7854   20.9353 C   0  0  1  0  0  0
    3.1071   52.8528   19.9262 H   0  0  0  0  0  0
    2.3172   52.8967   21.9199 C   0  0  0  0  0  0
    1.1868   52.4812   21.6796 O   0  0  0  0  0  0
    2.6190   53.3857   23.1395 N   0  0  0  0  0  0
    3.8517   53.7757   23.6726 C   0  0  0  0  0  0
    4.0050   53.7892   25.0594 C   0  0  0  0  0  0
    5.2425   54.0920   25.6351 C   0  0  0  0  0  0
    6.3218   54.4260   24.8107 C   0  0  0  0  0  0
    6.1704   54.4352   23.4225 C   0  0  0  0  0  0
    4.9409   54.0968   22.8532 C   0  0  0  0  0  0
    4.7043   54.1736   21.1062 S   0  0  0  0  0  0
    5.4888   53.9825   27.4132 S   0  0  0  0  0  0
    5.9048   55.2968   27.8349 O   0  0  0  0  0  0
    6.4213   52.8966   27.6816 O   0  0  0  0  0  0
    3.9176   53.6520   28.1756 N   0  0  0  0  0  0
    3.7272   52.4140   28.9732 C   0  0  0  0  0  0
    2.9278   52.6282   30.2693 C   0  0  0  0  0  0
    1.6588   53.5104   30.1595 C   0  0  0  0  0  0
    2.0464   54.8307   29.4425 C   0  0  0  0  0  0
    2.8578   54.7015   28.1396 C   0  0  0  0  0  0
    0.5298   52.7712   29.3926 C   0  0  0  0  0  0
   -0.4969   52.5061   30.0096 O   0  0  0  0  0  0
    0.7302   52.4761   28.0900 N   0  0  0  0  0  0
   -0.1345   51.8912   27.1476 C   0  0  0  0  0  0
   -1.3718   51.3008   27.4545 C   0  0  0  0  0  0
   -2.1675   50.7848   26.4344 C   0  0  0  0  0  0
   -1.7294   50.8423   25.1133 C   0  0  0  0  0  0
   -0.4936   51.4040   24.8022 C   0  0  0  0  0  0
    0.3034   51.9212   25.8196 C   0  0  0  0  0  0
   -2.7214   50.2034   23.8522 Cl  0  0  0  0  0  0
    3.5247   50.5930   21.0135 H   0  0  0  0  0  0
    4.9773   51.2974   20.3357 H   0  0  0  0  0  0
    4.7277   51.3407   22.0716 H   0  0  0  0  0  0
    1.8233   53.3495   23.7570 H   0  0  0  0  0  0
    3.1774   53.4957   25.6801 H   0  0  0  0  0  0
    7.2853   54.6589   25.2404 H   0  0  0  0  0  0
    7.0066   54.7044   22.7928 H   0  0  0  0  0  0
    4.6998   51.9682   29.1843 H   0  0  0  0  0  0
    3.2103   51.6967   28.3388 H   0  0  0  0  0  0
    3.5869   53.0674   31.0175 H   0  0  0  0  0  0
    2.6869   51.6966   30.7769 H   0  0  0  0  0  0
    1.2220   53.7248   31.1385 H   0  0  0  0  0  0
    1.1707   55.4717   29.3229 H   0  0  0  0  0  0
    2.6101   55.4377   30.1509 H   0  0  0  0  0  0
    3.3056   55.6565   27.8760 H   0  0  0  0  0  0
    2.1799   54.4692   27.3212 H   0  0  0  0  0  0
    1.6263   52.7536   27.7253 H   0  0  0  0  0  0
   -1.7306   51.2069   28.4666 H   0  0  0  0  0  0
   -3.1096   50.3163   26.6778 H   0  0  0  0  0  0
   -0.1551   51.4303   23.7777 H   0  0  0  0  0  0
    1.2578   52.3530   25.5638 H   0  0  0  0  0  0
  1  2  1  0  0  0
  1 33  1  0  0  0
  1 34  1  0  0  0
  1 35  1  0  0  0
  2  3  1  0  0  0
  2 13  1  0  0  0
  2  4  1  0  0  0
  4  5  2  0  0  0
  4  6  1  0  0  0
  6  7  1  0  0  0
  6 36  1  0  0  0
  7 12  2  0  0  0
  7  8  1  0  0  0
  8  9  2  0  0  0
  8 37  1  0  0  0
  9 10  1  0  0  0
  9 14  1  0  0  0
 10 11  2  0  0  0
 10 38  1  0  0  0
 11 12  1  0  0  0
 11 39  1  0  0  0
 12 13  1  0  0  0
 14 15  2  0  0  0
 14 16  2  0  0  0
 14 17  1  0  0  0
 17 22  1  0  0  0
 17 18  1  0  0  0
 18 19  1  0  0  0
 18 40  1  0  0  0
 18 41  1  0  0  0
 19 20  1  0  0  0
 19 42  1  0  0  0
 19 43  1  0  0  0
 20 21  1  0  0  0
 20 23  1  0  0  0
 20 44  1  0  0  0
 21 22  1  0  0  0
 21 45  1  0  0  0
 21 46  1  0  0  0
 22 47  1  0  0  0
 22 48  1  0  0  0
 23 24  2  0  0  0
 23 25  1  0  0  0
 25 26  1  0  0  0
 25 49  1  0  0  0
 26 31  2  0  0  0
 26 27  1  0  0  0
 27 28  2  0  0  0
 27 50  1  0  0  0
 28 29  1  0  0  0
 28 51  1  0  0  0
 29 30  2  0  0  0
 29 32  1  0  0  0
 30 31  1  0  0  0
 30 52  1  0  0  0
 31 53  1  0  0  0
M  END
> <i_i_glide_confnum>
179

> <i_i_glide_lignum>
2416

> <i_i_glide_posenum>
398

> <i_i_glide_rotatable_bonds>
5

> <i_m_Source_File_Index>
2514

> <b_m_subgroup_collapsed>
0

> <r_i_docking_score>
-2.91223

> <r_i_glide_ecoul>
2.77755

> <r_i_glide_eff_state_penalty>
0

> <r_i_glide_einternal>
10.713

> <r_i_glide_emodel>
-41.6419

> <r_i_glide_energy>
-45.0411

> <r_i_glide_erotb>
0.440011

> <r_i_glide_esite>
0

> <r_i_glide_evdw>
-47.8186

> <r_i_glide_gscore>
-2.91223

> <r_i_glide_hbond>
0

> <r_i_glide_ligand_efficiency>
-0.093943

> <r_i_glide_ligand_efficiency_ln>
-0.656798

> <r_i_glide_ligand_efficiency_sa>
-0.295111

> <r_i_glide_lipo>
-2.56382

> <r_i_glide_metal>
0

> <r_i_glide_rewards>
1.18587

> <s_i_glide_gridfile>
wee1_glide-grid

> <s_m_Source_File>
wee1_decoys_glide_SP.sdf

> <s_m_Source_Path>
/Users/zhangxujun/Desktop

> <s_m_entry_id>
2789

> <s_m_entry_name>
wee1_decoys_glide_SP.2514

> <s_m_subgroup_title>
wee1_decoys_glide_SP

> <s_m_subgroupid>
wee1_decoys_glide_SP


$$$$
