@<TRIPOS>MOLECULE
ZINC65265899_1313
66   70    1
SMALL
USER_CHARGES


@<TRIPOS>ATOM
      1 C1          6.5317   54.0975   28.1234 C.3       1 UNK         0.0000 
      2 O2          6.7040   54.4076   26.7435 O.3       1 UNK         0.0000 
      3 C3          5.6164   54.3053   25.8981 C.ar      1 UNK         0.0000 
      4 C4          5.8831   54.3994   24.5348 C.ar      1 UNK         0.0000 
      5 C5          4.8769   54.2639   23.5611 C.ar      1 UNK         0.0000 
      6 C6          3.5592   54.0962   24.0182 C.ar      1 UNK         0.0000 
      7 C7          3.2607   53.9689   25.3744 C.ar      1 UNK         0.0000 
      8 C8          4.2954   54.0932   26.3143 C.ar      1 UNK         0.0000 
      9 O9          1.9431   53.6963   25.6849 O.3       1 UNK         0.0000 
     10 C10         1.6135   53.3006   27.0124 C.3       1 UNK         0.0000 
     11 C11         5.2771   54.3236   22.0900 C.2       1 UNK         0.0000 
     12 O12         6.3372   54.8980   21.8138 O.2       1 UNK         0.0000 
     13 N13         4.5568   53.7090   21.1089 N.am      1 UNK         0.0000 
     14 C14         5.1463   53.5370   19.7798 C.3       1 UNK         0.0000 
     15 C15         3.9886   53.0417   18.9353 C.3       1 UNK         0.0000 
     16 C16         3.0572   52.2600   19.8709 C.3       1 UNK         0.0000 
     17 C17         3.2544   53.0281   21.2039 C.3       1 UNK         0.0000 
     18 C18         1.6122   52.2899   19.3495 C.2       1 UNK         0.0000 
     19 N19         0.5871   51.9940   20.1651 N.pl3     1 UNK         0.0000 
     20 C20         0.6280   51.4081   21.4519 C.ar      1 UNK         0.0000 
     21 C21        -0.3163   51.7834   22.4130 C.ar      1 UNK         0.0000 
     22 C22        -0.2473   51.2609   23.7029 C.ar      1 UNK         0.0000 
     23 C23         0.7646   50.3646   24.0307 C.ar      1 UNK         0.0000 
     24 C24         1.6817   49.9651   23.0589 C.ar      1 UNK         0.0000 
     25 C25         1.5987   50.4368   21.7462 C.ar      1 UNK         0.0000 
     26 C26         2.5456   49.9429   20.6483 C.3       1 UNK         0.0000 
     27 N27         3.5048   50.8853   20.0815 N.3       1 UNK         0.0000 
     28 N28         1.3387   52.5983   18.0755 N.pl3     1 UNK         0.0000 
     29 C29         0.0206   52.6994   17.4252 C.3       1 UNK         0.0000 
     30 C30        -0.3517   54.1958   17.2979 C.3       1 UNK         0.0000 
     31 C31        -0.5412   54.4656   15.7979 C.3       1 UNK         0.0000 
     32 C32         0.3237   53.4128   15.1037 C.3       1 UNK         0.0000 
     33 C33         0.1607   52.1703   15.9850 C.3       1 UNK         0.0000 
     34 H34         7.5033   54.0965   28.6131 H         1 UNK         0.0000 
     35 H35         5.9048   54.8405   28.6225 H         1 UNK         0.0000 
     36 H36         6.0956   53.1085   28.2708 H         1 UNK         0.0000 
     37 H37         6.9128   54.5449   24.2358 H         1 UNK         0.0000 
     38 H38         2.7192   54.0581   23.3476 H         1 UNK         0.0000 
     39 H39         4.0772   54.0125   27.3650 H         1 UNK         0.0000 
     40 H40         0.5834   52.9413   27.0383 H         1 UNK         0.0000 
     41 H41         1.6946   54.1424   27.7042 H         1 UNK         0.0000 
     42 H42         2.2447   52.4800   27.3635 H         1 UNK         0.0000 
     43 H43         5.5773   54.4581   19.3804 H         1 UNK         0.0000 
     44 H44         5.9049   52.7544   19.8217 H         1 UNK         0.0000 
     45 H45         3.4750   53.9320   18.5743 H         1 UNK         0.0000 
     46 H46         4.3192   52.4957   18.0503 H         1 UNK         0.0000 
     47 H47         3.2498   52.3330   22.0443 H         1 UNK         0.0000 
     48 H48         2.4376   53.7328   21.2844 H         1 UNK         0.0000 
     49 H49        -1.0911   52.4968   22.1725 H         1 UNK         0.0000 
     50 H50        -0.9666   51.5610   24.4508 H         1 UNK         0.0000 
     51 H51         0.8360   49.9692   25.0345 H         1 UNK         0.0000 
     52 H52         2.4782   49.2966   23.3289 H         1 UNK         0.0000 
     53 H53         3.0937   49.0812   21.0279 H         1 UNK         0.0000 
     54 H54         1.9306   49.5528   19.8346 H         1 UNK         0.0000 
     55 H55         3.9604   50.5068   19.2362 H         1 UNK         0.0000 
     56 H56         2.1378   52.7849   17.4853 H         1 UNK         0.0000 
     57 H57        -0.7505   52.1313   17.9471 H         1 UNK         0.0000 
     58 H58        -1.2602   54.4296   17.8556 H         1 UNK         0.0000 
     59 H59         0.4325   54.8558   17.6855 H         1 UNK         0.0000 
     60 H60        -1.5897   54.3272   15.5206 H         1 UNK         0.0000 
     61 H61        -0.2559   55.4829   15.5218 H         1 UNK         0.0000 
     62 H62         0.0120   53.2346   14.0733 H         1 UNK         0.0000 
     63 H63         1.3687   53.7315   15.0834 H         1 UNK         0.0000 
     64 H64         0.9712   51.4483   15.8445 H         1 UNK         0.0000 
     65 H65        -0.7592   51.6565   15.7005 H         1 UNK         0.0000 
     66 H66        -0.3383   52.2390   19.8486 H         1 UNK         0.0000 
@<TRIPOS>BOND
     1    1    2 1    
     2    1   34 1    
     3    1   35 1    
     4    1   36 1    
     5    2    3 1    
     6    3    8 ar   
     7    3    4 ar   
     8    4    5 ar   
     9    4   37 1    
    10    5    6 ar   
    11    5   11 1    
    12    6    7 ar   
    13    6   38 1    
    14    7    8 ar   
    15    7    9 1    
    16    8   39 1    
    17    9   10 1    
    18   10   40 1    
    19   10   41 1    
    20   10   42 1    
    21   11   12 2    
    22   11   13 am   BACKBONE|DICT|INTERRES
    23   13   17 1    
    24   13   14 1    
    25   14   15 1    
    26   14   43 1    
    27   14   44 1    
    28   15   16 1    
    29   15   45 1    
    30   15   46 1    
    31   16   27 1    
    32   16   17 1    
    33   16   18 1    
    34   17   47 1    
    35   17   48 1    
    36   18   19 1    
    37   18   28 2    
    38   19   20 1    
    39   19   66 1    
    40   20   25 ar   
    41   20   21 ar   
    42   21   22 ar   
    43   21   49 1    
    44   22   23 ar   
    45   22   50 1    
    46   23   24 ar   
    47   23   51 1    
    48   24   25 ar   
    49   24   52 1    
    50   25   26 1    
    51   26   27 1    
    52   26   53 1    
    53   26   54 1    
    54   27   55 1    
    55   28   29 1    
    56   28   56 1    
    57   29   33 1    
    58   29   30 1    
    59   29   57 1    
    60   30   31 1    
    61   30   58 1    
    62   30   59 1    
    63   31   32 1    
    64   31   60 1    
    65   31   61 1    
    66   32   33 1    
    67   32   62 1    
    68   32   63 1    
    69   33   64 1    
    70   33   65 1    
@<TRIPOS>SUBSTRUCTURE
     1 UNK         1 GROUP             0       ****    0 ROOT    
