ZINC06108909_5837
                    3D
 Schrodinger Suite 2024-2.
 52 55  0  0  1  0            999 V2000
    1.6992   56.1562   29.3052 C   0  0  0  0  0  0
    0.8089   54.9061   29.4106 C   0  0  0  0  0  0
    1.5480   53.6089   29.7893 C   0  0  1  0  0  0
    1.9864   53.7914   30.7694 H   0  0  0  0  0  0
    0.5829   52.4197   30.0286 C   0  0  0  0  0  0
    0.1090   51.7107   28.7522 C   0  0  0  0  0  0
    1.3052   51.3460   27.8674 C   0  0  0  0  0  0
    2.1589   52.5933   27.5564 C   0  0  0  0  0  0
    2.6121   53.1844   28.8355 N   0  0  0  0  0  0
    3.9033   53.5550   29.0788 C   0  0  0  0  0  0
    4.2046   54.2024   30.0817 O   0  0  0  0  0  0
    5.0678   53.1359   28.1660 C   0  0  0  0  0  0
    5.9192   54.5018   27.3170 S   0  0  0  0  0  0
    5.4263   54.5008   25.6213 C   0  0  0  0  0  0
    4.2037   53.9987   25.3258 N   0  0  0  0  0  0
    3.8921   53.8384   24.0161 C   0  0  0  0  0  0
    4.8056   54.1809   22.9909 C   0  0  0  0  0  0
    4.7717   54.0593   21.5614 C   0  0  0  0  0  0
    5.9047   54.6188   20.9772 C   0  0  0  0  0  0
    7.0356   55.2968   22.1225 S   0  0  0  0  0  0
    6.0214   54.7740   23.4509 C   0  0  0  0  0  0
    6.3508   54.9504   24.7356 N   0  0  0  0  0  0
    6.1769   54.6635   19.4809 C   0  0  0  0  0  0
    5.3505   53.5610   18.7909 C   0  0  0  0  0  0
    3.8791   53.6216   19.2279 C   0  0  0  0  0  0
    3.6911   53.3575   20.7406 C   0  0  0  0  0  0
    2.6303   53.3075   23.7469 N   0  0  0  0  0  0
    1.1044   57.0434   29.0915 H   0  0  0  0  0  0
    2.4307   56.0576   28.5034 H   0  0  0  0  0  0
    2.2411   56.3405   30.2327 H   0  0  0  0  0  0
    0.0399   55.0900   30.1608 H   0  0  0  0  0  0
    0.3016   54.7641   28.4572 H   0  0  0  0  0  0
    1.1151   51.6970   30.6448 H   0  0  0  0  0  0
   -0.2708   52.7263   30.6351 H   0  0  0  0  0  0
   -0.4696   50.8225   29.0031 H   0  0  0  0  0  0
   -0.5684   52.3644   28.2017 H   0  0  0  0  0  0
    1.9051   50.5559   28.3268 H   0  0  0  0  0  0
    0.9388   50.9191   26.9334 H   0  0  0  0  0  0
    2.9492   52.3332   26.8642 H   0  0  0  0  0  0
    1.5365   53.3366   27.0572 H   0  0  0  0  0  0
    5.8086   52.6808   28.8182 H   0  0  0  0  0  0
    4.8299   52.3589   27.4564 H   0  0  0  0  0  0
    5.8985   55.6399   19.0820 H   0  0  0  0  0  0
    7.2381   54.5337   19.2643 H   0  0  0  0  0  0
    5.4245   53.6633   17.7079 H   0  0  0  0  0  0
    5.7628   52.5776   19.0264 H   0  0  0  0  0  0
    3.4817   54.6059   18.9755 H   0  0  0  0  0  0
    3.2889   52.9046   18.6548 H   0  0  0  0  0  0
    3.7236   52.2839   20.9316 H   0  0  0  0  0  0
    2.7044   53.6965   21.0387 H   0  0  0  0  0  0
    2.3430   53.1656   22.7883 H   0  0  0  0  0  0
    2.0187   53.0758   24.5149 H   0  0  0  0  0  0
  1  2  1  0  0  0
  1 28  1  0  0  0
  1 29  1  0  0  0
  1 30  1  0  0  0
  2  3  1  0  0  0
  2 31  1  0  0  0
  2 32  1  0  0  0
  3  4  1  0  0  0
  3  9  1  0  0  0
  3  5  1  0  0  0
  5  6  1  0  0  0
  5 33  1  0  0  0
  5 34  1  0  0  0
  6  7  1  0  0  0
  6 35  1  0  0  0
  6 36  1  0  0  0
  7  8  1  0  0  0
  7 37  1  0  0  0
  7 38  1  0  0  0
  8  9  1  0  0  0
  8 39  1  0  0  0
  8 40  1  0  0  0
  9 10  1  0  0  0
 10 11  2  0  0  0
 10 12  1  0  0  0
 12 13  1  0  0  0
 12 41  1  0  0  0
 12 42  1  0  0  0
 13 14  1  0  0  0
 14 22  2  0  0  0
 14 15  1  0  0  0
 15 16  2  0  0  0
 16 17  1  0  0  0
 16 27  1  0  0  0
 17 21  2  0  0  0
 17 18  1  0  0  0
 18 26  1  0  0  0
 18 19  2  0  0  0
 19 20  1  0  0  0
 19 23  1  0  0  0
 20 21  1  0  0  0
 21 22  1  0  0  0
 23 24  1  0  0  0
 23 43  1  0  0  0
 23 44  1  0  0  0
 24 25  1  0  0  0
 24 45  1  0  0  0
 24 46  1  0  0  0
 25 26  1  0  0  0
 25 47  1  0  0  0
 25 48  1  0  0  0
 26 49  1  0  0  0
 26 50  1  0  0  0
 27 51  1  0  0  0
 27 52  1  0  0  0
M  END
> <i_i_glide_confnum>
64

> <i_i_glide_lignum>
5838

> <i_i_glide_posenum>
142

> <i_i_glide_rotatable_bonds>
5

> <i_m_Source_File_Index>
212

> <b_m_subgroup_collapsed>
0

> <r_i_docking_score>
-6.80093

> <r_i_glide_ecoul>
-3.27286

> <r_i_glide_eff_state_penalty>
0

> <r_i_glide_einternal>
6.42943

> <r_i_glide_emodel>
-61.5429

> <r_i_glide_energy>
-45.6673

> <r_i_glide_erotb>
0.511482

> <r_i_glide_esite>
0

> <r_i_glide_evdw>
-42.3944

> <r_i_glide_gscore>
-6.80093

> <r_i_glide_hbond>
-0.274421

> <r_i_glide_ligand_efficiency>
-0.261574

> <r_i_glide_ligand_efficiency_ln>
-1.59718

> <r_i_glide_ligand_efficiency_sa>
-0.774912

> <r_i_glide_lipo>
-2.66078

> <r_i_glide_metal>
0

> <r_i_glide_rewards>
-1.76656

> <s_i_glide_gridfile>
wee1_glide-grid

> <s_m_Source_File>
wee1_decoys_glide_SP.sdf

> <s_m_Source_Path>
/Users/zhangxujun/Desktop

> <s_m_entry_id>
487

> <s_m_entry_name>
wee1_decoys_glide_SP.212

> <s_m_subgroup_title>
wee1_decoys_glide_SP

> <s_m_subgroupid>
wee1_decoys_glide_SP


$$$$
