@<TRIPOS>MOLECULE
ZINC59776178_2836
66   69    1
SMALL
USER_CHARGES


@<TRIPOS>ATOM
      1 C1          7.1019   55.5758   24.4710 C.3       1 UNK         0.0000 
      2 C2          6.2401   54.9113   25.5309 C.ar      1 UNK         0.0000 
      3 C3          6.6085   54.9635   26.8804 C.ar      1 UNK         0.0000 
      4 C4          5.8106   54.3860   27.8621 C.ar      1 UNK         0.0000 
      5 C5          4.6111   53.7619   27.5128 C.ar      1 UNK         0.0000 
      6 C6          4.2587   53.6961   26.1578 C.ar      1 UNK         0.0000 
      7 C7          5.0646   54.2446   25.1623 C.ar      1 UNK         0.0000 
      8 N8          4.7972   54.1046   23.7916 N.am      1 UNK         0.0000 
      9 C9          3.6961   53.6969   23.1293 C.2       1 UNK         0.0000 
     10 O10         2.6187   53.3946   23.6464 O.2       1 UNK         0.0000 
     11 C11         3.9087   53.5962   21.6399 C.ar      1 UNK         0.0000 
     12 C12         3.2810   52.5913   20.9011 C.ar      1 UNK         0.0000 
     13 C13         3.5039   52.4814   19.5306 C.ar      1 UNK         0.0000 
     14 C14         4.3410   53.3829   18.8647 C.ar      1 UNK         0.0000 
     15 C15         4.9730   54.4108   19.5898 C.ar      1 UNK         0.0000 
     16 C16         4.7506   54.4966   20.9720 C.ar      1 UNK         0.0000 
     17 N17         5.7772   55.3276   18.8796 N.am      1 UNK         0.0000 
     18 C18         6.5135   56.3792   19.3100 C.2       1 UNK         0.0000 
     19 O19         6.7022   56.7224   20.4803 O.2       1 UNK         0.0000 
     20 C20         7.0532   57.1421   18.2231 C.2       1 UNK         0.0000 
     21 C21         7.4722   56.7808   16.9410 C.2       1 UNK         0.0000 
     22 C22         7.9543   57.9400   16.3333 C.2       1 UNK         0.0000 
     23 C23         7.8573   58.9440   17.2838 C.2       1 UNK         0.0000 
     24 O24         7.3502   58.4503   18.4415 O.3       1 UNK         0.0000 
     25 C25         4.5467   53.2085   17.3624 C.3       1 UNK         0.0000 
     26 C26         3.7583   53.1032   28.5705 C.2       1 UNK         0.0000 
     27 O27         4.3041   52.5667   29.5386 O.2       1 UNK         0.0000 
     28 N28         2.4116   53.0963   28.3903 N.am      1 UNK         0.0000 
     29 C29         1.5516   52.3217   29.3075 C.3       1 UNK         0.0000 
     30 C30         1.0418   53.2890   30.4011 C.3       1 UNK         0.0000 
     31 H31         1.9067   53.6663   30.9375 H         1 UNK         0.0000 
     32 C32         0.2975   54.4754   29.7531 C.3       1 UNK         0.0000 
     33 C33         1.2106   55.2349   28.7792 C.3       1 UNK         0.0000 
     34 H34         0.6480   55.9690   28.2109 H         1 UNK         0.0000 
     35 C35         1.7012   54.2125   27.7218 C.3       1 UNK         0.0000 
     36 C36         2.2924   56.0358   29.5299 C.3       1 UNK         0.0000 
     37 C37         0.1372   52.5728   31.3915 C.3       1 UNK         0.0000 
     38 H38         7.9046   56.1703   24.8816 H         1 UNK         0.0000 
     39 H39         7.5027   54.8200   23.7981 H         1 UNK         0.0000 
     40 H40         6.4941   56.2422   23.8652 H         1 UNK         0.0000 
     41 H41         7.5044   55.4611   27.2047 H         1 UNK         0.0000 
     42 H42         6.1319   54.4429   28.8937 H         1 UNK         0.0000 
     43 H43         3.3820   53.1319   25.8812 H         1 UNK         0.0000 
     44 H44         5.5800   54.3439   23.2014 H         1 UNK         0.0000 
     45 H45         2.6259   51.8776   21.3830 H         1 UNK         0.0000 
     46 H46         3.0248   51.6839   18.9819 H         1 UNK         0.0000 
     47 H47         5.1985   55.2946   21.5386 H         1 UNK         0.0000 
     48 H48         5.7569   55.1952   17.8806 H         1 UNK         0.0000 
     49 H49         7.4185   55.7990   16.4907 H         1 UNK         0.0000 
     50 H50         8.3285   58.0356   15.3254 H         1 UNK         0.0000 
     51 H51         8.0798   60.0027   17.2803 H         1 UNK         0.0000 
     52 H52         4.0192   52.3365   16.9720 H         1 UNK         0.0000 
     53 H53         4.2009   54.0885   16.8219 H         1 UNK         0.0000 
     54 H54         5.6052   53.0708   17.1411 H         1 UNK         0.0000 
     55 H55         0.7117   51.9282   28.7358 H         1 UNK         0.0000 
     56 H56         2.0503   51.4290   29.6856 H         1 UNK         0.0000 
     57 H57        -0.5789   54.0963   29.2282 H         1 UNK         0.0000 
     58 H58        -0.0945   55.1423   30.5226 H         1 UNK         0.0000 
     59 H59         2.2289   54.6828   26.8986 H         1 UNK         0.0000 
     60 H60         0.8438   53.7554   27.2302 H         1 UNK         0.0000 
     61 H61         3.1021   55.4123   29.9091 H         1 UNK         0.0000 
     62 H62         2.7047   56.8046   28.8811 H         1 UNK         0.0000 
     63 H63         1.8677   56.5688   30.3835 H         1 UNK         0.0000 
     64 H64        -0.7038   52.0937   30.8836 H         1 UNK         0.0000 
     65 H65         0.6731   51.8086   31.9510 H         1 UNK         0.0000 
     66 H66        -0.2628   53.2903   32.1118 H         1 UNK         0.0000 
@<TRIPOS>BOND
     1    1    2 1    
     2    1   38 1    
     3    1   39 1    
     4    1   40 1    
     5    2    7 ar   
     6    2    3 ar   
     7    3    4 ar   
     8    3   41 1    
     9    4    5 ar   
    10    4   42 1    
    11    5    6 ar   
    12    5   26 1    
    13    6    7 ar   
    14    6   43 1    
    15    7    8 1    
    16    8    9 am   BACKBONE|DICT|INTERRES
    17    8   44 1    
    18    9   10 2    
    19    9   11 1    
    20   11   16 ar   
    21   11   12 ar   
    22   12   13 ar   
    23   12   45 1    
    24   13   14 ar   
    25   13   46 1    
    26   14   15 ar   
    27   14   25 1    
    28   15   16 ar   
    29   15   17 1    
    30   16   47 1    
    31   17   18 am   BACKBONE|DICT|INTERRES
    32   17   48 1    
    33   18   19 2    
    34   18   20 1    
    35   20   24 1    
    36   20   21 2    
    37   21   22 1    
    38   21   49 1    
    39   22   23 2    
    40   22   50 1    
    41   23   24 1    
    42   23   51 1    
    43   25   52 1    
    44   25   53 1    
    45   25   54 1    
    46   26   27 2    
    47   26   28 am   BACKBONE|DICT|INTERRES
    48   28   35 1    
    49   28   29 1    
    50   29   30 1    
    51   29   55 1    
    52   29   56 1    
    53   30   31 1    
    54   30   32 1    
    55   30   37 1    
    56   32   33 1    
    57   32   57 1    
    58   32   58 1    
    59   33   34 1    
    60   33   35 1    
    61   33   36 1    
    62   35   59 1    
    63   35   60 1    
    64   36   61 1    
    65   36   62 1    
    66   36   63 1    
    67   37   64 1    
    68   37   65 1    
    69   37   66 1    
@<TRIPOS>SUBSTRUCTURE
     1 UNK         1 GROUP             0       ****    0 ROOT    
