@<TRIPOS>MOLECULE
ZINC36599008_3020
73   76    1
SMALL
USER_CHARGES


@<TRIPOS>ATOM
      1 C1          6.6661   54.2872   24.6625 C.3       1 UNK         0.0000 
      2 C2          5.5465   54.0968   23.6713 C.2       1 UNK         0.0000 
      3 C3          4.2216   54.4941   23.6166 C.2       1 UNK         0.0000 
      4 C4          3.7109   54.0414   22.3989 C.2       1 UNK         0.0000 
      5 C5          4.7178   53.3076   21.7935 C.2       1 UNK         0.0000 
      6 O6          5.8359   53.3701   22.5624 O.3       1 UNK         0.0000 
      7 C7          4.8315   52.4759   20.5329 C.3       1 UNK         0.0000 
      8 N8          3.9650   52.9240   19.4015 N.am      1 UNK         0.0000 
      9 C9          4.3690   54.2734   18.8377 C.3       1 UNK         0.0000 
     10 H10         3.8584   54.9453   19.5289 H         1 UNK         0.0000 
     11 C11         5.8704   54.5363   18.9196 C.ar      1 UNK         0.0000 
     12 C12         6.3431   55.4830   19.8358 C.ar      1 UNK         0.0000 
     13 C13         7.6995   55.7989   19.8938 C.ar      1 UNK         0.0000 
     14 C14         8.5962   55.2144   19.0029 C.ar      1 UNK         0.0000 
     15 C15         8.1426   54.2649   18.0894 C.ar      1 UNK         0.0000 
     16 C16         6.7980   53.8973   18.0669 C.ar      1 UNK         0.0000 
     17 O17         6.4343   52.8978   17.2027 O.3       1 UNK         0.0000 
     18 C18         3.8737   54.7575   17.4401 C.2       1 UNK         0.0000 
     19 O19         3.5979   53.9537   16.5498 O.2       1 UNK         0.0000 
     20 N20         3.8281   56.0988   17.2935 N.am      1 UNK         0.0000 
     21 C21         3.4150   56.8684   16.1137 C.3       1 UNK         0.0000 
     22 C22         3.6353   58.3632   16.4319 C.3       1 UNK         0.0000 
     23 C23         1.9144   56.6441   15.8170 C.3       1 UNK         0.0000 
     24 C24         4.2654   56.5126   14.8705 C.3       1 UNK         0.0000 
     25 C25         2.7409   52.3252   19.1513 C.2       1 UNK         0.0000 
     26 O26         1.8818   52.8993   18.4814 O.2       1 UNK         0.0000 
     27 C27         2.3250   50.9020   19.7020 C.3       1 UNK         0.0000 
     28 C28         1.7819   51.0203   21.1603 C.ar      1 UNK         0.0000 
     29 C29         0.9675   52.0966   21.5603 C.ar      1 UNK         0.0000 
     30 C30         0.4554   52.1719   22.8531 C.ar      1 UNK         0.0000 
     31 C31         0.7369   51.1623   23.7644 C.ar      1 UNK         0.0000 
     32 C32         1.5240   50.0808   23.3890 C.ar      1 UNK         0.0000 
     33 C33         2.0441   50.0092   22.0999 C.ar      1 UNK         0.0000 
     34 C34         1.2242   50.2212   18.8166 C.ar      1 UNK         0.0000 
     35 C35        -0.0730   50.7615   18.7344 C.ar      1 UNK         0.0000 
     36 C36        -1.0611   50.1574   17.9603 C.ar      1 UNK         0.0000 
     37 C37        -0.7687   48.9977   17.2522 C.ar      1 UNK         0.0000 
     38 C38         0.5052   48.4427   17.3088 C.ar      1 UNK         0.0000 
     39 C39         1.4909   49.0488   18.0824 C.ar      1 UNK         0.0000 
     40 O40         3.4952   50.0968   19.6819 O.3       1 UNK         0.0000 
     41 H41         7.4800   54.8732   24.2363 H         1 UNK         0.0000 
     42 H42         6.3277   54.8045   25.5614 H         1 UNK         0.0000 
     43 H43         7.0911   53.3353   24.9792 H         1 UNK         0.0000 
     44 H44         3.6926   55.0689   24.3628 H         1 UNK         0.0000 
     45 H45         2.7110   54.1940   22.0194 H         1 UNK         0.0000 
     46 H46         4.6216   51.4893   20.9147 H         1 UNK         0.0000 
     47 H47         5.8536   52.3702   20.1745 H         1 UNK         0.0000 
     48 H48         5.6597   55.9674   20.5179 H         1 UNK         0.0000 
     49 H49         8.0658   56.4957   20.6295 H         1 UNK         0.0000 
     50 H50         9.6456   55.4695   19.0384 H         1 UNK         0.0000 
     51 H51         8.8462   53.7859   17.4238 H         1 UNK         0.0000 
     52 H52         5.7424   52.3078   17.5337 H         1 UNK         0.0000 
     53 H53         4.1061   56.6574   18.0843 H         1 UNK         0.0000 
     54 H54         4.6786   58.5797   16.6674 H         1 UNK         0.0000 
     55 H55         3.3615   59.0016   15.5898 H         1 UNK         0.0000 
     56 H56         3.0388   58.6929   17.2822 H         1 UNK         0.0000 
     57 H57         1.6991   55.6014   15.5804 H         1 UNK         0.0000 
     58 H58         1.2945   56.9161   16.6717 H         1 UNK         0.0000 
     59 H59         1.5791   57.2420   14.9693 H         1 UNK         0.0000 
     60 H60         4.1096   55.4833   14.5460 H         1 UNK         0.0000 
     61 H61         4.0188   57.1500   14.0204 H         1 UNK         0.0000 
     62 H62         5.3317   56.6320   15.0714 H         1 UNK         0.0000 
     63 H63         0.7244   52.8929   20.8734 H         1 UNK         0.0000 
     64 H64        -0.1591   53.0065   23.1498 H         1 UNK         0.0000 
     65 H65         0.3395   51.2138   24.7683 H         1 UNK         0.0000 
     66 H66         1.7313   49.2973   24.1000 H         1 UNK         0.0000 
     67 H67         2.6452   49.1509   21.8335 H         1 UNK         0.0000 
     68 H68        -0.3246   51.6680   19.2627 H         1 UNK         0.0000 
     69 H69        -2.0501   50.5890   17.9082 H         1 UNK         0.0000 
     70 H70        -1.5320   48.5263   16.6494 H         1 UNK         0.0000 
     71 H71         0.7368   47.5475   16.7495 H         1 UNK         0.0000 
     72 H72         2.4700   48.5921   18.0899 H         1 UNK         0.0000 
     73 H73         4.0524   50.2799   18.8936 H         1 UNK         0.0000 
@<TRIPOS>BOND
     1    1    2 1    
     2    1   41 1    
     3    1   42 1    
     4    1   43 1    
     5    2    6 1    
     6    2    3 2    
     7    3    4 1    
     8    3   44 1    
     9    4    5 2    
    10    4   45 1    
    11    5    6 1    
    12    5    7 1    
    13    7    8 1    
    14    7   46 1    
    15    7   47 1    
    16    8    9 1    
    17    8   25 am   BACKBONE|DICT|INTERRES
    18    9   10 1    
    19    9   11 1    
    20    9   18 1    
    21   11   16 ar   
    22   11   12 ar   
    23   12   13 ar   
    24   12   48 1    
    25   13   14 ar   
    26   13   49 1    
    27   14   15 ar   
    28   14   50 1    
    29   15   16 ar   
    30   15   51 1    
    31   16   17 1    
    32   17   52 1    
    33   18   19 2    
    34   18   20 am   BACKBONE|DICT|INTERRES
    35   20   21 1    
    36   20   53 1    
    37   21   22 1    
    38   21   23 1    
    39   21   24 1    
    40   22   54 1    
    41   22   55 1    
    42   22   56 1    
    43   23   57 1    
    44   23   58 1    
    45   23   59 1    
    46   24   60 1    
    47   24   61 1    
    48   24   62 1    
    49   25   26 2    
    50   25   27 1    
    51   27   28 1    
    52   27   34 1    
    53   27   40 1    
    54   28   33 ar   
    55   28   29 ar   
    56   29   30 ar   
    57   29   63 1    
    58   30   31 ar   
    59   30   64 1    
    60   31   32 ar   
    61   31   65 1    
    62   32   33 ar   
    63   32   66 1    
    64   33   67 1    
    65   34   39 ar   
    66   34   35 ar   
    67   35   36 ar   
    68   35   68 1    
    69   36   37 ar   
    70   36   69 1    
    71   37   38 ar   
    72   37   70 1    
    73   38   39 ar   
    74   38   71 1    
    75   39   72 1    
    76   40   73 1    
@<TRIPOS>SUBSTRUCTURE
     1 UNK         1 GROUP             0       ****    0 ROOT    
