ZINC34762186_5095
                    3D
 Schrodinger Suite 2024-2.
 64 67  0  0  1  0            999 V2000
    4.0322   54.0987   21.1474 C   0  0  0  0  0  0
    4.4307   53.1737   22.3089 C   0  0  0  0  0  0
    4.6693   53.9040   23.6234 C   0  0  0  0  0  0
    5.8328   54.6258   23.8678 C   0  0  0  0  0  0
    5.9712   55.1876   25.5132 S   0  0  0  0  0  0
    4.4272   54.4894   25.9051 C   0  0  0  0  0  0
    3.7987   53.8643   24.7829 C   0  0  0  0  0  0
    2.5290   53.2738   25.0812 C   0  0  0  0  0  0
    2.0335   53.2966   26.3479 N   0  0  0  0  0  0
    2.7578   53.9043   27.3109 C   0  0  0  0  0  0
    3.9466   54.5239   27.1488 N   0  0  0  0  0  0
    2.1147   53.8804   28.9514 S   0  0  0  0  0  0
    0.6144   52.8406   28.9252 C   0  0  0  0  0  0
   -0.0759   52.7323   30.2833 C   0  0  0  0  0  0
    0.1033   53.5754   31.1593 O   0  0  0  0  0  0
   -0.8913   51.6978   30.4818 N   0  0  0  0  0  0
    1.7552   52.5797   24.1508 N   0  0  0  0  0  0
    1.2507   53.2844   22.9661 C   0  0  0  0  0  0
    0.9803   52.3620   21.7588 C   0  0  0  0  0  0
    0.0158   51.2224   22.1520 N   0  3  0  0  0  0
    0.4939   50.5163   23.4407 C   0  0  0  0  0  0
    0.7780   51.5461   24.5507 C   0  0  0  0  0  0
   -0.1563   50.1831   21.0137 C   0  0  0  0  0  0
   -0.3381   50.7667   19.6150 C   0  0  0  0  0  0
    0.7803   50.8204   18.7731 C   0  0  0  0  0  0
    0.6794   51.3379   17.4820 C   0  0  0  0  0  0
   -0.5548   51.8057   17.0239 C   0  0  0  0  0  0
   -1.6765   51.7511   17.8514 C   0  0  0  0  0  0
   -1.5818   51.2299   19.1474 C   0  0  0  0  0  0
   -2.8319   51.1707   20.0161 C   0  0  0  0  0  0
    1.9096   51.4036   16.5920 C   0  0  0  0  0  0
    6.9561   54.9191   22.9117 C   0  0  0  0  0  0
    3.5316   53.5401   20.3561 H   0  0  0  0  0  0
    4.8955   54.5809   20.6921 H   0  0  0  0  0  0
    3.3654   54.8939   21.4745 H   0  0  0  0  0  0
    3.7106   52.3729   22.4292 H   0  0  0  0  0  0
    5.3412   52.6464   22.0177 H   0  0  0  0  0  0
   -0.0979   53.2531   28.2104 H   0  0  0  0  0  0
    0.8952   51.8436   28.5837 H   0  0  0  0  0  0
   -1.0547   50.9707   29.8017 H   0  0  0  0  0  0
   -1.2957   51.6125   31.4223 H   0  0  0  0  0  0
    0.3023   53.7188   23.2890 H   0  0  0  0  0  0
    1.8712   54.1358   22.7025 H   0  0  0  0  0  0
    1.8804   51.9007   21.3533 H   0  0  0  0  0  0
    0.4753   52.9215   20.9732 H   0  0  0  0  0  0
    1.3842   49.9298   23.2014 H   0  0  0  0  0  0
   -0.3173   49.8513   23.7429 H   0  0  0  0  0  0
    1.1015   51.0318   25.4564 H   0  0  0  0  0  0
   -0.1472   52.0699   24.7992 H   0  0  0  0  0  0
    0.7392   49.5589   21.0427 H   0  0  0  0  0  0
   -0.9941   49.5523   21.3125 H   0  0  0  0  0  0
    1.7412   50.4627   19.1198 H   0  0  0  0  0  0
   -0.6481   52.2044   16.0229 H   0  0  0  0  0  0
   -2.6254   52.1043   17.4709 H   0  0  0  0  0  0
   -3.7191   51.5406   19.4981 H   0  0  0  0  0  0
   -3.0350   50.1414   20.3133 H   0  0  0  0  0  0
   -2.6937   51.7523   20.9285 H   0  0  0  0  0  0
    2.8322   51.3447   17.1736 H   0  0  0  0  0  0
    1.9057   50.5879   15.8685 H   0  0  0  0  0  0
    1.9407   52.3468   16.0454 H   0  0  0  0  0  0
    6.6246   55.0879   21.8894 H   0  0  0  0  0  0
    7.5037   55.8163   23.1987 H   0  0  0  0  0  0
    7.6667   54.0940   22.8861 H   0  0  0  0  0  0
   -0.8732   51.6527   22.3663 H   0  0  0  0  0  0
  1  2  1  0  0  0
  1 33  1  0  0  0
  1 34  1  0  0  0
  1 35  1  0  0  0
  2  3  1  0  0  0
  2 36  1  0  0  0
  2 37  1  0  0  0
  3  7  1  0  0  0
  3  4  2  0  0  0
  4  5  1  0  0  0
  4 32  1  0  0  0
  5  6  1  0  0  0
  6 11  2  0  0  0
  6  7  1  0  0  0
  7  8  2  0  0  0
  8  9  1  0  0  0
  8 17  1  0  0  0
  9 10  2  0  0  0
 10 11  1  0  0  0
 10 12  1  0  0  0
 12 13  1  0  0  0
 13 14  1  0  0  0
 13 38  1  0  0  0
 13 39  1  0  0  0
 14 15  2  0  0  0
 14 16  1  0  0  0
 16 40  1  0  0  0
 16 41  1  0  0  0
 17 22  1  0  0  0
 17 18  1  0  0  0
 18 19  1  0  0  0
 18 42  1  0  0  0
 18 43  1  0  0  0
 19 20  1  0  0  0
 19 44  1  0  0  0
 19 45  1  0  0  0
 20 21  1  0  0  0
 20 23  1  0  0  0
 20 64  1  0  0  0
 21 22  1  0  0  0
 21 46  1  0  0  0
 21 47  1  0  0  0
 22 48  1  0  0  0
 22 49  1  0  0  0
 23 24  1  0  0  0
 23 50  1  0  0  0
 23 51  1  0  0  0
 24 29  2  0  0  0
 24 25  1  0  0  0
 25 26  2  0  0  0
 25 52  1  0  0  0
 26 27  1  0  0  0
 26 31  1  0  0  0
 27 28  2  0  0  0
 27 53  1  0  0  0
 28 29  1  0  0  0
 28 54  1  0  0  0
 29 30  1  0  0  0
 30 55  1  0  0  0
 30 56  1  0  0  0
 30 57  1  0  0  0
 31 58  1  0  0  0
 31 59  1  0  0  0
 31 60  1  0  0  0
 32 61  1  0  0  0
 32 62  1  0  0  0
 32 63  1  0  0  0
M  CHG  1  20   1
M  END
> <i_i_glide_confnum>
185

> <i_i_glide_lignum>
5096

> <i_i_glide_posenum>
235

> <i_i_glide_rotatable_bonds>
7

> <i_m_Source_File_Index>
5102

> <b_m_subgroup_collapsed>
0

> <r_i_docking_score>
-5.88757

> <r_i_glide_ecoul>
-5.9585

> <r_i_glide_eff_state_penalty>
0

> <r_i_glide_einternal>
7.44293

> <r_i_glide_emodel>
-60.1617

> <r_i_glide_energy>
-46.243

> <r_i_glide_erotb>
0.456063

> <r_i_glide_esite>
-0.12981

> <r_i_glide_evdw>
-40.2845

> <r_i_glide_gscore>
-5.88757

> <r_i_glide_hbond>
-0.16

> <r_i_glide_ligand_efficiency>
-0.183986

> <r_i_glide_ligand_efficiency_ln>
-1.31839

> <r_i_glide_ligand_efficiency_sa>
-0.584121

> <r_i_glide_lipo>
-2.34009

> <r_i_glide_metal>
0

> <r_i_glide_rewards>
-0.805728

> <s_i_glide_gridfile>
wee1_glide-grid

> <s_m_Source_File>
wee1_decoys_glide_SP.sdf

> <s_m_Source_Path>
/Users/zhangxujun/Desktop

> <s_m_entry_id>
5377

> <s_m_entry_name>
wee1_decoys_glide_SP.5102

> <s_m_subgroup_title>
wee1_decoys_glide_SP

> <s_m_subgroupid>
wee1_decoys_glide_SP


$$$$
