ZINC09427999_2443
                    3D
 Schrodinger Suite 2024-2.
 60 63  0  0  1  0            999 V2000
    6.6377   57.7498   19.3255 C   0  0  0  0  0  0
    7.3341   56.4985   18.8257 C   0  0  0  0  0  0
    8.7099   56.5347   18.5752 C   0  0  0  0  0  0
    9.3642   55.4086   18.0890 C   0  0  0  0  0  0
    8.6462   54.2392   17.8468 C   0  0  0  0  0  0
    7.2733   54.1822   18.1056 C   0  0  0  0  0  0
    6.6068   55.3143   18.6161 C   0  0  0  0  0  0
    5.2458   55.3367   18.8794 O   0  0  0  0  0  0
    4.6507   54.4559   19.8560 C   0  0  0  0  0  0
    5.2550   54.5420   21.2790 C   0  0  0  0  0  0
    6.4150   54.9073   21.4502 O   0  0  0  0  0  0
    4.4081   54.2179   22.2816 N   0  0  0  0  0  0
    4.6400   54.2172   23.6630 C   0  0  0  0  0  0
    3.6827   53.9141   24.6577 C   0  0  0  0  0  0
    4.2480   53.9883   25.9707 C   0  0  0  0  0  0
    5.6148   54.3143   25.9501 C   0  0  0  0  0  0
    6.2110   54.5517   24.3562 S   0  0  0  0  0  0
    6.5016   54.5123   27.1714 C   0  0  0  0  0  0
    5.8441   53.8272   28.3805 C   0  0  0  0  0  0
    4.3629   54.2184   28.5116 C   0  0  0  0  0  0
    3.5149   53.7612   27.3024 C   0  0  0  0  0  0
    2.2874   53.6135   24.3421 C   0  0  0  0  0  0
    1.7426   54.0387   23.3198 O   0  0  0  0  0  0
    1.6867   52.7572   25.1891 N   0  0  0  0  0  0
    0.3663   52.1494   25.0236 C   0  0  2  0  0  0
   -0.4341   52.8939   24.9945 H   0  0  0  0  0  0
    0.1014   51.2111   26.2299 C   0  0  0  0  0  0
   -1.0851   50.2806   25.9375 C   0  0  0  0  0  0
   -1.0153   49.9654   24.0963 S   0  0  0  0  0  0
   -0.4594   48.6361   23.8143 O   0  0  0  0  0  0
   -2.2846   50.3854   23.4980 O   0  0  0  0  0  0
    0.2904   51.2630   23.7599 C   0  0  0  0  0  0
    6.5357   52.8968   17.7838 C   0  0  0  0  0  0
    5.7569   57.9512   18.7137 H   0  0  0  0  0  0
    6.3057   57.6006   20.3513 H   0  0  0  0  0  0
    7.2755   58.6323   19.2707 H   0  0  0  0  0  0
    9.2774   57.4381   18.7590 H   0  0  0  0  0  0
   10.4281   55.4384   17.9059 H   0  0  0  0  0  0
    9.1663   53.3734   17.4603 H   0  0  0  0  0  0
    3.5933   54.7170   19.8982 H   0  0  0  0  0  0
    4.6617   53.4208   19.5232 H   0  0  0  0  0  0
    3.4536   53.9949   22.0242 H   0  0  0  0  0  0
    7.5041   54.1097   27.0114 H   0  0  0  0  0  0
    6.6230   55.5777   27.3746 H   0  0  0  0  0  0
    5.9301   52.7447   28.2852 H   0  0  0  0  0  0
    6.3935   54.1002   29.2803 H   0  0  0  0  0  0
    3.9495   53.7962   29.4305 H   0  0  0  0  0  0
    4.2823   55.2968   28.6249 H   0  0  0  0  0  0
    2.5549   54.2834   27.3210 H   0  0  0  0  0  0
    3.2973   52.6971   27.4248 H   0  0  0  0  0  0
    2.1758   52.5267   26.0413 H   0  0  0  0  0  0
    0.9856   50.6034   26.4324 H   0  0  0  0  0  0
   -0.0560   51.7871   27.1425 H   0  0  0  0  0  0
   -1.1058   49.3287   26.4793 H   0  0  0  0  0  0
   -2.0188   50.8020   26.1469 H   0  0  0  0  0  0
    0.2119   51.7301   22.7785 H   0  0  0  0  0  0
    1.2082   50.6704   23.7493 H   0  0  0  0  0  0
    5.5637   53.1103   17.3340 H   0  0  0  0  0  0
    7.0814   52.2742   17.0704 H   0  0  0  0  0  0
    6.3732   52.3202   18.6927 H   0  0  0  0  0  0
  1  2  1  0  0  0
  1 34  1  0  0  0
  1 35  1  0  0  0
  1 36  1  0  0  0
  2  7  2  0  0  0
  2  3  1  0  0  0
  3  4  2  0  0  0
  3 37  1  0  0  0
  4  5  1  0  0  0
  4 38  1  0  0  0
  5  6  2  0  0  0
  5 39  1  0  0  0
  6  7  1  0  0  0
  6 33  1  0  0  0
  7  8  1  0  0  0
  8  9  1  0  0  0
  9 10  1  0  0  0
  9 40  1  0  0  0
  9 41  1  0  0  0
 10 11  2  0  0  0
 10 12  1  0  0  0
 12 13  1  0  0  0
 12 42  1  0  0  0
 13 17  1  0  0  0
 13 14  2  0  0  0
 14 15  1  0  0  0
 14 22  1  0  0  0
 15 21  1  0  0  0
 15 16  2  0  0  0
 16 17  1  0  0  0
 16 18  1  0  0  0
 18 19  1  0  0  0
 18 43  1  0  0  0
 18 44  1  0  0  0
 19 20  1  0  0  0
 19 45  1  0  0  0
 19 46  1  0  0  0
 20 21  1  0  0  0
 20 47  1  0  0  0
 20 48  1  0  0  0
 21 49  1  0  0  0
 21 50  1  0  0  0
 22 23  2  0  0  0
 22 24  1  0  0  0
 24 25  1  0  0  0
 24 51  1  0  0  0
 25 26  1  0  0  0
 25 32  1  0  0  0
 25 27  1  0  0  0
 27 28  1  0  0  0
 27 52  1  0  0  0
 27 53  1  0  0  0
 28 29  1  0  0  0
 28 54  1  0  0  0
 28 55  1  0  0  0
 29 30  2  0  0  0
 29 31  2  0  0  0
 29 32  1  0  0  0
 32 56  1  0  0  0
 32 57  1  0  0  0
 33 58  1  0  0  0
 33 59  1  0  0  0
 33 60  1  0  0  0
M  END
> <i_i_glide_confnum>
318

> <i_i_glide_lignum>
2444

> <i_i_glide_posenum>
393

> <i_i_glide_rotatable_bonds>
8

> <i_m_Source_File_Index>
4402

> <b_m_subgroup_collapsed>
0

> <r_i_docking_score>
-5.47009

> <r_i_glide_ecoul>
-2.5406

> <r_i_glide_eff_state_penalty>
0

> <r_i_glide_einternal>
3.70507

> <r_i_glide_emodel>
-64.0778

> <r_i_glide_energy>
-47.4444

> <r_i_glide_erotb>
0.713197

> <r_i_glide_esite>
-0.0261697

> <r_i_glide_evdw>
-44.9038

> <r_i_glide_gscore>
-5.47009

> <r_i_glide_hbond>
0

> <r_i_glide_ligand_efficiency>
-0.17094

> <r_i_glide_ligand_efficiency_ln>
-1.2249

> <r_i_glide_ligand_efficiency_sa>
-0.542701

> <r_i_glide_lipo>
-2.77413

> <r_i_glide_metal>
0

> <r_i_glide_rewards>
-0.756701

> <s_i_glide_gridfile>
wee1_glide-grid

> <s_m_Source_File>
wee1_decoys_glide_SP.sdf

> <s_m_Source_Path>
/Users/zhangxujun/Desktop

> <s_m_entry_id>
4677

> <s_m_entry_name>
wee1_decoys_glide_SP.4402

> <s_m_subgroup_title>
wee1_decoys_glide_SP

> <s_m_subgroupid>
wee1_decoys_glide_SP


$$$$
