@<TRIPOS>MOLECULE
ZINC59170665_600
61   65    1
SMALL
USER_CHARGES


@<TRIPOS>ATOM
      1 C1         -2.7199   52.7762   23.6242 C.3       1 UNK         0.0000 
      2 C2         -1.6603   52.0802   22.7882 C.ar      1 UNK         0.0000 
      3 C3         -2.0032   51.4851   21.5706 C.ar      1 UNK         0.0000 
      4 C4         -1.0380   50.8014   20.8320 C.ar      1 UNK         0.0000 
      5 C5          0.2673   50.7082   21.3182 C.ar      1 UNK         0.0000 
      6 C6          0.6144   51.3054   22.5299 C.ar      1 UNK         0.0000 
      7 C7         -0.3501   51.9952   23.2625 C.ar      1 UNK         0.0000 
      8 S8          1.4801   49.7589   20.4077 S.o2      1 UNK         0.0000 
      9 O9          2.7043   49.7273   21.2128 O.2       1 UNK         0.0000 
     10 O10         0.8188   48.5139   19.9956 O.2       1 UNK         0.0000 
     11 N11         1.8106   50.6801   18.9483 N.pl3     1 UNK         0.0000 
     12 N12         2.7066   51.6408   19.0750 N.pl3     1 UNK         0.0000 
     13 C13         3.0855   52.5501   18.1747 C.2       1 UNK         0.0000 
     14 C14         4.0666   53.5556   18.4116 C.2       1 UNK         0.0000 
     15 C15         4.4326   54.3093   17.3361 C.2       1 UNK         0.0000 
     16 C16         3.8331   54.1707   16.0049 C.ar      1 UNK         0.0000 
     17 C17         4.1882   54.9378   14.8944 C.ar      1 UNK         0.0000 
     18 C18         3.5377   54.7183   13.6773 C.ar      1 UNK         0.0000 
     19 C19         2.5434   53.7390   13.5742 C.ar      1 UNK         0.0000 
     20 C20         2.1903   52.9732   14.6887 C.ar      1 UNK         0.0000 
     21 C21         2.8393   53.1982   15.9033 C.ar      1 UNK         0.0000 
     22 O22         2.4892   52.4491   17.0147 O.3       1 UNK         0.0000 
     23 C23         4.7086   53.8278   19.6940 C.2       1 UNK         0.0000 
     24 O24         5.9038   54.1050   19.7715 O.2       1 UNK         0.0000 
     25 N25         3.8677   53.7924   20.7487 N.am      1 UNK         0.0000 
     26 C26         4.0995   53.9294   22.1245 C.ar      1 UNK         0.0000 
     27 C27         5.3561   54.0674   22.7231 C.ar      1 UNK         0.0000 
     28 C28         5.4544   54.1577   24.1115 C.ar      1 UNK         0.0000 
     29 C29         4.3146   54.0975   24.9353 C.ar      1 UNK         0.0000 
     30 C30         3.0665   53.9714   24.3037 C.ar      1 UNK         0.0000 
     31 C31         2.9592   53.8979   22.9216 C.ar      1 UNK         0.0000 
     32 C32         4.4200   54.1665   26.4401 C.ar      1 UNK         0.0000 
     33 C33         3.2855   54.3895   27.2418 C.ar      1 UNK         0.0000 
     34 C34         3.3796   54.4972   28.6252 C.ar      1 UNK         0.0000 
     35 C35         4.6196   54.3743   29.2379 C.ar      1 UNK         0.0000 
     36 C36         5.7544   54.1089   28.4789 C.ar      1 UNK         0.0000 
     37 C37         5.6546   54.0131   27.0944 C.ar      1 UNK         0.0000 
     38 H38        -2.4382   52.8061   24.6753 H         1 UNK         0.0000 
     39 H39        -3.6638   52.2355   23.5763 H         1 UNK         0.0000 
     40 H40        -2.8942   53.7950   23.2823 H         1 UNK         0.0000 
     41 H41        -3.0191   51.5240   21.2029 H         1 UNK         0.0000 
     42 H42        -1.3110   50.3179   19.9021 H         1 UNK         0.0000 
     43 H43         1.6194   51.2244   22.9218 H         1 UNK         0.0000 
     44 H44        -0.0786   52.4420   24.2105 H         1 UNK         0.0000 
     45 H45         0.9877   50.9476   18.4063 H         1 UNK         0.0000 
     46 H46         5.1881   55.0752   17.4600 H         1 UNK         0.0000 
     47 H47         4.9541   55.6968   14.9668 H         1 UNK         0.0000 
     48 H48         3.8048   55.3085   12.8114 H         1 UNK         0.0000 
     49 H49         2.0517   53.5693   12.6257 H         1 UNK         0.0000 
     50 H50         1.4282   52.2102   14.6123 H         1 UNK         0.0000 
     51 H51         2.8855   53.7791   20.5121 H         1 UNK         0.0000 
     52 H52         6.2643   54.1027   22.1420 H         1 UNK         0.0000 
     53 H53         6.4447   54.2770   24.5254 H         1 UNK         0.0000 
     54 H54         2.1493   53.9131   24.8637 H         1 UNK         0.0000 
     55 H55         1.9778   53.8021   22.4753 H         1 UNK         0.0000 
     56 H56         2.3021   54.4967   26.8184 H         1 UNK         0.0000 
     57 H57         2.4952   54.6850   29.2174 H         1 UNK         0.0000 
     58 H58         4.7039   54.4858   30.3083 H         1 UNK         0.0000 
     59 H59         6.7192   54.0093   28.9593 H         1 UNK         0.0000 
     60 H60         6.5621   53.8122   26.5471 H         1 UNK         0.0000 
     61 H61         3.1882   51.6711   19.9705 H         1 UNK         0.0000 
@<TRIPOS>BOND
     1    1    2 1    
     2    1   38 1    
     3    1   39 1    
     4    1   40 1    
     5    2    7 ar   
     6    2    3 ar   
     7    3    4 ar   
     8    3   41 1    
     9    4    5 ar   
    10    4   42 1    
    11    5    6 ar   
    12    5    8 1    
    13    6    7 ar   
    14    6   43 1    
    15    7   44 1    
    16    8    9 2    
    17    8   10 2    
    18    8   11 1    
    19   11   12 1    
    20   11   45 1    
    21   12   13 2    
    22   12   61 1    
    23   13   22 1    
    24   13   14 1    
    25   14   15 2    
    26   14   23 1    
    27   15   16 1    
    28   15   46 1    
    29   16   21 ar   
    30   16   17 ar   
    31   17   18 ar   
    32   17   47 1    
    33   18   19 ar   
    34   18   48 1    
    35   19   20 ar   
    36   19   49 1    
    37   20   21 ar   
    38   20   50 1    
    39   21   22 1    
    40   23   24 2    
    41   23   25 am   BACKBONE|DICT|INTERRES
    42   25   26 1    
    43   25   51 1    
    44   26   31 ar   
    45   26   27 ar   
    46   27   28 ar   
    47   27   52 1    
    48   28   29 ar   
    49   28   53 1    
    50   29   30 ar   
    51   29   32 1    
    52   30   31 ar   
    53   30   54 1    
    54   31   55 1    
    55   32   37 ar   
    56   32   33 ar   
    57   33   34 ar   
    58   33   56 1    
    59   34   35 ar   
    60   34   57 1    
    61   35   36 ar   
    62   35   58 1    
    63   36   37 ar   
    64   36   59 1    
    65   37   60 1    
@<TRIPOS>SUBSTRUCTURE
     1 UNK         1 GROUP             0       ****    0 ROOT    
