ZINC09781058_6099
                    3D
 Schrodinger Suite 2024-2.
 64 68  0  0  1  0            999 V2000
    1.1801   47.8815   20.0817 C   0  0  0  0  0  0
    1.3071   48.7201   18.7845 C   0  0  0  0  0  0
    0.0265   49.5663   18.5595 C   0  0  0  0  0  0
   -0.1837   50.6960   19.5865 C   0  0  0  0  0  0
    1.0180   51.1906   20.3079 C   0  0  0  0  0  0
    0.8155   52.2524   21.4156 C   0  0  2  0  0  0
    0.3591   53.1069   20.9156 H   0  0  0  0  0  0
    2.1690   52.7875   21.9428 C   0  0  0  0  0  0
    3.3989   52.2678   21.5061 C   0  0  0  0  0  0
    4.6103   52.6946   21.9476 N   0  0  0  0  0  0
    4.5870   53.6908   22.8669 C   0  0  0  0  0  0
    3.4755   54.3194   23.2965 N   0  0  0  0  0  0
    2.2954   53.8588   22.8378 C   0  0  0  0  0  0
    1.2974   54.4939   23.2821 O   0  5  0  0  0  0
    6.1116   54.0986   23.6679 S   0  0  0  0  0  0
    5.6978   55.1787   25.0809 C   0  0  0  0  0  0
    5.4609   54.4367   26.3861 C   0  0  0  0  0  0
    6.5341   54.2182   27.2512 C   0  0  0  0  0  0
    6.3252   53.5985   28.4787 C   0  0  0  0  0  0
    5.0510   53.1582   28.8390 C   0  0  0  0  0  0
    3.9745   53.3828   27.9895 C   0  0  0  0  0  0
    4.1726   54.0303   26.7739 C   0  0  0  0  0  0
    3.0972   54.2785   26.0011 F   0  0  0  0  0  0
    3.3917   51.2573   20.5472 N   0  0  0  0  0  0
    2.2589   50.7846   19.9300 C   0  0  0  0  0  0
    2.5016   49.7067   18.8797 C   0  0  0  0  0  0
   -0.1600   51.8378   22.5364 C   0  0  0  0  0  0
   -1.4787   52.2885   22.4965 C   0  0  0  0  0  0
   -2.3739   51.9753   23.5069 C   0  0  0  0  0  0
   -1.9778   51.1928   24.5983 C   0  0  0  0  0  0
   -0.6492   50.7320   24.6347 C   0  0  0  0  0  0
    0.2498   51.0491   23.6154 C   0  0  0  0  0  0
   -2.9085   50.8825   25.6262 N   0  0  0  0  0  0
   -4.3129   51.2790   25.5276 C   0  0  0  0  0  0
   -2.4982   50.0970   26.7904 C   0  0  0  0  0  0
   -1.2690   51.2732   19.6470 O   0  0  0  0  0  0
    1.5125   47.8361   17.5361 C   0  0  0  0  0  0
    2.0864   47.3020   20.2609 H   0  0  0  0  0  0
    1.0120   48.4953   20.9673 H   0  0  0  0  0  0
    0.3530   47.1768   20.0174 H   0  0  0  0  0  0
   -0.8749   48.9596   18.4988 H   0  0  0  0  0  0
    0.1335   50.0788   17.6048 H   0  0  0  0  0  0
    4.7783   55.7034   24.8712 H   0  0  0  0  0  0
    6.4734   55.9352   25.1973 H   0  0  0  0  0  0
    7.5279   54.5362   26.9844 H   0  0  0  0  0  0
    7.1660   53.4501   29.1398 H   0  0  0  0  0  0
    4.8887   52.6383   29.7706 H   0  0  0  0  0  0
    2.9839   53.0565   28.2675 H   0  0  0  0  0  0
    2.7045   50.2219   17.9427 H   0  0  0  0  0  0
    3.3733   49.1021   19.1354 H   0  0  0  0  0  0
   -1.8186   52.8967   21.6746 H   0  0  0  0  0  0
   -3.3781   52.3627   23.4277 H   0  0  0  0  0  0
   -0.2958   50.1228   25.4509 H   0  0  0  0  0  0
    1.2688   50.6921   23.6718 H   0  0  0  0  0  0
   -4.7549   50.9147   24.5963 H   0  0  0  0  0  0
   -4.9198   50.8884   26.3499 H   0  0  0  0  0  0
   -4.4015   52.3690   25.5302 H   0  0  0  0  0  0
   -1.6435   50.5588   27.2877 H   0  0  0  0  0  0
   -3.2950   49.9869   27.5274 H   0  0  0  0  0  0
   -2.1911   49.0953   26.4794 H   0  0  0  0  0  0
    4.2880   50.9639   20.1869 H   0  0  0  0  0  0
    2.4246   47.2411   17.6157 H   0  0  0  0  0  0
    0.6827   47.1431   17.3911 H   0  0  0  0  0  0
    1.6030   48.4326   16.6257 H   0  0  0  0  0  0
  1  2  1  0  0  0
  1 38  1  0  0  0
  1 39  1  0  0  0
  1 40  1  0  0  0
  2 26  1  0  0  0
  2  3  1  0  0  0
  2 37  1  0  0  0
  3 41  1  0  0  0
  3 42  1  0  0  0
  3  4  1  0  0  0
  4 36  2  0  0  0
  4  5  1  0  0  0
  5  6  1  0  0  0
  5 25  2  0  0  0
  6  7  1  0  0  0
  6  8  1  0  0  0
  6 27  1  0  0  0
  8 13  2  0  0  0
  8  9  1  0  0  0
  9 10  2  0  0  0
  9 24  1  0  0  0
 10 11  1  0  0  0
 11 12  2  0  0  0
 11 15  1  0  0  0
 12 13  1  0  0  0
 13 14  1  0  0  0
 15 16  1  0  0  0
 16 17  1  0  0  0
 16 43  1  0  0  0
 16 44  1  0  0  0
 17 22  2  0  0  0
 17 18  1  0  0  0
 18 19  2  0  0  0
 18 45  1  0  0  0
 19 20  1  0  0  0
 19 46  1  0  0  0
 20 21  2  0  0  0
 20 47  1  0  0  0
 21 22  1  0  0  0
 21 48  1  0  0  0
 22 23  1  0  0  0
 24 25  1  0  0  0
 24 61  1  0  0  0
 25 26  1  0  0  0
 26 49  1  0  0  0
 26 50  1  0  0  0
 27 32  2  0  0  0
 27 28  1  0  0  0
 28 29  2  0  0  0
 28 51  1  0  0  0
 29 30  1  0  0  0
 29 52  1  0  0  0
 30 31  2  0  0  0
 30 33  1  0  0  0
 31 32  1  0  0  0
 31 53  1  0  0  0
 32 54  1  0  0  0
 33 34  1  0  0  0
 33 35  1  0  0  0
 34 55  1  0  0  0
 34 56  1  0  0  0
 34 57  1  0  0  0
 35 58  1  0  0  0
 35 59  1  0  0  0
 35 60  1  0  0  0
 37 62  1  0  0  0
 37 63  1  0  0  0
 37 64  1  0  0  0
M  CHG  1  14  -1
M  END
> <i_i_glide_confnum>
38

> <i_i_glide_lignum>
6100

> <i_i_glide_posenum>
78

> <i_i_glide_rotatable_bonds>
5

> <i_m_Source_File_Index>
1096

> <b_m_subgroup_collapsed>
0

> <r_i_docking_score>
-4.99794

> <r_i_glide_ecoul>
-0.906607

> <r_i_glide_eff_state_penalty>
0

> <r_i_glide_einternal>
2.5599

> <r_i_glide_emodel>
-53.7115

> <r_i_glide_energy>
-41.8822

> <r_i_glide_erotb>
0.322383

> <r_i_glide_esite>
-0.0562429

> <r_i_glide_evdw>
-40.9756

> <r_i_glide_gscore>
-4.99794

> <r_i_glide_hbond>
-0.0182111

> <r_i_glide_ligand_efficiency>
-0.138832

> <r_i_glide_ligand_efficiency_ln>
-1.09042

> <r_i_glide_ligand_efficiency_sa>
-0.458412

> <r_i_glide_lipo>
-2.43781

> <r_i_glide_metal>
0

> <r_i_glide_rewards>
-0.623294

> <s_i_glide_gridfile>
wee1_glide-grid

> <s_m_Source_File>
wee1_decoys_glide_SP.sdf

> <s_m_Source_Path>
/Users/zhangxujun/Desktop

> <s_m_entry_id>
1371

> <s_m_entry_name>
wee1_decoys_glide_SP.1096

> <s_m_subgroup_title>
wee1_decoys_glide_SP

> <s_m_subgroupid>
wee1_decoys_glide_SP


$$$$
