ZINC41332142_5165
                    3D
 Schrodinger Suite 2024-2.
 56 60  0  0  1  0            999 V2000
    3.7260   53.8266   29.6815 C   0  0  0  0  0  0
    3.6136   53.4898   28.1882 C   0  0  1  0  0  0
    3.7932   52.4166   28.0937 H   0  0  0  0  0  0
    2.2188   53.8502   27.6590 C   0  0  0  0  0  0
    2.0036   53.2973   26.2408 C   0  0  0  0  0  0
    3.1802   53.6818   25.3273 C   0  0  0  0  0  0
    4.3946   54.1168   25.8899 C   0  0  0  0  0  0
    5.5622   54.5397   24.6978 S   0  0  0  0  0  0
    4.4638   54.1160   23.4115 C   0  0  0  0  0  0
    3.2262   53.6273   23.8954 C   0  0  0  0  0  0
    2.1994   53.0645   23.0045 C   0  0  0  0  0  0
    2.4122   52.8967   21.8020 O   0  0  0  0  0  0
    1.0317   52.7064   23.5670 N   0  0  0  0  0  0
   -0.0945   52.0668   22.8836 C   0  0  2  0  0  0
   -0.1676   52.5470   21.9037 H   0  0  0  0  0  0
   -1.4162   52.2689   23.6537 C   0  0  0  0  0  0
   -1.4600   51.3020   24.8542 C   0  0  0  0  0  0
   -0.4355   49.8146   24.3343 S   0  0  0  0  0  0
   -1.3001   48.6639   24.0565 O   0  0  0  0  0  0
    0.7044   49.6969   25.2458 O   0  0  0  0  0  0
    0.1215   50.5579   22.7069 C   0  0  0  0  0  0
    4.8243   54.2395   22.0679 N   0  0  0  0  0  0
    5.8668   54.8957   21.5125 C   0  0  0  0  0  0
    6.7049   55.5746   22.1084 O   0  0  0  0  0  0
    5.9154   54.7428   20.0810 C   0  0  0  0  0  0
    5.4833   53.7016   19.2539 C   0  0  0  0  0  0
    5.9276   54.0194   17.9350 C   0  0  0  0  0  0
    5.8277   53.4287   16.6661 C   0  0  0  0  0  0
    6.4317   54.0666   15.5785 C   0  0  0  0  0  0
    7.1262   55.2694   15.7354 C   0  0  0  0  0  0
    7.2452   55.8782   16.9860 C   0  0  0  0  0  0
    6.6363   55.2339   18.0696 C   0  0  0  0  0  0
    6.6471   55.6534   19.3699 O   0  0  0  0  0  0
    7.9245   57.0380   17.1342 F   0  0  0  0  0  0
    4.6947   54.2460   27.3815 C   0  0  0  0  0  0
    3.5773   54.8910   29.8662 H   0  0  0  0  0  0
    2.9854   53.2783   30.2656 H   0  0  0  0  0  0
    4.7044   53.5557   30.0729 H   0  0  0  0  0  0
    1.4581   53.4221   28.3150 H   0  0  0  0  0  0
    2.0503   54.9268   27.7157 H   0  0  0  0  0  0
    1.0656   53.6968   25.8754 H   0  0  0  0  0  0
    1.8944   52.2139   26.2843 H   0  0  0  0  0  0
    0.9311   52.8398   24.5614 H   0  0  0  0  0  0
   -2.2523   52.0631   22.9845 H   0  0  0  0  0  0
   -1.5457   53.3048   23.9717 H   0  0  0  0  0  0
   -2.4528   50.9693   25.1594 H   0  0  0  0  0  0
   -0.9745   51.7422   25.7253 H   0  0  0  0  0  0
    1.1181   50.1996   22.4499 H   0  0  0  0  0  0
   -0.5927   50.1992   21.9663 H   0  0  0  0  0  0
    4.1436   53.8462   21.4276 H   0  0  0  0  0  0
    4.9326   52.8211   19.5542 H   0  0  0  0  0  0
    5.2971   52.4966   16.5344 H   0  0  0  0  0  0
    6.3639   53.6200   14.5966 H   0  0  0  0  0  0
    7.5830   55.7370   14.8745 H   0  0  0  0  0  0
    5.6841   53.8497   27.6132 H   0  0  0  0  0  0
    4.6948   55.2967   27.6603 H   0  0  0  0  0  0
  1  2  1  0  0  0
  1 36  1  0  0  0
  1 37  1  0  0  0
  1 38  1  0  0  0
  2  3  1  0  0  0
  2 35  1  0  0  0
  2  4  1  0  0  0
  4  5  1  0  0  0
  4 39  1  0  0  0
  4 40  1  0  0  0
  5  6  1  0  0  0
  5 41  1  0  0  0
  5 42  1  0  0  0
  6 10  1  0  0  0
  6  7  2  0  0  0
  7  8  1  0  0  0
  7 35  1  0  0  0
  8  9  1  0  0  0
  9 10  2  0  0  0
  9 22  1  0  0  0
 10 11  1  0  0  0
 11 12  2  0  0  0
 11 13  1  0  0  0
 13 14  1  0  0  0
 13 43  1  0  0  0
 14 15  1  0  0  0
 14 21  1  0  0  0
 14 16  1  0  0  0
 16 17  1  0  0  0
 16 44  1  0  0  0
 16 45  1  0  0  0
 17 18  1  0  0  0
 17 46  1  0  0  0
 17 47  1  0  0  0
 18 19  2  0  0  0
 18 20  2  0  0  0
 18 21  1  0  0  0
 21 48  1  0  0  0
 21 49  1  0  0  0
 22 23  1  0  0  0
 22 50  1  0  0  0
 23 24  2  0  0  0
 23 25  1  0  0  0
 25 33  1  0  0  0
 25 26  2  0  0  0
 26 27  1  0  0  0
 26 51  1  0  0  0
 27 32  2  0  0  0
 27 28  1  0  0  0
 28 29  2  0  0  0
 28 52  1  0  0  0
 29 30  1  0  0  0
 29 53  1  0  0  0
 30 31  2  0  0  0
 30 54  1  0  0  0
 31 32  1  0  0  0
 31 34  1  0  0  0
 32 33  1  0  0  0
 35 55  1  0  0  0
 35 56  1  0  0  0
M  END
> <i_i_glide_confnum>
283

> <i_i_glide_lignum>
5166

> <i_i_glide_posenum>
322

> <i_i_glide_rotatable_bonds>
6

> <i_m_Source_File_Index>
4399

> <b_m_subgroup_collapsed>
0

> <r_i_docking_score>
-4.31118

> <r_i_glide_ecoul>
1.46235

> <r_i_glide_eff_state_penalty>
0

> <r_i_glide_einternal>
7.4885

> <r_i_glide_emodel>
-52.7341

> <r_i_glide_energy>
-42.603

> <r_i_glide_erotb>
0.507394

> <r_i_glide_esite>
-0.0623008

> <r_i_glide_evdw>
-44.0654

> <r_i_glide_gscore>
-4.31118

> <r_i_glide_hbond>
0

> <r_i_glide_ligand_efficiency>
-0.130642

> <r_i_glide_ligand_efficiency_ln>
-0.958785

> <r_i_glide_ligand_efficiency_sa>
-0.419038

> <r_i_glide_lipo>
-2.14001

> <r_i_glide_metal>
0

> <r_i_glide_rewards>
-0.632348

> <s_i_glide_gridfile>
wee1_glide-grid

> <s_m_Source_File>
wee1_decoys_glide_SP.sdf

> <s_m_Source_Path>
/Users/zhangxujun/Desktop

> <s_m_entry_id>
4674

> <s_m_entry_name>
wee1_decoys_glide_SP.4399

> <s_m_subgroup_title>
wee1_decoys_glide_SP

> <s_m_subgroupid>
wee1_decoys_glide_SP


$$$$
