ZINC28947619_5896
                    3D
 Schrodinger Suite 2024-2.
 48 51  0  0  1  0            999 V2000
   -4.0298   49.5753   27.4573 C   0  0  0  0  0  0
   -4.1287   50.9282   26.9348 N   0  0  0  0  0  0
   -5.2793   51.6542   26.7638 C   0  0  0  0  0  0
   -4.8786   52.8669   26.2316 C   0  0  0  0  0  0
   -3.5687   52.9221   26.0816 N   0  0  0  0  0  0
   -3.1156   51.7472   26.4759 C   0  0  0  0  0  0
   -1.6408   51.3337   26.4687 C   0  0  1  0  0  0
   -1.4809   50.5879   27.2554 H   0  0  0  0  0  0
   -1.2269   50.7057   25.1307 C   0  0  0  0  0  0
   -1.5604   51.3224   23.9179 C   0  0  0  0  0  0
   -1.1568   50.7580   22.7124 C   0  0  0  0  0  0
   -0.4210   49.5766   22.7149 C   0  0  0  0  0  0
   -0.0915   48.9502   23.9156 C   0  0  0  0  0  0
   -0.4999   49.5100   25.1230 C   0  0  0  0  0  0
    0.0884   48.8965   21.2133 Cl  0  0  0  0  0  0
   -0.7795   52.4766   26.8066 N   0  0  0  0  0  0
    0.5106   52.3829   27.1756 C   0  0  0  0  0  0
    1.1044   51.3074   27.2494 O   0  0  0  0  0  0
    1.2285   53.7009   27.5140 C   0  0  0  0  0  0
    2.4369   53.5319   28.3328 N   0  0  0  0  0  0
    3.7756   53.6836   27.9760 C   0  0  0  0  0  0
    4.5315   53.4562   29.0254 N   0  0  0  0  0  0
    3.7129   53.1436   30.0985 N   0  0  0  0  0  0
    2.4774   53.2008   29.6817 C   0  0  0  0  0  0
    1.1043   52.8967   30.7592 S   0  5  0  0  0  0
    4.3777   54.0525   26.6394 C   0  0  0  0  0  0
    3.7482   53.7901   25.4148 C   0  0  0  0  0  0
    4.3790   54.0952   24.2095 C   0  0  0  0  0  0
    5.6684   54.6170   24.2158 C   0  0  0  0  0  0
    6.3056   54.8972   25.4180 C   0  0  0  0  0  0
    5.6627   54.6205   26.6216 C   0  0  0  0  0  0
    6.4928   54.8967   22.7255 Cl  0  0  0  0  0  0
   -3.6968   49.6170   28.4962 H   0  0  0  0  0  0
   -3.3132   48.9959   26.8729 H   0  0  0  0  0  0
   -5.0060   49.0880   27.4252 H   0  0  0  0  0  0
   -6.2462   51.2506   27.0281 H   0  0  0  0  0  0
   -5.5190   53.6957   25.9666 H   0  0  0  0  0  0
   -2.1192   52.2469   23.9072 H   0  0  0  0  0  0
   -1.4074   51.2387   21.7791 H   0  0  0  0  0  0
    0.4913   48.0417   23.9202 H   0  0  0  0  0  0
   -0.2335   49.0226   26.0521 H   0  0  0  0  0  0
   -1.1597   53.3862   26.5987 H   0  0  0  0  0  0
    1.4692   54.2628   26.6195 H   0  0  0  0  0  0
    0.5472   54.3364   28.0816 H   0  0  0  0  0  0
    2.7989   53.2822   25.3691 H   0  0  0  0  0  0
    3.8909   53.8680   23.2727 H   0  0  0  0  0  0
    7.3019   55.3074   25.4089 H   0  0  0  0  0  0
    6.1808   54.8297   27.5471 H   0  0  0  0  0  0
  1  2  1  0  0  0
  1 33  1  0  0  0
  1 34  1  0  0  0
  1 35  1  0  0  0
  2  6  1  0  0  0
  2  3  1  0  0  0
  3  4  2  0  0  0
  3 36  1  0  0  0
  4  5  1  0  0  0
  4 37  1  0  0  0
  5  6  2  0  0  0
  6  7  1  0  0  0
  7  8  1  0  0  0
  7  9  1  0  0  0
  7 16  1  0  0  0
  9 14  2  0  0  0
  9 10  1  0  0  0
 10 11  2  0  0  0
 10 38  1  0  0  0
 11 12  1  0  0  0
 11 39  1  0  0  0
 12 13  2  0  0  0
 12 15  1  0  0  0
 13 14  1  0  0  0
 13 40  1  0  0  0
 14 41  1  0  0  0
 16 17  1  0  0  0
 16 42  1  0  0  0
 17 18  2  0  0  0
 17 19  1  0  0  0
 19 20  1  0  0  0
 19 43  1  0  0  0
 19 44  1  0  0  0
 20 24  1  0  0  0
 20 21  1  0  0  0
 21 22  2  0  0  0
 21 26  1  0  0  0
 22 23  1  0  0  0
 23 24  2  0  0  0
 24 25  1  0  0  0
 26 31  2  0  0  0
 26 27  1  0  0  0
 27 28  2  0  0  0
 27 45  1  0  0  0
 28 29  1  0  0  0
 28 46  1  0  0  0
 29 30  2  0  0  0
 29 32  1  0  0  0
 30 31  1  0  0  0
 30 47  1  0  0  0
 31 48  1  0  0  0
M  CHG  1  25  -1
M  END
> <i_i_glide_confnum>
51

> <i_i_glide_lignum>
5897

> <i_i_glide_posenum>
242

> <i_i_glide_rotatable_bonds>
7

> <i_m_Source_File_Index>
3961

> <b_m_subgroup_collapsed>
0

> <r_i_docking_score>
-5.09362

> <r_i_glide_ecoul>
-2.41259

> <r_i_glide_eff_state_penalty>
0

> <r_i_glide_einternal>
3.71615

> <r_i_glide_emodel>
-58.3506

> <r_i_glide_energy>
-43.6652

> <r_i_glide_erotb>
0.634313

> <r_i_glide_esite>
-0.065235

> <r_i_glide_evdw>
-41.2526

> <r_i_glide_gscore>
-5.09362

> <r_i_glide_hbond>
0

> <r_i_glide_ligand_efficiency>
-0.16431

> <r_i_glide_ligand_efficiency_ln>
-1.14877

> <r_i_glide_ligand_efficiency_sa>
-0.516161

> <r_i_glide_lipo>
-2.16691

> <r_i_glide_metal>
0

> <r_i_glide_rewards>
-1.07127

> <s_i_glide_gridfile>
wee1_glide-grid

> <s_m_Source_File>
wee1_decoys_glide_SP.sdf

> <s_m_Source_Path>
/Users/zhangxujun/Desktop

> <s_m_entry_id>
4236

> <s_m_entry_name>
wee1_decoys_glide_SP.3961

> <s_m_subgroup_title>
wee1_decoys_glide_SP

> <s_m_subgroupid>
wee1_decoys_glide_SP


$$$$
