@<TRIPOS>MOLECULE
ZINC04724125_1925
46   48    1
SMALL
USER_CHARGES


@<TRIPOS>ATOM
      1 C1          4.6786   53.2909   19.8844 C.3       1 UNK         0.0000 
      2 N2          5.5043   54.2345   20.6391 N.pl3     1 UNK         0.0000 
      3 C3          5.2999   54.2931   22.0347 C.ar      1 UNK         0.0000 
      4 C4          6.3889   54.5133   22.8820 C.ar      1 UNK         0.0000 
      5 C5          6.2251   54.5039   24.2657 C.ar      1 UNK         0.0000 
      6 C6          4.9647   54.2776   24.8388 C.ar      1 UNK         0.0000 
      7 C7          3.8663   54.0969   23.9802 C.ar      1 UNK         0.0000 
      8 C8          4.0340   54.0967   22.5988 C.ar      1 UNK         0.0000 
      9 C9          4.8250   54.2008   26.3507 C.2       1 UNK         0.0000 
     10 O10         5.7515   54.5742   27.0729 O.2       1 UNK         0.0000 
     11 N11         3.6606   53.6801   26.8028 N.am      1 UNK         0.0000 
     12 C12         3.2187   53.2889   28.0899 C.ar      1 UNK         0.0000 
     13 C13         4.0705   53.3078   29.2094 C.ar      1 UNK         0.0000 
     14 C14         3.6175   52.8966   30.4607 C.ar      1 UNK         0.0000 
     15 C15         2.3028   52.4888   30.6269 C.ar      1 UNK         0.0000 
     16 C16         1.4479   52.4519   29.5327 C.ar      1 UNK         0.0000 
     17 C17         1.8775   52.8281   28.2464 C.ar      1 UNK         0.0000 
     18 C18         0.8894   52.7114   27.1058 C.2       1 UNK         0.0000 
     19 O19        -0.3122   52.4970   27.3864 O.co2     1 UNK         0.0000 
     20 S20         6.1197   55.6447   19.7163 S.o2      1 UNK         0.0000 
     21 O21         5.0127   56.1205   18.8804 O.2       1 UNK         0.0000 
     22 O22         6.7990   56.5452   20.6579 O.2       1 UNK         0.0000 
     23 C23         7.3521   54.9832   18.5975 C.ar      1 UNK         0.0000 
     24 C24         6.9474   54.3530   17.4175 C.ar      1 UNK         0.0000 
     25 C25         7.8979   53.7901   16.5704 C.ar      1 UNK         0.0000 
     26 C26         9.2483   53.8631   16.9040 C.ar      1 UNK         0.0000 
     27 C27         9.6555   54.4969   18.0760 C.ar      1 UNK         0.0000 
     28 C28         8.7062   55.0548   18.9275 C.ar      1 UNK         0.0000 
     29 H29         4.5694   52.3469   20.4189 H         1 UNK         0.0000 
     30 H30         3.6854   53.7042   19.7034 H         1 UNK         0.0000 
     31 H31         5.1232   53.0527   18.9197 H         1 UNK         0.0000 
     32 H32         7.3776   54.6684   22.4743 H         1 UNK         0.0000 
     33 H33         7.0973   54.6502   24.8869 H         1 UNK         0.0000 
     34 H34         2.8667   53.9416   24.3561 H         1 UNK         0.0000 
     35 H35         3.1668   53.9440   21.9723 H         1 UNK         0.0000 
     36 H36         2.9530   53.4597   26.1045 H         1 UNK         0.0000 
     37 H37         5.0999   53.6197   29.1363 H         1 UNK         0.0000 
     38 H38         4.2858   52.9013   31.3092 H         1 UNK         0.0000 
     39 H39         1.9468   52.1822   31.6005 H         1 UNK         0.0000 
     40 H40         0.4361   52.1043   29.6970 H         1 UNK         0.0000 
     41 H41         5.9002   54.2935   17.1571 H         1 UNK         0.0000 
     42 H42         7.5882   53.2955   15.6611 H         1 UNK         0.0000 
     43 H43         9.9861   53.4222   16.2495 H         1 UNK         0.0000 
     44 H44        10.7038   54.5442   18.3326 H         1 UNK         0.0000 
     45 H45         9.0303   55.5316   19.8418 H         1 UNK         0.0000 
     46 O46         1.3033   52.8519   25.9304 O.co2     1 UNK         0.0000 
@<TRIPOS>BOND
     1    1    2 1    
     2    1   29 1    
     3    1   30 1    
     4    1   31 1    
     5    2    3 1    
     6    2   20 1    
     7    3    8 ar   
     8    3    4 ar   
     9    4    5 ar   
    10    4   32 1    
    11    5    6 ar   
    12    5   33 1    
    13    6    7 ar   
    14    6    9 1    
    15    7    8 ar   
    16    7   34 1    
    17    8   35 1    
    18    9   10 2    
    19    9   11 am   BACKBONE|DICT|INTERRES
    20   11   12 1    
    21   11   36 1    
    22   12   17 ar   
    23   12   13 ar   
    24   13   14 ar   
    25   13   37 1    
    26   14   15 ar   
    27   14   38 1    
    28   15   16 ar   
    29   15   39 1    
    30   16   17 ar   
    31   16   40 1    
    32   17   18 1    
    33   18   19 2    
    34   18   46 1    
    35   20   21 2    
    36   20   22 2    
    37   20   23 1    
    38   23   28 ar   
    39   23   24 ar   
    40   24   25 ar   
    41   24   41 1    
    42   25   26 ar   
    43   25   42 1    
    44   26   27 ar   
    45   26   43 1    
    46   27   28 ar   
    47   27   44 1    
    48   28   45 1    
@<TRIPOS>SUBSTRUCTURE
     1 UNK         1 GROUP             0       ****    0 ROOT    
