@<TRIPOS>MOLECULE
ZINC67160900_6227
57   60    1
SMALL
USER_CHARGES


@<TRIPOS>ATOM
      1 C1          5.4387   54.2771   20.9046 C.ar      1 UNK         0.0000 
      2 C2          5.2990   54.1563   22.2850 C.ar      1 UNK         0.0000 
      3 N3          4.2311   53.2964   22.4654 N.pl3     1 UNK         0.0000 
      4 C4          3.7650   52.8403   21.2536 C.ar      1 UNK         0.0000 
      5 N5          4.4939   53.4830   20.2677 N.pl3     1 UNK         0.0000 
      6 C6          4.3515   53.2326   18.8300 C.3       1 UNK         0.0000 
      7 C7          2.9861   52.5502   18.5551 C.3       1 UNK         0.0000 
      8 C8          2.6820   51.4052   19.5440 C.3       1 UNK         0.0000 
      9 C9          2.5979   51.8998   21.0047 C.3       1 UNK         0.0000 
     10 C10         6.0732   54.7659   23.4388 C.3       1 UNK         0.0000 
     11 C11         5.2034   55.1618   24.6547 C.3       1 UNK         0.0000 
     12 N12         5.3249   54.2557   25.8015 N.am      1 UNK         0.0000 
     13 C13         6.2686   54.4075   26.7465 C.2       1 UNK         0.0000 
     14 O14         7.1040   55.2966   26.6765 O.2       1 UNK         0.0000 
     15 C15         6.2994   53.4572   27.9519 C.3       1 UNK         0.0000 
     16 C16         4.9171   53.0412   28.4913 C.3       1 UNK         0.0000 
     17 C17         4.0518   54.2153   29.0016 C.3       1 UNK         0.0000 
     18 C18         2.6741   53.8144   29.5709 C.3       1 UNK         0.0000 
     19 C19         1.5178   53.7187   28.5428 C.3       1 UNK         0.0000 
     20 H20         1.5143   54.6212   27.9307 H         1 UNK         0.0000 
     21 C21         1.4716   52.4442   27.6598 C.3       1 UNK         0.0000 
     22 H22         2.4589   52.0985   27.3798 H         1 UNK         0.0000 
     23 C23         0.6890   51.3447   28.3623 C.3       1 UNK         0.0000 
     24 H24         1.3469   50.5074   28.6148 H         1 UNK         0.0000 
     25 C25         0.0219   51.8927   29.6412 C.3       1 UNK         0.0000 
     26 S26        -0.0573   53.6860   29.4313 S.3       1 UNK         0.0000 
     27 N27        -0.2055   50.8951   27.3124 N.am      1 UNK         0.0000 
     28 C28        -0.1484   51.5718   26.1586 C.2       1 UNK         0.0000 
     29 O29        -0.5971   51.2460   25.0640 O.2       1 UNK         0.0000 
     30 N30         0.7121   52.5614   26.4266 N.am      1 UNK         0.0000 
     31 H31         6.1457   54.8448   20.3167 H         1 UNK         0.0000 
     32 H32         5.1657   52.5727   18.5235 H         1 UNK         0.0000 
     33 H33         4.4565   54.1664   18.2781 H         1 UNK         0.0000 
     34 H34         2.9805   52.1620   17.5360 H         1 UNK         0.0000 
     35 H35         2.1885   53.2948   18.5973 H         1 UNK         0.0000 
     36 H36         3.4603   50.6440   19.4540 H         1 UNK         0.0000 
     37 H37         1.7527   50.9055   19.2650 H         1 UNK         0.0000 
     38 H38         1.6571   52.4310   21.1596 H         1 UNK         0.0000 
     39 H39         2.6012   51.0555   21.6952 H         1 UNK         0.0000 
     40 H40         6.8673   54.0883   23.7577 H         1 UNK         0.0000 
     41 H41         6.6119   55.6489   23.0896 H         1 UNK         0.0000 
     42 H42         5.5045   56.1682   24.9573 H         1 UNK         0.0000 
     43 H43         4.1549   55.2918   24.3832 H         1 UNK         0.0000 
     44 H44         4.6512   53.5102   25.9011 H         1 UNK         0.0000 
     45 H45         6.8704   52.5728   27.6692 H         1 UNK         0.0000 
     46 H46         6.8708   53.9294   28.7537 H         1 UNK         0.0000 
     47 H47         4.4147   52.4965   27.7025 H         1 UNK         0.0000 
     48 H48         5.0617   52.3210   29.2987 H         1 UNK         0.0000 
     49 H49         4.6155   54.7244   29.7860 H         1 UNK         0.0000 
     50 H50         3.9136   54.9642   28.2214 H         1 UNK         0.0000 
     51 H51         2.7590   52.8916   30.1446 H         1 UNK         0.0000 
     52 H52         2.3971   54.5841   30.2936 H         1 UNK         0.0000 
     53 H53         0.6481   51.7160   30.5162 H         1 UNK         0.0000 
     54 H54        -0.9706   51.4775   29.8332 H         1 UNK         0.0000 
     55 H55        -0.9645   50.2576   27.5308 H         1 UNK         0.0000 
     56 H56         0.7082   53.4199   25.8993 H         1 UNK         0.0000 
     57 H57         3.8639   53.0152   23.3617 H         1 UNK         0.0000 
@<TRIPOS>BOND
     1    1    5 ar   
     2    1    2 ar   
     3    1   31 1    
     4    2    3 ar   
     5    2   10 1    
     6    3    4 ar   
     7    3   57 1    
     8    4    9 1    
     9    4    5 ar   
    10    5    6 1    
    11    6    7 1    
    12    6   32 1    
    13    6   33 1    
    14    7    8 1    
    15    7   34 1    
    16    7   35 1    
    17    8    9 1    
    18    8   36 1    
    19    8   37 1    
    20    9   38 1    
    21    9   39 1    
    22   10   11 1    
    23   10   40 1    
    24   10   41 1    
    25   11   12 1    
    26   11   42 1    
    27   11   43 1    
    28   12   13 am   BACKBONE|DICT|INTERRES
    29   12   44 1    
    30   13   14 2    
    31   13   15 1    
    32   15   16 1    
    33   15   45 1    
    34   15   46 1    
    35   16   17 1    
    36   16   47 1    
    37   16   48 1    
    38   17   18 1    
    39   17   49 1    
    40   17   50 1    
    41   18   19 1    
    42   18   51 1    
    43   18   52 1    
    44   19   20 1    
    45   19   26 1    
    46   19   21 1    
    47   21   22 1    
    48   21   30 1    
    49   21   23 1    
    50   23   24 1    
    51   23   25 1    
    52   23   27 1    
    53   25   26 1    
    54   25   53 1    
    55   25   54 1    
    56   27   28 am   BACKBONE|DICT|INTERRES
    57   27   55 1    
    58   28   29 2    
    59   28   30 am   BACKBONE|DICT|INTERRES
    60   30   56 1    
@<TRIPOS>SUBSTRUCTURE
     1 UNK         1 GROUP             0       ****    0 ROOT    
