@<TRIPOS>MOLECULE
ZINC27488966_3822
39   41    1
SMALL
USER_CHARGES


@<TRIPOS>ATOM
      1 C1          6.6501   54.4977   26.7493 C.ar      1 UNK         0.0000 
      2 C2          5.3947   54.4469   27.3507 C.ar      1 UNK         0.0000 
      3 C3          4.2262   54.4094   26.5741 C.ar      1 UNK         0.0000 
      4 C4          4.3542   54.4954   25.1751 C.ar      1 UNK         0.0000 
      5 C5          5.6090   54.5115   24.5721 C.ar      1 UNK         0.0000 
      6 C6          6.7538   54.5157   25.3593 C.ar      1 UNK         0.0000 
      7 Br7         5.7624   54.4972   22.6756 Br        1 UNK         0.0000 
      8 C8          2.8874   54.2633   27.2766 C.2       1 UNK         0.0000 
      9 O9          2.7245   54.8498   28.3493 O.2       1 UNK         0.0000 
     10 N10         1.9262   53.4335   26.7711 N.am      1 UNK         0.0000 
     11 C11         0.8103   52.7873   27.5153 C.3       1 UNK         0.0000 
     12 C12         0.0845   51.9765   26.3865 C.3       1 UNK         0.0000 
     13 H13        -0.9717   52.2595   26.3946 H         1 UNK         0.0000 
     14 C14         0.0894   50.4272   26.4811 C.3       1 UNK         0.0000 
     15 C15        -0.3364   49.7165   25.1896 C.3       1 UNK         0.0000 
     16 C16         0.5238   50.1747   24.0068 C.3       1 UNK         0.0000 
     17 C17         0.4330   51.6955   23.8031 C.3       1 UNK         0.0000 
     18 C18         0.6307   52.5550   25.0757 C.3       1 UNK         0.0000 
     19 H19         0.0840   53.4807   24.8852 H         1 UNK         0.0000 
     20 N20         1.9773   52.8727   25.4758 N.3       1 UNK         0.0000 
     21 C21         1.2970   51.9846   28.7684 C.3       1 UNK         0.0000 
     22 F22         1.7507   52.7514   29.7643 F         1 UNK         0.0000 
     23 F23         0.2863   51.2967   29.2831 F         1 UNK         0.0000 
     24 F24         2.2874   51.1428   28.4822 F         1 UNK         0.0000 
     25 O25        -0.0953   53.7158   28.0827 O.3       1 UNK         0.0000 
     26 H26         7.5354   54.4985   27.3679 H         1 UNK         0.0000 
     27 H27         5.3404   54.4072   28.4306 H         1 UNK         0.0000 
     28 H28         3.4934   54.5337   24.5256 H         1 UNK         0.0000 
     29 H29         7.7213   54.5252   24.8809 H         1 UNK         0.0000 
     30 H30         1.1039   50.0785   26.6672 H         1 UNK         0.0000 
     31 H31        -0.4973   50.0969   27.3344 H         1 UNK         0.0000 
     32 H32        -0.2489   48.6361   25.3216 H         1 UNK         0.0000 
     33 H33        -1.3896   49.9159   24.9876 H         1 UNK         0.0000 
     34 H34         1.5627   49.8861   24.1740 H         1 UNK         0.0000 
     35 H35         0.2134   49.6614   23.0961 H         1 UNK         0.0000 
     36 H36         1.1583   52.0065   23.0498 H         1 UNK         0.0000 
     37 H37        -0.5229   51.9580   23.3463 H         1 UNK         0.0000 
     38 H38         2.4902   52.0112   25.5950 H         1 UNK         0.0000 
     39 H39         0.3949   54.2606   28.7108 H         1 UNK         0.0000 
@<TRIPOS>BOND
     1    1    6 ar   
     2    1    2 ar   
     3    1   26 1    
     4    2    3 ar   
     5    2   27 1    
     6    3    4 ar   
     7    3    8 1    
     8    4    5 ar   
     9    4   28 1    
    10    5    6 ar   
    11    5    7 1    
    12    6   29 1    
    13    8    9 2    
    14    8   10 am   BACKBONE|DICT|INTERRES
    15   10   20 1    
    16   10   11 1    
    17   11   12 1    
    18   11   21 1    
    19   11   25 1    
    20   12   13 1    
    21   12   18 1    
    22   12   14 1    
    23   14   15 1    
    24   14   30 1    
    25   14   31 1    
    26   15   16 1    
    27   15   32 1    
    28   15   33 1    
    29   16   17 1    
    30   16   34 1    
    31   16   35 1    
    32   17   18 1    
    33   17   36 1    
    34   17   37 1    
    35   18   19 1    
    36   18   20 1    
    37   20   38 1    
    38   21   22 1    
    39   21   23 1    
    40   21   24 1    
    41   25   39 1    
@<TRIPOS>SUBSTRUCTURE
     1 UNK         1 GROUP             0       ****    0 ROOT    
