@<TRIPOS>MOLECULE
ZINC59849935_2633
46   48    1
SMALL
USER_CHARGES


@<TRIPOS>ATOM
      1 C1          5.2998   53.3277   28.2109 C.3       1 UNK         0.0000 
      2 C2          4.2791   54.1730   27.4100 C.3       1 UNK         0.0000 
      3 H3          4.3202   55.1901   27.8023 H         1 UNK         0.0000 
      4 C4          2.8233   53.6868   27.6636 C.ar      1 UNK         0.0000 
      5 C5          2.4139   53.7797   29.0053 C.ar      1 UNK         0.0000 
      6 C6          1.1856   53.2959   29.4310 C.ar      1 UNK         0.0000 
      7 C7          0.3309   52.7084   28.5146 C.ar      1 UNK         0.0000 
      8 C8          0.6920   52.6536   27.1734 C.ar      1 UNK         0.0000 
      9 C9          1.9115   53.1708   26.6852 C.ar      1 UNK         0.0000 
     10 N10         2.1915   53.1719   25.3260 N.2       1 UNK         0.0000 
     11 S11         1.2013   52.6281   24.2270 S.o2      1 UNK         0.0000 
     12 O12         1.1871   51.1658   24.1528 O.2       1 UNK         0.0000 
     13 O13        -0.1021   53.2967   24.2238 O.2       1 UNK         0.0000 
     14 C14         1.9890   53.1682   22.6171 C.3       1 UNK         0.0000 
     15 N15         4.6634   54.2732   26.0083 N.am      1 UNK         0.0000 
     16 C16         5.7842   54.7957   25.4751 C.2       1 UNK         0.0000 
     17 O17         6.7041   55.2999   26.1217 O.2       1 UNK         0.0000 
     18 C18         5.8459   54.6962   24.0444 C.ar      1 UNK         0.0000 
     19 C19         6.7044   55.2912   23.1361 C.ar      1 UNK         0.0000 
     20 C20         6.2826   54.8969   21.8556 C.ar      1 UNK         0.0000 
     21 N21         5.2682   54.0638   21.9398 N.2       1 UNK         0.0000 
     22 N22         5.0251   53.9428   23.2457 N.pl3     1 UNK         0.0000 
     23 H23         4.2697   53.3663   23.5916 H         1 UNK         0.0000 
     24 C24         6.8353   55.3197   20.5359 C.ar      1 UNK         0.0000 
     25 C25         6.0274   55.3412   19.3921 C.ar      1 UNK         0.0000 
     26 C26         6.5554   55.7455   18.1693 C.ar      1 UNK         0.0000 
     27 C27         7.8928   56.1239   18.0877 C.ar      1 UNK         0.0000 
     28 C28         8.7047   56.0981   19.2179 C.ar      1 UNK         0.0000 
     29 C29         8.1776   55.6968   20.4413 C.ar      1 UNK         0.0000 
     30 Br30        8.6190   56.6821   16.4201 Br        1 UNK         0.0000 
     31 H31         5.1050   53.3554   29.2813 H         1 UNK         0.0000 
     32 H32         5.2679   52.2860   27.9034 H         1 UNK         0.0000 
     33 H33         6.3240   53.6743   28.0796 H         1 UNK         0.0000 
     34 H34         3.0701   54.2138   29.7443 H         1 UNK         0.0000 
     35 H35         0.9023   53.3598   30.4717 H         1 UNK         0.0000 
     36 H36        -0.6184   52.3059   28.8365 H         1 UNK         0.0000 
     37 H37        -0.0288   52.2019   26.5092 H         1 UNK         0.0000 
     38 H38         1.2734   52.9975   21.8147 H         1 UNK         0.0000 
     39 H39         2.2280   54.2290   22.6727 H         1 UNK         0.0000 
     40 H40         2.8751   52.5632   22.4413 H         1 UNK         0.0000 
     41 H41         3.8992   54.0040   25.3943 H         1 UNK         0.0000 
     42 H42         7.5054   55.9722   23.3748 H         1 UNK         0.0000 
     43 H43         4.9879   55.0504   19.4483 H         1 UNK         0.0000 
     44 H44         5.9304   55.7655   17.2883 H         1 UNK         0.0000 
     45 H45         9.7429   56.3893   19.1465 H         1 UNK         0.0000 
     46 H46         8.8194   55.6784   21.3108 H         1 UNK         0.0000 
@<TRIPOS>BOND
     1    1    2 1    
     2    1   31 1    
     3    1   32 1    
     4    1   33 1    
     5    2    3 1    
     6    2    4 1    
     7    2   15 1    
     8    4    9 ar   
     9    4    5 ar   
    10    5    6 ar   
    11    5   34 1    
    12    6    7 ar   
    13    6   35 1    
    14    7    8 ar   
    15    7   36 1    
    16    8    9 ar   
    17    8   37 1    
    18    9   10 1    
    19   10   11 1    
    20   11   12 2    
    21   11   13 2    
    22   11   14 1    
    23   14   38 1    
    24   14   39 1    
    25   14   40 1    
    26   15   16 am   BACKBONE|DICT|INTERRES
    27   15   41 1    
    28   16   17 2    
    29   16   18 1    
    30   18   22 ar   
    31   18   19 ar   
    32   19   20 ar   
    33   19   42 1    
    34   20   21 ar   
    35   20   24 1    
    36   21   22 ar   
    37   22   23 1    
    38   24   29 ar   
    39   24   25 ar   
    40   25   26 ar   
    41   25   43 1    
    42   26   27 ar   
    43   26   44 1    
    44   27   28 ar   
    45   27   30 1    
    46   28   29 ar   
    47   28   45 1    
    48   29   46 1    
@<TRIPOS>SUBSTRUCTURE
     1 UNK         1 GROUP             0       ****    0 ROOT    
