@<TRIPOS>MOLECULE
ZINC09298139_5283
46   48    1
SMALL
USER_CHARGES


@<TRIPOS>ATOM
      1 C1          7.6079   55.3643   21.4234 C.3       1 UNK         0.0000 
      2 C2          6.6818   54.6870   22.4610 C.3       1 UNK         0.0000 
      3 H3          7.0850   53.6967   22.6631 H         1 UNK         0.0000 
      4 C4          6.6174   55.4612   23.7918 C.3       1 UNK         0.0000 
      5 C5          5.7706   54.7414   24.8595 C.3       1 UNK         0.0000 
      6 C6          4.4455   54.2009   24.2926 C.2       1 UNK         0.0000 
      7 C7          4.2695   54.0967   22.9056 C.2       1 UNK         0.0000 
      8 S8          2.7044   53.5145   22.4817 S.3       1 UNK         0.0000 
      9 C9          2.2310   53.4138   24.1524 C.2       1 UNK         0.0000 
     10 C10         3.2763   53.7958   25.0262 C.2       1 UNK         0.0000 
     11 C11         3.1105   53.8162   26.4863 C.2       1 UNK         0.0000 
     12 O12         1.9895   53.7394   27.0006 O.2       1 UNK         0.0000 
     13 N13         4.2606   53.8918   27.1869 N.am      1 UNK         0.0000 
     14 C14         4.4221   54.0967   28.5146 C.2       1 UNK         0.0000 
     15 O15         3.5136   54.2893   29.3257 O.2       1 UNK         0.0000 
     16 O16         5.7705   54.0967   28.8817 O.3       1 UNK         0.0000 
     17 C17         6.8427   53.8100   27.9849 C.3       1 UNK         0.0000 
     18 N18         0.9554   52.9927   24.5385 N.am      1 UNK         0.0000 
     19 C19        -0.0553   52.4967   23.7938 C.2       1 UNK         0.0000 
     20 O20        -0.0391   52.3116   22.5770 O.2       1 UNK         0.0000 
     21 C21        -1.3003   52.1912   24.5809 C.ar      1 UNK         0.0000 
     22 C22        -2.4744   52.8967   24.2797 C.ar      1 UNK         0.0000 
     23 C23        -3.6538   52.6489   24.9815 C.ar      1 UNK         0.0000 
     24 C24        -3.6768   51.6824   25.9849 C.ar      1 UNK         0.0000 
     25 C25        -2.5240   50.9560   26.2774 C.ar      1 UNK         0.0000 
     26 C26        -1.3392   51.1942   25.5785 C.ar      1 UNK         0.0000 
     27 I27         0.3044   49.9886   26.0817 I         1 UNK         0.0000 
     28 C28         5.2782   54.5024   21.8380 C.3       1 UNK         0.0000 
     29 H29         7.3506   56.4158   21.2953 H         1 UNK         0.0000 
     30 H30         8.6639   55.3136   21.6817 H         1 UNK         0.0000 
     31 H31         7.5180   54.8967   20.4425 H         1 UNK         0.0000 
     32 H32         7.6082   55.6081   24.2011 H         1 UNK         0.0000 
     33 H33         6.3044   56.4877   23.6454 H         1 UNK         0.0000 
     34 H34         5.6039   55.4491   25.6716 H         1 UNK         0.0000 
     35 H35         6.3510   53.9064   25.2514 H         1 UNK         0.0000 
     36 H36         5.1061   53.7888   26.6528 H         1 UNK         0.0000 
     37 H37         7.7522   53.6698   28.5684 H         1 UNK         0.0000 
     38 H38         7.0180   54.6458   27.3089 H         1 UNK         0.0000 
     39 H39         6.6740   52.8967   27.4131 H         1 UNK         0.0000 
     40 H40         0.8004   53.0215   25.5384 H         1 UNK         0.0000 
     41 H41        -2.4773   53.6511   23.5053 H         1 UNK         0.0000 
     42 H42        -4.5504   53.2035   24.7458 H         1 UNK         0.0000 
     43 H43        -4.5888   51.4856   26.5291 H         1 UNK         0.0000 
     44 H44        -2.5463   50.1935   27.0456 H         1 UNK         0.0000 
     45 H45         5.3175   53.7508   21.0478 H         1 UNK         0.0000 
     46 H46         4.9586   55.4311   21.3699 H         1 UNK         0.0000 
@<TRIPOS>BOND
     1    1    2 1    
     2    1   29 1    
     3    1   30 1    
     4    1   31 1    
     5    2    3 1    
     6    2   28 1    
     7    2    4 1    
     8    4    5 1    
     9    4   32 1    
    10    4   33 1    
    11    5    6 1    
    12    5   34 1    
    13    5   35 1    
    14    6   10 1    
    15    6    7 2    
    16    7    8 1    
    17    7   28 1    
    18    8    9 1    
    19    9   10 2    
    20    9   18 am   BACKBONE|DICT|INTERRES
    21   10   11 1    
    22   11   12 2    
    23   11   13 am   BACKBONE|DICT|INTERRES
    24   13   14 am   BACKBONE|DICT|INTERRES
    25   13   36 1    
    26   14   15 2    
    27   14   16 1    
    28   16   17 1    
    29   17   37 1    
    30   17   38 1    
    31   17   39 1    
    32   18   19 am   BACKBONE|DICT|INTERRES
    33   18   40 1    
    34   19   20 2    
    35   19   21 1    
    36   21   26 ar   
    37   21   22 ar   
    38   22   23 ar   
    39   22   41 1    
    40   23   24 ar   
    41   23   42 1    
    42   24   25 ar   
    43   24   43 1    
    44   25   26 ar   
    45   25   44 1    
    46   26   27 1    
    47   28   45 1    
    48   28   46 1    
@<TRIPOS>SUBSTRUCTURE
     1 UNK         1 GROUP             0       ****    0 ROOT    
