@<TRIPOS>MOLECULE
ZINC37934304_1837
44   46    1
SMALL
USER_CHARGES


@<TRIPOS>ATOM
      1 C1          0.2618   52.0947   26.5071 C.ar      1 UNK         0.0000 
      2 C2         -0.4988   51.3342   25.6215 C.ar      1 UNK         0.0000 
      3 C3         -0.0875   51.1864   24.2953 C.ar      1 UNK         0.0000 
      4 C4          1.1064   51.7686   23.8639 C.ar      1 UNK         0.0000 
      5 C5          1.8733   52.5033   24.7703 C.ar      1 UNK         0.0000 
      6 C6          1.4672   52.6858   26.1046 C.ar      1 UNK         0.0000 
      7 N7          2.2639   53.3667   27.0280 N.pl3     1 UNK         0.0000 
      8 C8          1.7011   54.2587   28.0669 C.3       1 UNK         0.0000 
      9 C9          2.4631   54.2084   29.4048 C.3       1 UNK         0.0000 
     10 C10         3.9586   54.4550   29.2079 C.3       1 UNK         0.0000 
     11 C11         4.5076   53.4508   28.1795 C.3       1 UNK         0.0000 
     12 H12         4.3201   52.4479   28.5684 H         1 UNK         0.0000 
     13 C13         3.7222   53.5468   26.8369 C.3       1 UNK         0.0000 
     14 H14         4.0990   52.7005   26.2679 H         1 UNK         0.0000 
     15 C15         4.0991   54.8036   26.0152 C.3       1 UNK         0.0000 
     16 C16         5.6218   54.8970   25.7806 C.3       1 UNK         0.0000 
     17 C17         6.4229   54.7988   27.0928 C.3       1 UNK         0.0000 
     18 C18         6.0317   53.5691   27.9304 C.3       1 UNK         0.0000 
     19 S19         1.6926   51.5134   22.1852 S.o2      1 UNK         0.0000 
     20 O20         1.4120   50.1155   21.8413 O.2       1 UNK         0.0000 
     21 O21         3.0461   52.0668   22.0818 O.2       1 UNK         0.0000 
     22 N22         0.6674   52.4966   21.1814 N.pl3     1 UNK         0.0000 
     23 N23        -1.6499   50.6913   26.0753 N.pl3     1 UNK         0.0000 
     24 H24        -0.0658   52.1676   27.5323 H         1 UNK         0.0000 
     25 H25        -0.6720   50.5909   23.6088 H         1 UNK         0.0000 
     26 H26         2.8100   52.9114   24.4294 H         1 UNK         0.0000 
     27 H27         1.6881   55.2772   27.6816 H         1 UNK         0.0000 
     28 H28         0.6625   54.0056   28.2717 H         1 UNK         0.0000 
     29 H29         2.0538   54.9652   30.0755 H         1 UNK         0.0000 
     30 H30         2.2774   53.2554   29.9018 H         1 UNK         0.0000 
     31 H31         4.1313   55.4752   28.8823 H         1 UNK         0.0000 
     32 H32         4.4992   54.3637   30.1494 H         1 UNK         0.0000 
     33 H33         3.5969   54.8085   25.0487 H         1 UNK         0.0000 
     34 H34         3.7449   55.6945   26.5156 H         1 UNK         0.0000 
     35 H35         5.9339   54.0930   25.1115 H         1 UNK         0.0000 
     36 H36         5.8642   55.8284   25.2665 H         1 UNK         0.0000 
     37 H37         7.4911   54.7660   26.8793 H         1 UNK         0.0000 
     38 H38         6.2660   55.6955   27.6886 H         1 UNK         0.0000 
     39 H39         6.5667   53.5902   28.8789 H         1 UNK         0.0000 
     40 H40         6.3815   52.6749   27.4161 H         1 UNK         0.0000 
     41 H41         1.1054   53.3937   20.9350 H         1 UNK         0.0000 
     42 H42         0.3560   51.9971   20.3437 H         1 UNK         0.0000 
     43 H43        -1.6859   50.4624   27.0614 H         1 UNK         0.0000 
     44 H44        -2.0519   50.0068   25.4518 H         1 UNK         0.0000 
@<TRIPOS>BOND
     1    1    6 ar   
     2    1    2 ar   
     3    1   24 1    
     4    2    3 ar   
     5    2   23 1    
     6    3    4 ar   
     7    3   25 1    
     8    4    5 ar   
     9    4   19 1    
    10    5    6 ar   
    11    5   26 1    
    12    6    7 1    
    13    7   13 1    
    14    7    8 1    
    15    8    9 1    
    16    8   27 1    
    17    8   28 1    
    18    9   10 1    
    19    9   29 1    
    20    9   30 1    
    21   10   11 1    
    22   10   31 1    
    23   10   32 1    
    24   11   12 1    
    25   11   18 1    
    26   11   13 1    
    27   13   14 1    
    28   13   15 1    
    29   15   16 1    
    30   15   33 1    
    31   15   34 1    
    32   16   17 1    
    33   16   35 1    
    34   16   36 1    
    35   17   18 1    
    36   17   37 1    
    37   17   38 1    
    38   18   39 1    
    39   18   40 1    
    40   19   20 2    
    41   19   21 2    
    42   19   22 1    
    43   22   41 1    
    44   22   42 1    
    45   23   43 1    
    46   23   44 1    
@<TRIPOS>SUBSTRUCTURE
     1 UNK         1 GROUP             0       ****    0 ROOT    
