@<TRIPOS>MOLECULE
ZINC39665390_5543
70   74    1
SMALL
USER_CHARGES


@<TRIPOS>ATOM
      1 C1          0.6919   50.5325   16.3290 C.3       1 UNK         0.0000 
      2 C2          1.8097   51.4513   16.8513 C.3       1 UNK         0.0000 
      3 H3          2.7385   50.8965   16.9434 H         1 UNK         0.0000 
      4 C4          2.1219   52.6172   15.8926 C.3       1 UNK         0.0000 
      5 N5          3.2387   53.4060   16.3977 N.am      1 UNK         0.0000 
      6 C6          3.9658   54.3131   15.7224 C.2       1 UNK         0.0000 
      7 O7          3.7673   54.5518   14.5314 O.2       1 UNK         0.0000 
      8 C8          5.1460   55.0231   16.4537 C.3       1 UNK         0.0000 
      9 H9          6.0606   54.5680   16.0693 H         1 UNK         0.0000 
     10 C10         5.0831   54.7108   17.9646 C.3       1 UNK         0.0000 
     11 N11         5.7464   55.8295   18.6184 N.am      1 UNK         0.0000 
     12 C12         6.0371   56.9003   17.6571 C.3       1 UNK         0.0000 
     13 C13         5.1889   56.5782   16.3921 C.3       1 UNK         0.0000 
     14 C14         5.8015   57.1104   15.0710 C.3       1 UNK         0.0000 
     15 C15         5.9861   58.6433   15.0976 C.3       1 UNK         0.0000 
     16 N16         4.5976   59.2962   15.2830 N.4       1 UNK         0.0000 
     17 C17         3.8240   58.7740   16.5118 C.3       1 UNK         0.0000 
     18 C18         3.7701   57.2319   16.4666 C.3       1 UNK         0.0000 
     19 C19         6.0737   55.9177   19.9386 C.2       1 UNK         0.0000 
     20 O20         6.7049   56.8817   20.3827 O.2       1 UNK         0.0000 
     21 C21         5.5976   54.8968   20.8737 C.2       1 UNK         0.0000 
     22 C22         4.7067   53.8184   20.7913 C.2       1 UNK         0.0000 
     23 C23         4.5027   53.3470   22.0834 C.2       1 UNK         0.0000 
     24 C24         5.2696   54.1307   22.9256 C.2       1 UNK         0.0000 
     25 O25         5.9803   55.0189   22.1788 O.3       1 UNK         0.0000 
     26 C26         5.3535   54.2412   24.4067 C.ar      1 UNK         0.0000 
     27 C27         4.1746   54.0948   25.1451 C.ar      1 UNK         0.0000 
     28 C28         4.2038   54.1781   26.5337 C.ar      1 UNK         0.0000 
     29 C29         5.4112   54.4112   27.1839 C.ar      1 UNK         0.0000 
     30 C30         6.5866   54.5738   26.4554 C.ar      1 UNK         0.0000 
     31 C31         6.5617   54.4986   25.0616 C.ar      1 UNK         0.0000 
     32 F32         5.4414   54.4838   28.5335 F         1 UNK         0.0000 
     33 O33         1.4426   51.9985   18.1244 O.3       1 UNK         0.0000 
     34 C34         1.6253   51.2775   19.2928 C.ar      1 UNK         0.0000 
     35 C35         2.1634   49.9824   19.3631 C.ar      1 UNK         0.0000 
     36 C36         2.2998   49.3441   20.5939 C.ar      1 UNK         0.0000 
     37 C37         1.9076   49.9937   21.7608 C.ar      1 UNK         0.0000 
     38 C38         1.3746   51.2784   21.7055 C.ar      1 UNK         0.0000 
     39 C39         1.2367   51.9133   20.4736 C.ar      1 UNK         0.0000 
     40 H40         0.9602   50.1015   15.3650 H         1 UNK         0.0000 
     41 H41         0.5049   49.7051   17.0134 H         1 UNK         0.0000 
     42 H42        -0.2432   51.0787   16.2046 H         1 UNK         0.0000 
     43 H43         2.3573   52.2281   14.9000 H         1 UNK         0.0000 
     44 H44         1.2490   53.2630   15.7878 H         1 UNK         0.0000 
     45 H45         3.4716   53.2247   17.3642 H         1 UNK         0.0000 
     46 H46         4.0500   54.7718   18.3127 H         1 UNK         0.0000 
     47 H47         5.5458   53.7463   18.1824 H         1 UNK         0.0000 
     48 H48         7.0896   56.7962   17.3865 H         1 UNK         0.0000 
     49 H49         5.9135   57.9152   18.0333 H         1 UNK         0.0000 
     50 H50         6.7861   56.6633   14.9278 H         1 UNK         0.0000 
     51 H51         5.2152   56.7941   14.2062 H         1 UNK         0.0000 
     52 H52         6.6071   58.9965   15.9232 H         1 UNK         0.0000 
     53 H53         6.3840   59.0381   14.1616 H         1 UNK         0.0000 
     54 H54         4.6984   60.3017   15.4405 H         1 UNK         0.0000 
     55 H55         4.3610   59.1790   17.3650 H         1 UNK         0.0000 
     56 H56         2.8362   59.2385   16.4783 H         1 UNK         0.0000 
     57 H57         3.1355   56.9168   15.6368 H         1 UNK         0.0000 
     58 H58         3.2566   56.8872   17.3643 H         1 UNK         0.0000 
     59 H59         4.1868   53.4258   19.9318 H         1 UNK         0.0000 
     60 H60         3.8267   52.5587   22.3772 H         1 UNK         0.0000 
     61 H61         3.2349   53.9096   24.6454 H         1 UNK         0.0000 
     62 H62         3.2969   54.0583   27.1078 H         1 UNK         0.0000 
     63 H63         7.5049   54.7491   26.9901 H         1 UNK         0.0000 
     64 H64         7.4740   54.6190   24.4934 H         1 UNK         0.0000 
     65 H65         2.4874   49.4504   18.4813 H         1 UNK         0.0000 
     66 H66         2.7042   48.3438   20.6398 H         1 UNK         0.0000 
     67 H67         2.0160   49.4966   22.7155 H         1 UNK         0.0000 
     68 H68         1.0714   51.7791   22.6128 H         1 UNK         0.0000 
     69 H69         0.8243   52.9095   20.4308 H         1 UNK         0.0000 
     70 H70         4.0377   59.1759   14.4508 H         1 UNK         0.0000 
@<TRIPOS>BOND
     1    1    2 1    
     2    1   40 1    
     3    1   41 1    
     4    1   42 1    
     5    2    3 1    
     6    2    4 1    
     7    2   33 1    
     8    4    5 1    
     9    4   43 1    
    10    4   44 1    
    11    5    6 am   BACKBONE|DICT|INTERRES
    12    5   45 1    
    13    6    7 2    
    14    6    8 1    
    15    8    9 1    
    16    8   13 1    
    17    8   10 1    
    18   10   11 1    
    19   10   46 1    
    20   10   47 1    
    21   11   12 1    
    22   11   19 am   BACKBONE|DICT|INTERRES
    23   12   13 1    
    24   12   48 1    
    25   12   49 1    
    26   13   18 1    
    27   13   14 1    
    28   14   15 1    
    29   14   50 1    
    30   14   51 1    
    31   15   16 1    
    32   15   52 1    
    33   15   53 1    
    34   16   17 1    
    35   16   54 1    
    36   16   70 1    
    37   17   18 1    
    38   17   55 1    
    39   17   56 1    
    40   18   57 1    
    41   18   58 1    
    42   19   20 2    
    43   19   21 1    
    44   21   25 1    
    45   21   22 2    
    46   22   23 1    
    47   22   59 1    
    48   23   24 2    
    49   23   60 1    
    50   24   25 1    
    51   24   26 1    
    52   26   31 ar   
    53   26   27 ar   
    54   27   28 ar   
    55   27   61 1    
    56   28   29 ar   
    57   28   62 1    
    58   29   30 ar   
    59   29   32 1    
    60   30   31 ar   
    61   30   63 1    
    62   31   64 1    
    63   33   34 1    
    64   34   39 ar   
    65   34   35 ar   
    66   35   36 ar   
    67   35   65 1    
    68   36   37 ar   
    69   36   66 1    
    70   37   38 ar   
    71   37   67 1    
    72   38   39 ar   
    73   38   68 1    
    74   39   69 1    
@<TRIPOS>SUBSTRUCTURE
     1 UNK         1 GROUP             0       ****    0 ROOT    
