ZINC39623718_632
                    3D
 Schrodinger Suite 2024-2.
 72 76  0  0  1  0            999 V2000
    4.9613   54.1028   28.4335 C   0  0  0  0  0  0
    3.9962   54.4911   27.5094 C   0  0  0  0  0  0
    4.3775   54.8531   26.2215 C   0  0  0  0  0  0
    5.7312   54.8515   25.8609 C   0  0  0  0  0  0
    6.6915   54.4805   26.8039 C   0  0  0  0  0  0
    6.3072   54.0949   28.0832 C   0  0  0  0  0  0
    6.1875   55.2833   24.4657 C   0  0  0  0  0  0
    5.2393   54.8945   23.3110 C   0  0  0  0  0  0
    5.0955   53.3906   23.0747 C   0  0  0  0  0  0
    3.9320   53.0657   22.2426 N   0  0  0  0  0  0
    2.7032   52.7912   22.7215 C   0  0  0  0  0  0
    2.4277   52.9132   23.9176 O   0  0  0  0  0  0
    1.6118   52.3873   21.6856 C   0  0  2  0  0  0
    1.8484   52.8555   20.7327 H   0  0  0  0  0  0
    0.2345   52.7859   22.1906 C   0  0  0  0  0  0
   -0.3148   51.6215   22.8832 N   0  0  0  0  0  0
    0.5944   50.4711   22.7804 C   0  0  0  0  0  0
    1.4388   50.8392   21.5350 C   0  0  0  0  0  0
    0.6155   50.4079   20.2681 C   0  0  0  0  0  0
    1.2846   50.8132   18.9330 C   0  0  0  0  0  0
    2.7043   50.2047   18.9044 N   0  3  0  0  0  0
    3.5124   50.5392   20.1734 C   0  0  0  0  0  0
    2.7376   50.0251   21.4029 C   0  0  0  0  0  0
   -1.5808   51.6689   23.3709 C   0  0  0  0  0  0
   -2.2749   52.6858   23.2844 O   0  0  0  0  0  0
   -2.1343   50.4737   24.1061 C   0  0  0  0  0  0
   -2.2381   49.2288   23.4653 C   0  0  0  0  0  0
   -2.7692   48.1322   24.1431 C   0  0  0  0  0  0
   -3.2109   48.3122   25.4512 C   0  0  0  0  0  0
   -3.1610   49.5088   26.0823 N   0  0  0  0  0  0
   -2.6249   50.5700   25.4282 C   0  0  0  0  0  0
   -2.5989   52.0837   26.3615 S   0  0  0  0  0  0
   -1.0359   51.9863   27.1784 C   0  0  0  0  0  0
   -0.9925   51.6970   28.5400 C   0  0  0  0  0  0
    0.2264   51.7253   29.2095 C   0  0  0  0  0  0
    1.3988   52.0015   28.5077 C   0  0  0  0  0  0
    1.3585   52.2627   27.1394 C   0  0  0  0  0  0
    0.1376   52.2555   26.4735 C   0  0  0  0  0  0
    4.6656   53.8195   29.4331 H   0  0  0  0  0  0
    2.9547   54.5151   27.7925 H   0  0  0  0  0  0
    3.6074   55.1506   25.5263 H   0  0  0  0  0  0
    7.7381   54.4928   26.5540 H   0  0  0  0  0  0
    7.0526   53.8121   28.8111 H   0  0  0  0  0  0
    6.3048   56.3681   24.4833 H   0  0  0  0  0  0
    7.1770   54.8703   24.2578 H   0  0  0  0  0  0
    4.2416   55.2966   23.4936 H   0  0  0  0  0  0
    5.6034   55.2968   22.3681 H   0  0  0  0  0  0
    6.0080   52.9847   22.6382 H   0  0  0  0  0  0
    5.0208   52.9009   24.0418 H   0  0  0  0  0  0
    4.0806   53.0605   21.2435 H   0  0  0  0  0  0
    0.3043   53.6837   22.8144 H   0  0  0  0  0  0
   -0.3856   52.9334   21.3087 H   0  0  0  0  0  0
    0.1607   49.4802   22.6658 H   0  0  0  0  0  0
    1.2647   50.4491   23.6430 H   0  0  0  0  0  0
    0.4147   49.3339   20.2819 H   0  0  0  0  0  0
   -0.3742   50.8671   20.2822 H   0  0  0  0  0  0
    0.7648   50.4077   18.0643 H   0  0  0  0  0  0
    1.4000   51.8893   18.8033 H   0  0  0  0  0  0
    2.6435   49.2005   18.8065 H   0  0  0  0  0  0
    4.4874   50.0967   20.0819 H   0  0  0  0  0  0
    3.6665   51.6138   20.1277 H   0  0  0  0  0  0
    3.3523   50.1568   22.2929 H   0  0  0  0  0  0
    2.5521   48.9493   21.3509 H   0  0  0  0  0  0
   -1.9301   49.1052   22.4368 H   0  0  0  0  0  0
   -2.8432   47.1694   23.6620 H   0  0  0  0  0  0
   -3.6189   47.4949   26.0277 H   0  0  0  0  0  0
   -1.9007   51.4786   29.0851 H   0  0  0  0  0  0
    0.2533   51.5614   30.2745 H   0  0  0  0  0  0
    2.3455   52.0243   29.0272 H   0  0  0  0  0  0
    2.2645   52.4855   26.5932 H   0  0  0  0  0  0
    0.1080   52.5018   25.4237 H   0  0  0  0  0  0
    3.2393   50.4971   18.0881 H   0  0  0  0  0  0
  1  6  2  0  0  0
  1  2  1  0  0  0
  1 39  1  0  0  0
  2  3  2  0  0  0
  2 40  1  0  0  0
  3  4  1  0  0  0
  3 41  1  0  0  0
  4  5  2  0  0  0
  4  7  1  0  0  0
  5  6  1  0  0  0
  5 42  1  0  0  0
  6 43  1  0  0  0
  7  8  1  0  0  0
  7 44  1  0  0  0
  7 45  1  0  0  0
  8  9  1  0  0  0
  8 46  1  0  0  0
  8 47  1  0  0  0
  9 10  1  0  0  0
  9 48  1  0  0  0
  9 49  1  0  0  0
 10 11  1  0  0  0
 10 50  1  0  0  0
 11 12  2  0  0  0
 11 13  1  0  0  0
 13 14  1  0  0  0
 13 18  1  0  0  0
 13 15  1  0  0  0
 15 16  1  0  0  0
 15 51  1  0  0  0
 15 52  1  0  0  0
 16 17  1  0  0  0
 16 24  1  0  0  0
 17 18  1  0  0  0
 17 53  1  0  0  0
 17 54  1  0  0  0
 18 23  1  0  0  0
 18 19  1  0  0  0
 19 20  1  0  0  0
 19 55  1  0  0  0
 19 56  1  0  0  0
 20 21  1  0  0  0
 20 57  1  0  0  0
 20 58  1  0  0  0
 21 22  1  0  0  0
 21 59  1  0  0  0
 21 72  1  0  0  0
 22 23  1  0  0  0
 22 60  1  0  0  0
 22 61  1  0  0  0
 23 62  1  0  0  0
 23 63  1  0  0  0
 24 25  2  0  0  0
 24 26  1  0  0  0
 26 31  2  0  0  0
 26 27  1  0  0  0
 27 28  2  0  0  0
 27 64  1  0  0  0
 28 29  1  0  0  0
 28 65  1  0  0  0
 29 30  2  0  0  0
 29 66  1  0  0  0
 30 31  1  0  0  0
 31 32  1  0  0  0
 32 33  1  0  0  0
 33 38  2  0  0  0
 33 34  1  0  0  0
 34 35  2  0  0  0
 34 67  1  0  0  0
 35 36  1  0  0  0
 35 68  1  0  0  0
 36 37  2  0  0  0
 36 69  1  0  0  0
 37 38  1  0  0  0
 37 70  1  0  0  0
 38 71  1  0  0  0
M  CHG  1  21   1
M  END
> <i_i_glide_confnum>
287

> <i_i_glide_lignum>
633

> <i_i_glide_posenum>
303

> <i_i_glide_rotatable_bonds>
10

> <i_m_Source_File_Index>
4881

> <b_m_subgroup_collapsed>
0

> <r_i_docking_score>
-4.21208

> <r_i_glide_ecoul>
0.477331

> <r_i_glide_eff_state_penalty>
0

> <r_i_glide_einternal>
6.86794

> <r_i_glide_emodel>
-44.7598

> <r_i_glide_energy>
-34.2766

> <r_i_glide_erotb>
0.694476

> <r_i_glide_esite>
-0.1

> <r_i_glide_evdw>
-34.7539

> <r_i_glide_gscore>
-4.21208

> <r_i_glide_hbond>
-0.133131

> <r_i_glide_ligand_efficiency>
-0.11384

> <r_i_glide_ligand_efficiency_ln>
-0.913502

> <r_i_glide_ligand_efficiency_sa>
-0.37934

> <r_i_glide_lipo>
-2.81128

> <r_i_glide_metal>
0

> <r_i_glide_rewards>
-0.196049

> <s_i_glide_gridfile>
wee1_glide-grid

> <s_m_Source_File>
wee1_decoys_glide_SP.sdf

> <s_m_Source_Path>
/Users/zhangxujun/Desktop

> <s_m_entry_id>
5156

> <s_m_entry_name>
wee1_decoys_glide_SP.4881

> <s_m_subgroup_title>
wee1_decoys_glide_SP

> <s_m_subgroupid>
wee1_decoys_glide_SP


$$$$
