@<TRIPOS>MOLECULE
ZINC39884128_3350
48   52    1
SMALL
USER_CHARGES


@<TRIPOS>ATOM
      1 C1          1.5135   53.7612   24.2688 C.ar      1 UNK         0.0000 
      2 C2          2.0263   54.0979   23.0227 C.ar      1 UNK         0.0000 
      3 C3          3.3992   54.2346   22.8556 C.ar      1 UNK         0.0000 
      4 C4          4.2593   54.0967   23.9388 C.ar      1 UNK         0.0000 
      5 C5          3.7482   53.6967   25.1707 C.ar      1 UNK         0.0000 
      6 C6          2.3768   53.4571   25.3305 C.ar      1 UNK         0.0000 
      7 C7          1.8494   52.7701   26.6141 C.3       1 UNK         0.0000 
      8 H8          2.6570   52.0969   26.9043 H         1 UNK         0.0000 
      9 C9          0.6550   51.8325   26.3512 C.2       1 UNK         0.0000 
     10 C10        -0.3480   51.5440   27.1996 C.2       1 UNK         0.0000 
     11 N11        -1.3433   50.7594   26.6659 N.am      1 UNK         0.0000 
     12 C12        -1.0948   50.2160   25.4066 C.2       1 UNK         0.0000 
     13 O13        -1.8019   49.4680   24.7288 O.2       1 UNK         0.0000 
     14 S14         0.5030   50.8469   24.8816 S.3       1 UNK         0.0000 
     15 C15        -2.6642   50.5123   27.2802 C.3       1 UNK         0.0000 
     16 C16        -3.6818   51.6041   26.8829 C.2       1 UNK         0.0000 
     17 O17        -3.3570   52.5534   26.1644 O.2       1 UNK         0.0000 
     18 N18        -4.9080   51.4479   27.4242 N.am      1 UNK         0.0000 
     19 C19        -6.0324   52.2900   27.3108 C.ar      1 UNK         0.0000 
     20 C20        -6.9940   52.1769   28.3188 C.ar      1 UNK         0.0000 
     21 C21        -8.1203   52.9964   28.3076 C.ar      1 UNK         0.0000 
     22 C22        -8.2929   53.9221   27.2818 C.ar      1 UNK         0.0000 
     23 C23        -7.3559   54.0248   26.2575 C.ar      1 UNK         0.0000 
     24 C24        -6.2266   53.2090   26.2661 C.ar      1 UNK         0.0000 
     25 F25        -9.3793   54.7275   27.2806 F         1 UNK         0.0000 
     26 S26        -0.4956   52.0968   28.8919 S.3       1 UNK         0.0000 
     27 C27         0.8755   53.2868   29.0228 C.3       1 UNK         0.0000 
     28 H28         0.3891   54.1403   29.5006 H         1 UNK         0.0000 
     29 C29         1.6242   53.7762   27.7967 C.3       1 UNK         0.0000 
     30 H30         1.1445   54.6781   27.4175 H         1 UNK         0.0000 
     31 C31         2.9498   54.1496   28.4823 C.2       1 UNK         0.0000 
     32 O32         3.7709   54.8967   27.9652 O.2       1 UNK         0.0000 
     33 N33         3.0744   53.5621   29.6455 N.2       1 UNK         0.0000 
     34 C34         2.0033   52.8917   29.9654 C.2       1 UNK         0.0000 
     35 O35         1.8909   52.0968   30.8956 O.2       1 UNK         0.0000 
     36 O36         3.9044   54.4966   21.6133 O.3       1 UNK         0.0000 
     37 H37         0.4455   53.6385   24.3740 H         1 UNK         0.0000 
     38 H38         1.3585   54.2277   22.1859 H         1 UNK         0.0000 
     39 H39         5.3237   54.2240   23.8087 H         1 UNK         0.0000 
     40 H40         4.4383   53.4884   25.9752 H         1 UNK         0.0000 
     41 H41        -3.0438   49.5325   26.9864 H         1 UNK         0.0000 
     42 H42        -2.5712   50.4807   28.3654 H         1 UNK         0.0000 
     43 H43        -5.0147   50.6728   28.0615 H         1 UNK         0.0000 
     44 H44        -6.8687   51.4666   29.1238 H         1 UNK         0.0000 
     45 H45        -8.8578   52.9174   29.0925 H         1 UNK         0.0000 
     46 H46        -7.5093   54.7336   25.4574 H         1 UNK         0.0000 
     47 H47        -5.5231   53.2994   25.4529 H         1 UNK         0.0000 
     48 H48         3.2133   54.5497   20.9448 H         1 UNK         0.0000 
@<TRIPOS>BOND
     1    1    6 ar   
     2    1    2 ar   
     3    1   37 1    
     4    2    3 ar   
     5    2   38 1    
     6    3    4 ar   
     7    3   36 1    
     8    4    5 ar   
     9    4   39 1    
    10    5    6 ar   
    11    5   40 1    
    12    6    7 1    
    13    7    8 1    
    14    7   29 1    
    15    7    9 1    
    16    9   14 1    
    17    9   10 2    
    18   10   11 am   BACKBONE|DICT|INTERRES
    19   10   26 1    
    20   11   12 am   BACKBONE|DICT|INTERRES
    21   11   15 1    
    22   12   13 2    
    23   12   14 1    
    24   15   16 1    
    25   15   41 1    
    26   15   42 1    
    27   16   17 2    
    28   16   18 am   BACKBONE|DICT|INTERRES
    29   18   19 1    
    30   18   43 1    
    31   19   24 ar   
    32   19   20 ar   
    33   20   21 ar   
    34   20   44 1    
    35   21   22 ar   
    36   21   45 1    
    37   22   23 ar   
    38   22   25 1    
    39   23   24 ar   
    40   23   46 1    
    41   24   47 1    
    42   26   27 1    
    43   27   28 1    
    44   27   34 1    
    45   27   29 1    
    46   29   30 1    
    47   29   31 1    
    48   31   32 2    
    49   31   33 1    
    50   33   34 1    
    51   34   35 2    
    52   36   48 1    
@<TRIPOS>SUBSTRUCTURE
     1 UNK         1 GROUP             0       ****    0 ROOT    
