ZINC12657090_1881
                    3D
 Schrodinger Suite 2024-2.
 58 61  0  0  1  0            999 V2000
    2.5288   49.6686   19.7560 C   0  0  0  0  0  0
    1.9386   51.0918   19.5650 C   0  0  2  0  0  0
    1.5673   51.2284   18.0461 C   0  0  0  0  0  0
    1.5765   52.6631   17.4825 C   0  0  0  0  0  0
    2.9166   53.3448   17.7575 C   0  0  0  0  0  0
    3.4152   54.1566   16.9836 O   0  0  0  0  0  0
    3.4755   53.0969   19.0729 C   0  0  0  0  0  0
    3.0627   52.1157   19.9091 C   0  0  0  0  0  0
    3.6090   52.0276   21.3353 C   0  0  0  0  0  0
    2.4859   51.7170   22.3540 C   0  0  0  0  0  0
    1.0707   52.1021   21.8647 C   0  0  1  0  0  0
    1.1601   53.1559   21.5796 H   0  0  0  0  0  0
    0.6921   51.3424   20.5297 C   0  0  2  0  0  0
    0.0627   52.0734   20.0175 H   0  0  0  0  0  0
   -0.2504   50.0971   20.7512 C   0  0  1  0  0  0
    0.3495   49.2712   21.1272 H   0  0  0  0  0  0
   -1.3776   50.3458   21.7779 C   0  0  0  0  0  0
   -0.8117   50.7395   23.1748 C   0  0  1  0  0  0
   -0.0809   52.0928   22.9211 C   0  0  1  0  0  0
   -0.8273   52.7544   22.4753 H   0  0  0  0  0  0
    0.1571   52.6704   24.3183 C   0  0  0  0  0  0
   -1.0004   52.1070   25.1697 C   0  0  0  0  0  0
   -1.8856   51.2015   24.2585 C   0  0  2  0  0  0
   -2.6705   50.1067   25.0398 C   0  0  0  0  0  0
   -2.8267   48.8342   24.6173 C   0  0  0  0  0  0
   -3.3851   50.5217   26.3357 C   0  0  0  0  0  0
   -2.4614   50.7326   27.3849 O   0  0  0  0  0  0
   -2.8711   52.0518   23.6788 O   0  0  0  0  0  0
    0.1433   49.6351   23.7591 C   0  0  0  0  0  0
   -0.8167   49.6179   19.5491 O   0  0  0  0  0  0
    1.8982   48.8938   19.3230 H   0  0  0  0  0  0
    3.5044   49.5805   19.2784 H   0  0  0  0  0  0
    2.6777   49.4047   20.8017 H   0  0  0  0  0  0
    2.2856   50.6587   17.4492 H   0  0  0  0  0  0
    0.6062   50.7695   17.8246 H   0  0  0  0  0  0
    0.8094   53.2600   17.9748 H   0  0  0  0  0  0
    1.3755   52.6887   16.4112 H   0  0  0  0  0  0
    4.2521   53.7608   19.4176 H   0  0  0  0  0  0
    4.4058   51.2872   21.4046 H   0  0  0  0  0  0
    4.0669   52.9836   21.5955 H   0  0  0  0  0  0
    2.7053   52.2951   23.2504 H   0  0  0  0  0  0
    2.5578   50.6903   22.6920 H   0  0  0  0  0  0
   -2.0103   49.4626   21.8435 H   0  0  0  0  0  0
   -2.0307   51.1332   21.3974 H   0  0  0  0  0  0
    0.2163   53.7596   24.3150 H   0  0  0  0  0  0
    1.0878   52.2940   24.7451 H   0  0  0  0  0  0
   -1.5720   52.8968   25.6594 H   0  0  0  0  0  0
   -0.5511   51.5198   25.9709 H   0  0  0  0  0  0
   -2.4168   48.4646   23.6938 H   0  0  0  0  0  0
   -3.3948   48.1246   25.2020 H   0  0  0  0  0  0
   -4.1343   49.7873   26.6438 H   0  0  0  0  0  0
   -3.9154   51.4623   26.1705 H   0  0  0  0  0  0
   -2.1130   49.8702   27.6828 H   0  0  0  0  0  0
   -3.4230   52.3816   24.3920 H   0  0  0  0  0  0
    1.0046   49.4295   23.1383 H   0  0  0  0  0  0
    0.5316   49.8940   24.7433 H   0  0  0  0  0  0
   -0.3314   48.6647   23.8648 H   0  0  0  0  0  0
   -0.1021   49.3764   18.9539 H   0  0  0  0  0  0
  1  2  1  0  0  0
  1 31  1  0  0  0
  1 32  1  0  0  0
  1 33  1  0  0  0
  2  8  1  0  0  0
  2 13  1  0  0  0
  2  3  1  0  0  0
  3  4  1  0  0  0
  3 34  1  0  0  0
  3 35  1  0  0  0
  4  5  1  0  0  0
  4 36  1  0  0  0
  4 37  1  0  0  0
  5  6  2  0  0  0
  5  7  1  0  0  0
  7  8  2  0  0  0
  7 38  1  0  0  0
  8  9  1  0  0  0
  9 10  1  0  0  0
  9 39  1  0  0  0
  9 40  1  0  0  0
 10 11  1  0  0  0
 10 41  1  0  0  0
 10 42  1  0  0  0
 11 12  1  0  0  0
 11 19  1  0  0  0
 11 13  1  0  0  0
 13 14  1  0  0  0
 13 15  1  0  0  0
 15 16  1  0  0  0
 15 17  1  0  0  0
 15 30  1  0  0  0
 17 18  1  0  0  0
 17 43  1  0  0  0
 17 44  1  0  0  0
 18 23  1  0  0  0
 18 19  1  0  0  0
 18 29  1  0  0  0
 19 20  1  0  0  0
 19 21  1  0  0  0
 21 22  1  0  0  0
 21 45  1  0  0  0
 21 46  1  0  0  0
 22 23  1  0  0  0
 22 47  1  0  0  0
 22 48  1  0  0  0
 23 24  1  0  0  0
 23 28  1  0  0  0
 24 25  2  0  0  0
 24 26  1  0  0  0
 25 49  1  0  0  0
 25 50  1  0  0  0
 26 27  1  0  0  0
 26 51  1  0  0  0
 26 52  1  0  0  0
 27 53  1  0  0  0
 28 54  1  0  0  0
 29 55  1  0  0  0
 29 56  1  0  0  0
 29 57  1  0  0  0
 30 58  1  0  0  0
M  END
> <i_i_glide_confnum>
12

> <i_i_glide_lignum>
1882

> <i_i_glide_posenum>
164

> <i_i_glide_rotatable_bonds>
5

> <i_m_Source_File_Index>
5941

> <b_m_subgroup_collapsed>
0

> <r_i_docking_score>
-2.98094

> <r_i_glide_ecoul>
-4.48698

> <r_i_glide_eff_state_penalty>
0

> <r_i_glide_einternal>
6.7464

> <r_i_glide_emodel>
-30.6534

> <r_i_glide_energy>
-28.1165

> <r_i_glide_erotb>
0.295181

> <r_i_glide_esite>
-0.0207463

> <r_i_glide_evdw>
-23.6295

> <r_i_glide_gscore>
-2.98094

> <r_i_glide_hbond>
-0.16

> <r_i_glide_ligand_efficiency>
-0.114651

> <r_i_glide_ligand_efficiency_ln>
-0.700063

> <r_i_glide_ligand_efficiency_sa>
-0.339654

> <r_i_glide_lipo>
-0.289626

> <r_i_glide_metal>
0

> <r_i_glide_rewards>
-0.951224

> <s_i_glide_gridfile>
wee1_glide-grid

> <s_m_Source_File>
wee1_decoys_glide_SP.sdf

> <s_m_Source_Path>
/Users/zhangxujun/Desktop

> <s_m_entry_id>
6216

> <s_m_entry_name>
wee1_decoys_glide_SP.5941

> <s_m_subgroup_title>
wee1_decoys_glide_SP

> <s_m_subgroupid>
wee1_decoys_glide_SP


$$$$
