ZINC14544862_2351
                    3D
 Schrodinger Suite 2024-2.
 58 63  0  0  1  0            999 V2000
    4.8564   58.1562   16.8725 C   0  0  0  0  0  0
    6.0649   57.8156   17.4749 C   0  0  0  0  0  0
    6.1979   56.5817   18.1065 C   0  0  0  0  0  0
    5.1136   55.7008   18.1512 C   0  0  0  0  0  0
    3.9059   56.0463   17.5345 C   0  0  0  0  0  0
    3.7796   57.2723   16.8857 C   0  0  0  0  0  0
    5.2473   54.3669   18.8733 C   0  0  0  0  0  0
    4.3043   54.2981   20.0037 N   0  0  0  0  0  0
    3.8673   52.6971   20.5764 S   0  0  0  0  0  0
    2.8394   52.1599   19.6796 O   0  0  0  0  0  0
    5.1043   51.9600   20.8481 O   0  0  0  0  0  0
    3.1144   52.9612   22.1678 C   0  0  0  0  0  0
    3.6599   53.9062   23.0335 C   0  0  0  0  0  0
    3.1281   54.0608   24.3079 C   0  0  0  0  0  0
    2.0593   53.2659   24.7216 C   0  0  0  0  0  0
    1.5041   52.2945   23.8728 C   0  0  0  0  0  0
    2.0319   52.1805   22.5778 C   0  0  0  0  0  0
    0.3562   51.4036   24.3439 C   0  0  1  0  0  0
   -0.5081   51.6890   23.7438 H   0  0  0  0  0  0
    0.6058   49.9207   24.1476 C   0  0  0  0  0  0
    0.2088   49.2086   25.2109 C   0  0  0  0  0  0
   -0.3172   50.0966   26.3114 C   0  0  0  0  0  0
    0.0027   51.5327   25.8510 C   0  0  1  0  0  0
   -0.9039   52.1383   25.9195 H   0  0  0  0  0  0
    1.0816   52.2284   26.7464 C   0  0  1  0  0  0
    1.9038   51.5313   26.8821 H   0  0  0  0  0  0
    1.6635   53.3725   26.0563 N   0  0  0  0  0  0
    0.6152   52.6150   28.1602 C   0  0  0  0  0  0
   -0.1742   51.8636   29.0245 C   0  0  0  0  0  0
   -0.3337   52.4916   30.2299 N   0  0  0  0  0  0
   -0.8547   52.0902   31.0044 H   0  0  0  0  0  0
    0.3020   53.7058   30.1969 C   0  0  0  0  0  0
    0.9267   53.8215   28.9153 C   0  0  0  0  0  0
    1.6703   54.9972   28.6623 C   0  0  0  0  0  0
    1.7434   55.9956   29.6273 C   0  0  0  0  0  0
    1.1044   55.8532   30.8495 C   0  0  0  0  0  0
    0.3755   54.7041   31.1677 C   0  0  0  0  0  0
    4.7526   59.1217   16.3939 H   0  0  0  0  0  0
    6.8878   58.5155   17.4564 H   0  0  0  0  0  0
    7.1363   56.3223   18.5754 H   0  0  0  0  0  0
    3.0627   55.3705   17.5620 H   0  0  0  0  0  0
    2.8468   57.5506   16.4174 H   0  0  0  0  0  0
    5.1232   53.5104   18.2058 H   0  0  0  0  0  0
    6.2534   54.2894   19.2858 H   0  0  0  0  0  0
    3.4334   54.7469   19.6986 H   0  0  0  0  0  0
    4.5077   54.5026   22.7311 H   0  0  0  0  0  0
    3.5703   54.7801   24.9833 H   0  0  0  0  0  0
    1.6254   51.4450   21.8992 H   0  0  0  0  0  0
    1.0030   49.5120   23.2294 H   0  0  0  0  0  0
    0.2519   48.1330   25.3173 H   0  0  0  0  0  0
    0.1991   49.8272   27.2298 H   0  0  0  0  0  0
   -1.3855   49.9381   26.4657 H   0  0  0  0  0  0
    2.2183   53.9503   26.6660 H   0  0  0  0  0  0
   -0.6392   50.8955   28.8970 H   0  0  0  0  0  0
    2.1818   55.1640   27.7299 H   0  0  0  0  0  0
    2.3028   56.8988   29.4263 H   0  0  0  0  0  0
    1.1869   56.6473   31.5790 H   0  0  0  0  0  0
   -0.0951   54.5851   32.1335 H   0  0  0  0  0  0
  1  6  2  0  0  0
  1  2  1  0  0  0
  1 38  1  0  0  0
  2  3  2  0  0  0
  2 39  1  0  0  0
  3  4  1  0  0  0
  3 40  1  0  0  0
  4  5  2  0  0  0
  4  7  1  0  0  0
  5  6  1  0  0  0
  5 41  1  0  0  0
  6 42  1  0  0  0
  7  8  1  0  0  0
  7 43  1  0  0  0
  7 44  1  0  0  0
  8  9  1  0  0  0
  8 45  1  0  0  0
  9 10  2  0  0  0
  9 11  2  0  0  0
  9 12  1  0  0  0
 12 17  2  0  0  0
 12 13  1  0  0  0
 13 14  2  0  0  0
 13 46  1  0  0  0
 14 15  1  0  0  0
 14 47  1  0  0  0
 15 27  1  0  0  0
 15 16  2  0  0  0
 16 17  1  0  0  0
 16 18  1  0  0  0
 17 48  1  0  0  0
 18 19  1  0  0  0
 18 23  1  0  0  0
 18 20  1  0  0  0
 20 21  2  0  0  0
 20 49  1  0  0  0
 21 22  1  0  0  0
 21 50  1  0  0  0
 22 23  1  0  0  0
 22 51  1  0  0  0
 22 52  1  0  0  0
 23 24  1  0  0  0
 23 25  1  0  0  0
 25 26  1  0  0  0
 25 27  1  0  0  0
 25 28  1  0  0  0
 27 53  1  0  0  0
 28 33  1  0  0  0
 28 29  2  0  0  0
 29 30  1  0  0  0
 29 54  1  0  0  0
 30 31  1  0  0  0
 30 32  1  0  0  0
 32 37  2  0  0  0
 32 33  1  0  0  0
 33 34  2  0  0  0
 34 35  1  0  0  0
 34 55  1  0  0  0
 35 36  2  0  0  0
 35 56  1  0  0  0
 36 37  1  0  0  0
 36 57  1  0  0  0
 37 58  1  0  0  0
M  END
> <i_i_glide_confnum>
72

> <i_i_glide_lignum>
2352

> <i_i_glide_posenum>
374

> <i_i_glide_rotatable_bonds>
5

> <i_m_Source_File_Index>
655

> <b_m_subgroup_collapsed>
0

> <r_i_docking_score>
-3.62466

> <r_i_glide_ecoul>
-6.92814

> <r_i_glide_eff_state_penalty>
0

> <r_i_glide_einternal>
10.3228

> <r_i_glide_emodel>
-48.6287

> <r_i_glide_energy>
-50.7478

> <r_i_glide_erotb>
0.387194

> <r_i_glide_esite>
-0.127543

> <r_i_glide_evdw>
-43.8197

> <r_i_glide_gscore>
-3.62466

> <r_i_glide_hbond>
-0.317842

> <r_i_glide_ligand_efficiency>
-0.109838

> <r_i_glide_ligand_efficiency_ln>
-0.806106

> <r_i_glide_ligand_efficiency_sa>
-0.35231

> <r_i_glide_lipo>
-2.93941

> <r_i_glide_metal>
0

> <r_i_glide_rewards>
2.60315

> <s_i_glide_gridfile>
wee1_glide-grid

> <s_m_Source_File>
wee1_decoys_glide_SP.sdf

> <s_m_Source_Path>
/Users/zhangxujun/Desktop

> <s_m_entry_id>
930

> <s_m_entry_name>
wee1_decoys_glide_SP.655

> <s_m_subgroup_title>
wee1_decoys_glide_SP

> <s_m_subgroupid>
wee1_decoys_glide_SP


$$$$
