@<TRIPOS>MOLECULE
ZINC02820168_5234
71   75    1
SMALL
USER_CHARGES


@<TRIPOS>ATOM
      1 C1          1.2861   52.8809   13.6453 C.ar      1 UNK         0.0000 
      2 C2          0.4649   53.5113   14.5772 C.ar      1 UNK         0.0000 
      3 C3          0.5834   53.1931   15.9288 C.ar      1 UNK         0.0000 
      4 C4          1.5159   52.2382   16.3453 C.ar      1 UNK         0.0000 
      5 C5          2.3392   51.6153   15.4002 C.ar      1 UNK         0.0000 
      6 C6          2.2236   51.9354   14.0507 C.ar      1 UNK         0.0000 
      7 C7          1.6642   51.9201   17.8382 C.3       1 UNK         0.0000 
      8 C8          1.0035   50.5837   18.2095 C.ar      1 UNK         0.0000 
      9 C9         -0.3924   50.5189   18.2742 C.ar      1 UNK         0.0000 
     10 C10        -1.0258   49.3284   18.6194 C.ar      1 UNK         0.0000 
     11 C11        -0.2621   48.1971   18.9016 C.ar      1 UNK         0.0000 
     12 C12         1.1289   48.2492   18.8467 C.ar      1 UNK         0.0000 
     13 C13         1.7605   49.4412   18.5048 C.ar      1 UNK         0.0000 
     14 C14         3.0994   52.1124   19.9549 C.3       1 UNK         0.0000 
     15 C15         4.5425   52.2720   20.4698 C.3       1 UNK         0.0000 
     16 N16         5.0538   53.5634   19.9655 N.am      1 UNK         0.0000 
     17 C17         5.1430   53.6520   18.4985 C.3       1 UNK         0.0000 
     18 C18         3.7156   53.4803   17.9338 C.3       1 UNK         0.0000 
     19 C19         5.5051   54.5761   20.7567 C.2       1 UNK         0.0000 
     20 O20         6.1272   55.5480   20.3265 O.2       1 UNK         0.0000 
     21 C21         5.2303   54.4960   22.2326 C.ar      1 UNK         0.0000 
     22 C22         3.9198   54.3059   22.6906 C.ar      1 UNK         0.0000 
     23 C23         3.6697   54.1668   24.0471 C.ar      1 UNK         0.0000 
     24 C24         4.7263   54.2484   24.9513 C.ar      1 UNK         0.0000 
     25 C25         6.0306   54.4781   24.5119 C.ar      1 UNK         0.0000 
     26 C26         6.2841   54.6036   23.1483 C.ar      1 UNK         0.0000 
     27 C27         4.4398   54.0883   26.3617 C.1       1 UNK         0.0000 
     28 C28         4.1104   53.9784   27.5303 C.1       1 UNK         0.0000 
     29 C29         3.6576   53.9567   28.9324 C.3       1 UNK         0.0000 
     30 C30         2.4069   54.8552   29.1085 C.3       1 UNK         0.0000 
     31 C31         1.1388   54.2423   28.4827 C.3       1 UNK         0.0000 
     32 C32         0.8615   52.8228   29.0138 C.3       1 UNK         0.0000 
     33 C33         2.0794   51.8975   28.8250 C.3       1 UNK         0.0000 
     34 C34         3.3701   52.5082   29.4214 C.3       1 UNK         0.0000 
     35 O35         4.7044   54.4971   29.6817 O.3       1 UNK         0.0000 
     36 H36         1.1982   53.1322   12.5987 H         1 UNK         0.0000 
     37 H37        -0.2553   54.2492   14.2547 H         1 UNK         0.0000 
     38 H38        -0.0507   53.6940   16.6464 H         1 UNK         0.0000 
     39 H39         3.0840   50.8968   15.7104 H         1 UNK         0.0000 
     40 H40         2.8648   51.4566   13.3256 H         1 UNK         0.0000 
     41 H41         1.1286   52.6917   18.3963 H         1 UNK         0.0000 
     42 H42        -0.9902   51.3905   18.0548 H         1 UNK         0.0000 
     43 H43        -2.1037   49.2810   18.6653 H         1 UNK         0.0000 
     44 H44        -0.7535   47.2726   19.1652 H         1 UNK         0.0000 
     45 H45         1.7192   47.3718   19.0667 H         1 UNK         0.0000 
     46 H46         2.8396   49.4666   18.4804 H         1 UNK         0.0000 
     47 H47         2.4209   52.8900   20.3103 H         1 UNK         0.0000 
     48 H48         2.7181   51.1420   20.2691 H         1 UNK         0.0000 
     49 H49         5.1664   51.4665   20.0818 H         1 UNK         0.0000 
     50 H50         4.6064   52.1563   21.5517 H         1 UNK         0.0000 
     51 H51         5.5714   54.5981   18.1619 H         1 UNK         0.0000 
     52 H52         5.7966   52.8647   18.1172 H         1 UNK         0.0000 
     53 H53         3.0396   54.2935   18.2106 H         1 UNK         0.0000 
     54 H54         3.7873   53.4297   16.8476 H         1 UNK         0.0000 
     55 H55         3.0899   54.2609   21.9990 H         1 UNK         0.0000 
     56 H56         2.6567   54.0021   24.3888 H         1 UNK         0.0000 
     57 H57         6.8478   54.5451   25.2155 H         1 UNK         0.0000 
     58 H58         7.2995   54.7673   22.8110 H         1 UNK         0.0000 
     59 H59         2.5743   55.8556   28.7051 H         1 UNK         0.0000 
     60 H60         2.2165   55.0045   30.1714 H         1 UNK         0.0000 
     61 H61         1.2361   54.2137   27.3957 H         1 UNK         0.0000 
     62 H62         0.3020   54.8968   28.6939 H         1 UNK         0.0000 
     63 H63        -0.0077   52.3980   28.5105 H         1 UNK         0.0000 
     64 H64         0.6018   52.8717   30.0737 H         1 UNK         0.0000 
     65 H65         2.2267   51.7067   27.7610 H         1 UNK         0.0000 
     66 H66         1.8763   50.9269   29.2774 H         1 UNK         0.0000 
     67 H67         3.2666   52.5162   30.5083 H         1 UNK         0.0000 
     68 H68         4.2227   51.8552   29.2209 H         1 UNK         0.0000 
     69 H69         4.9651   55.3302   29.2818 H         1 UNK         0.0000 
     70 N70         3.1043   52.1316   18.4037 N.4       1 UNK         0.0000 
     71 H71         3.7056   51.3735   18.0821 H         1 UNK         0.0000 
@<TRIPOS>BOND
     1    1    6 ar   
     2    1    2 ar   
     3    1   36 1    
     4    2    3 ar   
     5    2   37 1    
     6    3    4 ar   
     7    3   38 1    
     8    4    5 ar   
     9    4    7 1    
    10    5    6 ar   
    11    5   39 1    
    12    6   40 1    
    13    7    8 1    
    14    7   41 1    
    15    7   70 1    
    16    8   13 ar   
    17    8    9 ar   
    18    9   10 ar   
    19    9   42 1    
    20   10   11 ar   
    21   10   43 1    
    22   11   12 ar   
    23   11   44 1    
    24   12   13 ar   
    25   12   45 1    
    26   13   46 1    
    27   14   15 1    
    28   14   47 1    
    29   14   48 1    
    30   14   70 1    
    31   15   16 1    
    32   15   49 1    
    33   15   50 1    
    34   16   17 1    
    35   16   19 am   BACKBONE|DICT|INTERRES
    36   17   18 1    
    37   17   51 1    
    38   17   52 1    
    39   18   53 1    
    40   18   54 1    
    41   18   70 1    
    42   19   20 2    
    43   19   21 1    
    44   21   26 ar   
    45   21   22 ar   
    46   22   23 ar   
    47   22   55 1    
    48   23   24 ar   
    49   23   56 1    
    50   24   25 ar   
    51   24   27 1    
    52   25   26 ar   
    53   25   57 1    
    54   26   58 1    
    55   27   28 3    
    56   28   29 1    
    57   29   34 1    
    58   29   30 1    
    59   29   35 1    
    60   30   31 1    
    61   30   59 1    
    62   30   60 1    
    63   31   32 1    
    64   31   61 1    
    65   31   62 1    
    66   32   33 1    
    67   32   63 1    
    68   32   64 1    
    69   33   34 1    
    70   33   65 1    
    71   33   66 1    
    72   34   67 1    
    73   34   68 1    
    74   35   69 1    
    75   70   71 1    
@<TRIPOS>SUBSTRUCTURE
     1 UNK         1 GROUP             0       ****    0 ROOT    
