@<TRIPOS>MOLECULE
ZINC14551643_3869
46   49    1
SMALL
USER_CHARGES


@<TRIPOS>ATOM
      1 C1          6.3097   54.8215   18.8226 C.3       1 UNK         0.0000 
      2 C2          5.0896   54.0697   19.3902 C.3       1 UNK         0.0000 
      3 C3          4.9628   54.1200   20.9205 C.2       1 UNK         0.0000 
      4 O4          5.9040   54.5158   21.6088 O.2       1 UNK         0.0000 
      5 N5          3.7777   53.6951   21.4040 N.am      1 UNK         0.0000 
      6 C6          3.3349   53.5956   22.7361 C.ar      1 UNK         0.0000 
      7 C7          2.1328   52.9181   22.9399 C.ar      1 UNK         0.0000 
      8 C8          1.6287   52.7508   24.2269 C.ar      1 UNK         0.0000 
      9 C9          2.3228   53.2550   25.3272 C.ar      1 UNK         0.0000 
     10 C10         3.5124   53.9894   25.1480 C.ar      1 UNK         0.0000 
     11 C11         4.0052   54.1331   23.8456 C.ar      1 UNK         0.0000 
     12 C12         4.2502   54.6254   26.3286 C.3       1 UNK         0.0000 
     13 H13         4.2724   55.6966   26.1239 H         1 UNK         0.0000 
     14 C14         5.6564   54.0969   26.5448 C.2       1 UNK         0.0000 
     15 C15         5.7530   53.3781   27.6766 C.2       1 UNK         0.0000 
     16 C16         4.4262   53.2956   28.3974 C.3       1 UNK         0.0000 
     17 C17         3.5841   54.3617   27.6894 C.3       1 UNK         0.0000 
     18 H18         3.7118   55.2756   28.2740 H         1 UNK         0.0000 
     19 C19         2.0567   54.0971   27.6121 C.3       1 UNK         0.0000 
     20 H20         1.5820   55.0143   27.2817 H         1 UNK         0.0000 
     21 N21         1.7410   53.0958   26.5956 N.pl3     1 UNK         0.0000 
     22 C22         1.4065   53.9123   28.9738 C.ar      1 UNK         0.0000 
     23 C23         1.3004   55.0371   29.7909 C.ar      1 UNK         0.0000 
     24 C24         0.7044   54.9316   31.0349 C.ar      1 UNK         0.0000 
     25 C25         0.2267   53.7036   31.4767 C.ar      1 UNK         0.0000 
     26 C26         0.3039   52.5833   30.6595 C.ar      1 UNK         0.0000 
     27 C27         0.9038   52.6784   29.4072 C.ar      1 UNK         0.0000 
     28 H28         6.3299   54.7376   17.7357 H         1 UNK         0.0000 
     29 H29         7.2504   54.4048   19.1857 H         1 UNK         0.0000 
     30 H30         6.2751   55.8863   19.0566 H         1 UNK         0.0000 
     31 H31         4.1807   54.4740   18.9424 H         1 UNK         0.0000 
     32 H32         5.1443   53.0227   19.0875 H         1 UNK         0.0000 
     33 H33         3.1066   53.3952   20.7128 H         1 UNK         0.0000 
     34 H34         1.5846   52.5078   22.1041 H         1 UNK         0.0000 
     35 H35         0.6990   52.2181   24.3650 H         1 UNK         0.0000 
     36 H36         4.9177   54.6939   23.7252 H         1 UNK         0.0000 
     37 H37         6.4530   54.2832   25.8394 H         1 UNK         0.0000 
     38 H38         6.6403   52.8832   28.0442 H         1 UNK         0.0000 
     39 H39         4.5288   53.5189   29.4599 H         1 UNK         0.0000 
     40 H40         3.9902   52.2998   28.3094 H         1 UNK         0.0000 
     41 H41         0.8127   52.7068   26.6709 H         1 UNK         0.0000 
     42 H42         1.6884   55.9933   29.4694 H         1 UNK         0.0000 
     43 H43         0.7045   55.7918   31.6819 H         1 UNK         0.0000 
     44 H44        -0.2194   53.6161   32.4580 H         1 UNK         0.0000 
     45 H45        -0.1143   51.6563   31.0130 H         1 UNK         0.0000 
     46 H46         0.9685   51.7992   28.7826 H         1 UNK         0.0000 
@<TRIPOS>BOND
     1    1    2 1    
     2    1   28 1    
     3    1   29 1    
     4    1   30 1    
     5    2    3 1    
     6    2   31 1    
     7    2   32 1    
     8    3    4 2    
     9    3    5 am   BACKBONE|DICT|INTERRES
    10    5    6 1    
    11    5   33 1    
    12    6   11 ar   
    13    6    7 ar   
    14    7    8 ar   
    15    7   34 1    
    16    8    9 ar   
    17    8   35 1    
    18    9   21 1    
    19    9   10 ar   
    20   10   11 ar   
    21   10   12 1    
    22   11   36 1    
    23   12   13 1    
    24   12   17 1    
    25   12   14 1    
    26   14   15 2    
    27   14   37 1    
    28   15   16 1    
    29   15   38 1    
    30   16   17 1    
    31   16   39 1    
    32   16   40 1    
    33   17   18 1    
    34   17   19 1    
    35   19   20 1    
    36   19   21 1    
    37   19   22 1    
    38   21   41 1    
    39   22   27 ar   
    40   22   23 ar   
    41   23   24 ar   
    42   23   42 1    
    43   24   25 ar   
    44   24   43 1    
    45   25   26 ar   
    46   25   44 1    
    47   26   27 ar   
    48   26   45 1    
    49   27   46 1    
@<TRIPOS>SUBSTRUCTURE
     1 UNK         1 GROUP             0       ****    0 ROOT    
