@<TRIPOS>MOLECULE
ZINC15156285_3717
56   59    1
SMALL
USER_CHARGES


@<TRIPOS>ATOM
      1 C1          0.7186   51.3237   23.1546 C.3       1 UNK         0.0000 
      2 C2          0.7044   52.8202   22.8028 C.3       1 UNK         0.0000 
      3 O3          1.8919   53.4606   23.2570 O.3       1 UNK         0.0000 
      4 C4          3.0291   53.4281   22.5250 C.2       1 UNK         0.0000 
      5 O5          3.1034   52.9831   21.3762 O.2       1 UNK         0.0000 
      6 C6          4.1926   53.9848   23.2468 C.2       1 UNK         0.0000 
      7 C7          4.3495   54.1137   24.6590 C.2       1 UNK         0.0000 
      8 C8          5.6300   54.5586   25.0384 C.2       1 UNK         0.0000 
      9 S9          6.6276   54.9041   23.6760 S.3       1 UNK         0.0000 
     10 C10         5.3395   54.4739   22.5864 C.2       1 UNK         0.0000 
     11 N11         5.4624   54.5657   21.2029 N.am      1 UNK         0.0000 
     12 C12         6.3127   55.3146   20.4710 C.2       1 UNK         0.0000 
     13 O13         7.1618   56.0725   20.9461 O.2       1 UNK         0.0000 
     14 C14         6.1074   55.2266   18.9431 C.3       1 UNK         0.0000 
     15 H15         5.1878   54.6678   18.7712 H         1 UNK         0.0000 
     16 C16         7.2323   54.4514   18.2493 C.ar      1 UNK         0.0000 
     17 C17         8.5638   54.8864   18.3269 C.ar      1 UNK         0.0000 
     18 C18         9.5709   54.1737   17.6815 C.ar      1 UNK         0.0000 
     19 C19         9.2523   53.0280   16.9576 C.ar      1 UNK         0.0000 
     20 C20         7.9331   52.5850   16.8754 C.ar      1 UNK         0.0000 
     21 C21         6.9241   53.2977   17.5174 C.ar      1 UNK         0.0000 
     22 S22         5.9358   56.8991   18.2080 S.3       1 UNK         0.0000 
     23 C23         4.3903   56.8204   17.3513 C.2       1 UNK         0.0000 
     24 N24         3.5689   55.7955   17.2933 N.2       1 UNK         0.0000 
     25 N25         2.4144   56.0516   16.5626 N.2       1 UNK         0.0000 
     26 C26         2.3978   57.2650   16.0819 C.2       1 UNK         0.0000 
     27 S27         3.8014   58.2070   16.4812 S.3       1 UNK         0.0000 
     28 N28         1.3922   57.7999   15.3363 N.pl3     1 UNK         0.0000 
     29 C29         6.1658   54.6412   26.4677 C.3       1 UNK         0.0000 
     30 C30         4.9979   54.4988   27.4791 C.3       1 UNK         0.0000 
     31 H31         4.4581   55.4348   27.5513 H         1 UNK         0.0000 
     32 C32         4.0392   53.3946   27.0462 C.3       1 UNK         0.0000 
     33 C33         3.3262   53.7048   25.7266 C.3       1 UNK         0.0000 
     34 C34         5.5414   54.1679   28.8777 C.3       1 UNK         0.0000 
     35 H35        -0.2174   50.8460   22.8682 H         1 UNK         0.0000 
     36 H36         1.5255   50.8040   22.6369 H         1 UNK         0.0000 
     37 H37         0.8553   51.1728   24.2267 H         1 UNK         0.0000 
     38 H38        -0.1462   53.2973   23.2885 H         1 UNK         0.0000 
     39 H39         0.5641   52.9554   21.7280 H         1 UNK         0.0000 
     40 H40         4.6977   54.1267   20.7050 H         1 UNK         0.0000 
     41 H41         8.8205   55.7742   18.8848 H         1 UNK         0.0000 
     42 H42        10.5970   54.5074   17.7512 H         1 UNK         0.0000 
     43 H43        10.0340   52.4703   16.4632 H         1 UNK         0.0000 
     44 H44         7.6911   51.6920   16.3193 H         1 UNK         0.0000 
     45 H45         5.9070   52.9352   17.4498 H         1 UNK         0.0000 
     46 H46         0.5756   57.2605   15.0944 H         1 UNK         0.0000 
     47 H47         1.3795   58.7829   15.1078 H         1 UNK         0.0000 
     48 H48         6.8807   53.8301   26.6153 H         1 UNK         0.0000 
     49 H49         6.6929   55.5818   26.6376 H         1 UNK         0.0000 
     50 H50         4.6308   52.4963   26.9753 H         1 UNK         0.0000 
     51 H51         3.2978   53.1981   27.8225 H         1 UNK         0.0000 
     52 H52         2.5916   54.4961   25.8654 H         1 UNK         0.0000 
     53 H53         2.7632   52.8164   25.4393 H         1 UNK         0.0000 
     54 H54         6.0341   53.1940   28.8818 H         1 UNK         0.0000 
     55 H55         6.2741   54.8968   29.2052 H         1 UNK         0.0000 
     56 H56         4.7428   54.1459   29.6208 H         1 UNK         0.0000 
@<TRIPOS>BOND
     1    1    2 1    
     2    1   35 1    
     3    1   36 1    
     4    1   37 1    
     5    2    3 1    
     6    2   38 1    
     7    2   39 1    
     8    3    4 1    
     9    4    5 2    
    10    4    6 1    
    11    6   10 2    
    12    6    7 1    
    13    7   33 1    
    14    7    8 2    
    15    8    9 1    
    16    8   29 1    
    17    9   10 1    
    18   10   11 am   BACKBONE|DICT|INTERRES
    19   11   12 am   BACKBONE|DICT|INTERRES
    20   11   40 1    
    21   12   13 2    
    22   12   14 1    
    23   14   15 1    
    24   14   16 1    
    25   14   22 1    
    26   16   21 ar   
    27   16   17 ar   
    28   17   18 ar   
    29   17   41 1    
    30   18   19 ar   
    31   18   42 1    
    32   19   20 ar   
    33   19   43 1    
    34   20   21 ar   
    35   20   44 1    
    36   21   45 1    
    37   22   23 1    
    38   23   27 1    
    39   23   24 2    
    40   24   25 1    
    41   25   26 2    
    42   26   27 1    
    43   26   28 1    
    44   28   46 1    
    45   28   47 1    
    46   29   30 1    
    47   29   48 1    
    48   29   49 1    
    49   30   31 1    
    50   30   32 1    
    51   30   34 1    
    52   32   33 1    
    53   32   50 1    
    54   32   51 1    
    55   33   52 1    
    56   33   53 1    
    57   34   54 1    
    58   34   55 1    
    59   34   56 1    
@<TRIPOS>SUBSTRUCTURE
     1 UNK         1 GROUP             0       ****    0 ROOT    
