@<TRIPOS>MOLECULE
ZINC37558167_4724
31   33    1
SMALL
USER_CHARGES


@<TRIPOS>ATOM
      1 C1          7.2457   53.7987   23.5537 C.3       1 UNK         0.0000 
      2 C2          6.1467   54.0965   24.5480 C.ar      1 UNK         0.0000 
      3 C3          4.8271   54.1553   24.0928 C.ar      1 UNK         0.0000 
      4 C4          3.7596   54.2683   24.9806 C.ar      1 UNK         0.0000 
      5 C5          4.0438   54.3158   26.3493 C.ar      1 UNK         0.0000 
      6 C6          5.3817   54.2708   26.8065 C.ar      1 UNK         0.0000 
      7 C7          6.4486   54.1668   25.9106 C.ar      1 UNK         0.0000 
      8 S8          5.3798   54.3501   28.5576 S.3       1 UNK         0.0000 
      9 C9          3.6414   54.5257   28.5050 C.2       1 UNK         0.0000 
     10 N10         3.1087   54.4177   27.3179 N.2       1 UNK         0.0000 
     11 N11         3.0256   54.8336   29.6599 N.2       1 UNK         0.0000 
     12 S12         1.5293   55.2857   29.6962 S.o2      1 UNK         0.0000 
     13 O13         1.1044   55.8976   30.9560 O.2       1 UNK         0.0000 
     14 O14         1.1044   55.9710   28.4817 O.2       1 UNK         0.0000 
     15 C15         0.6337   53.7325   29.6803 C.ar      1 UNK         0.0000 
     16 C16         0.2463   52.9632   28.5774 C.ar      1 UNK         0.0000 
     17 N17        -0.4538   51.8665   29.0419 N.pl3     1 UNK         0.0000 
     18 H18        -0.9731   51.2366   30.9438 H         1 UNK         0.0000 
     19 N19        -0.4956   51.9341   30.3780 N.pl3     1 UNK         0.0000 
     20 C20         0.1944   53.0408   30.8024 C.ar      1 UNK         0.0000 
     21 N21         0.3044   53.2967   32.1283 N.pl3     1 UNK         0.0000 
     22 H22         8.1337   53.3894   24.0343 H         1 UNK         0.0000 
     23 H23         6.8957   53.0196   22.8817 H         1 UNK         0.0000 
     24 H24         7.5044   54.6794   22.9651 H         1 UNK         0.0000 
     25 H25         4.6221   54.0828   23.0337 H         1 UNK         0.0000 
     26 H26         2.7420   54.3061   24.6231 H         1 UNK         0.0000 
     27 H27         7.4637   54.0967   26.2705 H         1 UNK         0.0000 
     28 H28         0.4038   53.1193   27.5185 H         1 UNK         0.0000 
     29 H29         0.6530   54.1920   32.4446 H         1 UNK         0.0000 
     30 H30        -0.2731   52.7549   32.7786 H         1 UNK         0.0000 
     31 H31        -0.8919   51.0963   28.5430 H         1 UNK         0.0000 
@<TRIPOS>BOND
     1    1    2 1    
     2    1   22 1    
     3    1   23 1    
     4    1   24 1    
     5    2    7 ar   
     6    2    3 ar   
     7    3    4 ar   
     8    3   25 1    
     9    4    5 ar   
    10    4   26 1    
    11    5   10 1    
    12    5    6 ar   
    13    6    7 ar   
    14    6    8 1    
    15    7   27 1    
    16    8    9 1    
    17    9   10 2    
    18    9   11 1    
    19   11   12 1    
    20   12   13 2    
    21   12   14 2    
    22   12   15 1    
    23   15   16 ar   
    24   15   20 ar   
    25   16   28 1    
    26   16   17 ar   
    27   17   19 1    
    28   17   31 1    
    29   18   19 1    
    30   19   20 ar   
    31   20   21 1    
    32   21   29 1    
    33   21   30 1    
@<TRIPOS>SUBSTRUCTURE
     1 UNK         1 GROUP             0       ****    0 ROOT    
