@<TRIPOS>MOLECULE
ZINC25224295_1401
43   45    1
SMALL
USER_CHARGES


@<TRIPOS>ATOM
      1 C1          0.0227   53.7552   29.5856 C.3       1 UNK         0.0000 
      2 C2          1.1944   53.1376   28.7874 C.3       1 UNK         0.0000 
      3 C3          2.2628   54.2099   28.5848 C.2       1 UNK         0.0000 
      4 O4          2.0860   55.3191   28.0833 O.2       1 UNK         0.0000 
      5 N5          3.4153   53.6826   29.0453 N.am      1 UNK         0.0000 
      6 C6          3.2529   52.4974   29.6830 C.2       1 UNK         0.0000 
      7 O7          4.1143   51.7381   30.1127 O.2       1 UNK         0.0000 
      8 N8          1.9415   52.2482   29.6346 N.am      1 UNK         0.0000 
      9 C9          4.7030   54.3986   28.9619 C.3       1 UNK         0.0000 
     10 C10         5.7555   53.7660   28.0073 C.3       1 UNK         0.0000 
     11 H11         5.7213   52.6788   28.1084 H         1 UNK         0.0000 
     12 C12         5.5535   54.0766   26.5146 C.ar      1 UNK         0.0000 
     13 C13         6.5720   54.6467   25.7425 C.ar      1 UNK         0.0000 
     14 C14         6.4198   54.8120   24.3684 C.ar      1 UNK         0.0000 
     15 C15         5.2349   54.4141   23.7579 C.ar      1 UNK         0.0000 
     16 C16         4.1923   53.8933   24.5148 C.ar      1 UNK         0.0000 
     17 C17         4.3676   53.6990   25.8831 C.ar      1 UNK         0.0000 
     18 F18         5.1063   54.4974   22.4153 F         1 UNK         0.0000 
     19 O19         7.0502   54.0967   28.4765 O.3       1 UNK         0.0000 
     20 C20         0.7208   52.4225   27.4947 C.ar      1 UNK         0.0000 
     21 C21         1.0140   52.8959   26.2045 C.ar      1 UNK         0.0000 
     22 C22         0.5863   52.2083   25.0730 C.ar      1 UNK         0.0000 
     23 C23        -0.1642   51.0338   25.1977 C.ar      1 UNK         0.0000 
     24 C24        -0.4994   50.5844   26.4805 C.ar      1 UNK         0.0000 
     25 C25        -0.0738   51.2779   27.6101 C.ar      1 UNK         0.0000 
     26 N26        -0.6052   50.2872   23.9937 N.pl3     1 UNK         0.0000 
     27 O27        -0.3883   50.7799   22.8901 O.co2     1 UNK         0.0000 
     28 O28        -1.1741   49.2082   24.1415 O.co2     1 UNK         0.0000 
     29 H29        -0.4929   54.4954   28.9799 H         1 UNK         0.0000 
     30 H30        -0.7102   52.9991   29.8708 H         1 UNK         0.0000 
     31 H31         0.3463   54.2474   30.5058 H         1 UNK         0.0000 
     32 H32         1.4631   51.6796   30.3172 H         1 UNK         0.0000 
     33 H33         5.1015   54.4826   29.9730 H         1 UNK         0.0000 
     34 H34         4.5342   55.4258   28.6534 H         1 UNK         0.0000 
     35 H35         7.5044   54.9100   26.2044 H         1 UNK         0.0000 
     36 H36         7.2262   55.2137   23.7728 H         1 UNK         0.0000 
     37 H37         3.2831   53.5727   24.0299 H         1 UNK         0.0000 
     38 H38         3.6084   53.1856   26.4428 H         1 UNK         0.0000 
     39 H39         7.0643   54.9836   28.8788 H         1 UNK         0.0000 
     40 H40         1.5580   53.8137   26.0483 H         1 UNK         0.0000 
     41 H41         0.8399   52.5963   24.0963 H         1 UNK         0.0000 
     42 H42        -1.0949   49.6920   26.6161 H         1 UNK         0.0000 
     43 H43        -0.3497   50.8958   28.5829 H         1 UNK         0.0000 
@<TRIPOS>BOND
     1    1    2 1    
     2    1   29 1    
     3    1   30 1    
     4    1   31 1    
     5    2    8 1    
     6    2    3 1    
     7    2   20 1    
     8    3    4 2    
     9    3    5 am   BACKBONE|DICT|INTERRES
    10    5    6 am   BACKBONE|DICT|INTERRES
    11    5    9 1    
    12    6    7 2    
    13    6    8 am   BACKBONE|DICT|INTERRES
    14    8   32 1    
    15    9   10 1    
    16    9   33 1    
    17    9   34 1    
    18   10   11 1    
    19   10   12 1    
    20   10   19 1    
    21   12   17 ar   
    22   12   13 ar   
    23   13   14 ar   
    24   13   35 1    
    25   14   15 ar   
    26   14   36 1    
    27   15   16 ar   
    28   15   18 1    
    29   16   17 ar   
    30   16   37 1    
    31   17   38 1    
    32   19   39 1    
    33   20   25 ar   
    34   20   21 ar   
    35   21   22 ar   
    36   21   40 1    
    37   22   23 ar   
    38   22   41 1    
    39   23   24 ar   
    40   23   26 1    
    41   24   25 ar   
    42   24   42 1    
    43   25   43 1    
    44   26   27 2    
    45   26   28 1    
@<TRIPOS>SUBSTRUCTURE
     1 UNK         1 GROUP             0       ****    0 ROOT    
