@<TRIPOS>MOLECULE
ZINC16098466_2042
63   65    1
SMALL
USER_CHARGES


@<TRIPOS>ATOM
      1 C1          3.3955   51.0058   20.1491 C.3       1 UNK         0.0000 
      2 C2          2.2745   50.9194   21.1946 C.ar      1 UNK         0.0000 
      3 C3          2.1797   51.8871   22.2060 C.ar      1 UNK         0.0000 
      4 C4          1.0892   51.8776   23.1037 C.ar      1 UNK         0.0000 
      5 C5          0.0759   50.8866   22.9977 C.ar      1 UNK         0.0000 
      6 C6          0.1774   49.9293   21.9496 C.ar      1 UNK         0.0000 
      7 C7          1.3072   49.9081   21.1036 C.ar      1 UNK         0.0000 
      8 C8          1.5172   48.7622   20.1007 C.3       1 UNK         0.0000 
      9 C9         -0.9584   48.9468   21.6439 C.3       1 UNK         0.0000 
     10 S10        -1.3264   50.8501   24.2104 S.o2      1 UNK         0.0000 
     11 O11        -1.9220   52.1882   24.2912 O.2       1 UNK         0.0000 
     12 O12        -2.2091   49.7137   23.9398 O.2       1 UNK         0.0000 
     13 N13        -0.6334   50.4217   25.7926 N.pl3     1 UNK         0.0000 
     14 C14        -0.0777   51.2965   26.7321 C.ar      1 UNK         0.0000 
     15 C15         1.0710   50.8894   27.3983 C.ar      1 UNK         0.0000 
     16 C16         1.6305   51.6479   28.4140 C.ar      1 UNK         0.0000 
     17 C17         1.0606   52.8712   28.7362 C.ar      1 UNK         0.0000 
     18 C18        -0.0956   53.2953   28.0816 C.ar      1 UNK         0.0000 
     19 C19        -0.6787   52.4968   27.0960 C.ar      1 UNK         0.0000 
     20 S20         1.7575   53.8291   30.0746 S.o2      1 UNK         0.0000 
     21 O21         0.9212   55.0301   30.1664 O.2       1 UNK         0.0000 
     22 O22         1.5835   52.8839   31.1809 O.2       1 UNK         0.0000 
     23 N23         3.4628   54.1383   29.6530 N.2       1 UNK         0.0000 
     24 C24         4.0278   54.0969   28.5106 C.2       1 UNK         0.0000 
     25 C25         3.4703   53.8446   27.0979 C.3       1 UNK         0.0000 
     26 C26         4.0247   54.6696   25.9182 C.3       1 UNK         0.0000 
     27 C27         5.4179   54.3262   25.3798 C.3       1 UNK         0.0000 
     28 C28         6.5816   54.5544   26.3519 C.3       1 UNK         0.0000 
     29 C29         6.4631   53.8237   27.6965 C.3       1 UNK         0.0000 
     30 N30         5.3911   54.3247   28.5481 N.pl3     1 UNK         0.0000 
     31 C31         1.0487   52.9841   24.1651 C.3       1 UNK         0.0000 
     32 C32         3.3034   52.9254   22.3521 C.3       1 UNK         0.0000 
     33 H33         3.6462   52.0384   19.9096 H         1 UNK         0.0000 
     34 H34         3.1041   50.5894   19.1843 H         1 UNK         0.0000 
     35 H35         4.2957   50.5017   20.4970 H         1 UNK         0.0000 
     36 H36         1.1366   47.8144   20.4780 H         1 UNK         0.0000 
     37 H37         1.0389   48.9840   19.1461 H         1 UNK         0.0000 
     38 H38         2.5733   48.5559   19.9257 H         1 UNK         0.0000 
     39 H39        -1.9109   49.4745   21.6222 H         1 UNK         0.0000 
     40 H40        -0.9177   48.4998   20.6529 H         1 UNK         0.0000 
     41 H41        -1.0010   48.1492   22.3859 H         1 UNK         0.0000 
     42 H42        -0.5496   49.4333   25.9860 H         1 UNK         0.0000 
     43 H43         1.5043   49.9278   27.1720 H         1 UNK         0.0000 
     44 H44         2.5028   51.2895   28.9405 H         1 UNK         0.0000 
     45 H45        -0.5548   54.2327   28.3483 H         1 UNK         0.0000 
     46 H46        -1.5970   52.8191   26.6301 H         1 UNK         0.0000 
     47 H47         3.5219   52.7840   26.8607 H         1 UNK         0.0000 
     48 H48         2.4181   54.1103   27.0990 H         1 UNK         0.0000 
     49 H49         3.3138   54.6300   25.0938 H         1 UNK         0.0000 
     50 H50         4.0297   55.7000   26.2153 H         1 UNK         0.0000 
     51 H51         5.6004   54.9219   24.4839 H         1 UNK         0.0000 
     52 H52         5.4261   53.2974   25.0380 H         1 UNK         0.0000 
     53 H53         6.6975   55.6232   26.5374 H         1 UNK         0.0000 
     54 H54         7.5022   54.2415   25.8607 H         1 UNK         0.0000 
     55 H55         7.4134   53.8497   28.2316 H         1 UNK         0.0000 
     56 H56         6.2458   52.7705   27.5118 H         1 UNK         0.0000 
     57 H57         5.7237   54.5790   29.4671 H         1 UNK         0.0000 
     58 H58         1.3893   53.9317   23.7485 H         1 UNK         0.0000 
     59 H59         0.0739   53.2422   24.5480 H         1 UNK         0.0000 
     60 H60         1.6981   52.7263   25.0007 H         1 UNK         0.0000 
     61 H61         3.5005   53.1616   23.3943 H         1 UNK         0.0000 
     62 H62         4.2657   52.5626   21.9926 H         1 UNK         0.0000 
     63 H63         3.0495   53.8458   21.8236 H         1 UNK         0.0000 
@<TRIPOS>BOND
     1    1    2 1    
     2    1   33 1    
     3    1   34 1    
     4    1   35 1    
     5    2    7 ar   
     6    2    3 ar   
     7    3    4 ar   
     8    3   32 1    
     9    4    5 ar   
    10    4   31 1    
    11    5    6 ar   
    12    5   10 1    
    13    6    7 ar   
    14    6    9 1    
    15    7    8 1    
    16    8   36 1    
    17    8   37 1    
    18    8   38 1    
    19    9   39 1    
    20    9   40 1    
    21    9   41 1    
    22   10   11 2    
    23   10   12 2    
    24   10   13 1    
    25   13   14 1    
    26   13   42 1    
    27   14   19 ar   
    28   14   15 ar   
    29   15   16 ar   
    30   15   43 1    
    31   16   17 ar   
    32   16   44 1    
    33   17   18 ar   
    34   17   20 1    
    35   18   19 ar   
    36   18   45 1    
    37   19   46 1    
    38   20   21 2    
    39   20   22 2    
    40   20   23 1    
    41   23   24 2    
    42   24   30 1    
    43   24   25 1    
    44   25   26 1    
    45   25   47 1    
    46   25   48 1    
    47   26   27 1    
    48   26   49 1    
    49   26   50 1    
    50   27   28 1    
    51   27   51 1    
    52   27   52 1    
    53   28   29 1    
    54   28   53 1    
    55   28   54 1    
    56   29   30 1    
    57   29   55 1    
    58   29   56 1    
    59   30   57 1    
    60   31   58 1    
    61   31   59 1    
    62   31   60 1    
    63   32   61 1    
    64   32   62 1    
    65   32   63 1    
@<TRIPOS>SUBSTRUCTURE
     1 UNK         1 GROUP             0       ****    0 ROOT    
