@<TRIPOS>MOLECULE
ZINC33023399_2912
67   70    1
SMALL
USER_CHARGES


@<TRIPOS>ATOM
      1 C1          3.8299   53.1220   27.9452 C.3       1 UNK         0.0000 
      2 C2          2.5430   52.8288   28.6969 C.ar      1 UNK         0.0000 
      3 C3          1.3573   52.5951   27.9958 C.ar      1 UNK         0.0000 
      4 C4          0.1801   52.2802   28.6818 C.ar      1 UNK         0.0000 
      5 C5          0.1785   52.2519   30.0808 C.ar      1 UNK         0.0000 
      6 C6          1.3568   52.4965   30.7832 C.ar      1 UNK         0.0000 
      7 C7          2.5409   52.7564   30.0936 C.ar      1 UNK         0.0000 
      8 F8          3.6902   52.9208   30.7873 F         1 UNK         0.0000 
      9 S9         -1.2968   51.8128   27.7830 S.o2      1 UNK         0.0000 
     10 O10        -1.6951   52.8965   26.8817 O.2       1 UNK         0.0000 
     11 O11        -2.2560   51.2967   28.7633 O.2       1 UNK         0.0000 
     12 N12        -0.8314   50.4594   26.7884 N.pl3     1 UNK         0.0000 
     13 C13        -0.2233   50.5154   25.5306 C.ar      1 UNK         0.0000 
     14 C14         0.0311   51.7044   24.8404 C.ar      1 UNK         0.0000 
     15 C15         0.6068   51.6748   23.5838 C.ar      1 UNK         0.0000 
     16 C16         0.9532   50.4565   22.9879 C.ar      1 UNK         0.0000 
     17 C17         0.7048   49.2725   23.6883 C.ar      1 UNK         0.0000 
     18 C18         0.1232   49.2994   24.9495 C.ar      1 UNK         0.0000 
     19 C19         1.6282   50.4217   21.6401 C.2       1 UNK         0.0000 
     20 O20         2.3046   49.4588   21.2819 O.2       1 UNK         0.0000 
     21 N21         1.4567   51.5241   20.8936 N.am      1 UNK         0.0000 
     22 C22         2.2579   51.9191   19.7397 C.3       1 UNK         0.0000 
     23 C23         3.7077   52.4014   20.0664 C.3       1 UNK         0.0000 
     24 H24         4.3245   51.4988   20.0544 H         1 UNK         0.0000 
     25 C25         3.9623   53.0909   21.4302 C.ar      1 UNK         0.0000 
     26 C26         5.1923   52.8969   22.0506 C.ar      1 UNK         0.0000 
     27 C27         5.5135   53.5294   23.2478 C.ar      1 UNK         0.0000 
     28 C28         4.5471   54.2839   23.9211 C.ar      1 UNK         0.0000 
     29 C29         3.2905   54.4335   23.3393 C.ar      1 UNK         0.0000 
     30 C30         3.0097   53.8651   22.0982 C.ar      1 UNK         0.0000 
     31 O31         4.7514   54.8965   25.1431 O.3       1 UNK         0.0000 
     32 C32         6.0209   54.7710   25.7787 C.3       1 UNK         0.0000 
     33 N33         4.2532   53.1660   18.8272 N.4       1 UNK         0.0000 
     34 C34         3.6228   54.5380   18.5125 C.3       1 UNK         0.0000 
     35 C35         4.6428   55.2629   17.6261 C.3       1 UNK         0.0000 
     36 C36         5.9164   54.4135   17.6260 C.3       1 UNK         0.0000 
     37 C37         5.7664   53.4440   18.7926 C.3       1 UNK         0.0000 
     38 H38         4.6443   52.5078   28.3317 H         1 UNK         0.0000 
     39 H39         3.7409   52.9027   26.8806 H         1 UNK         0.0000 
     40 H40         4.1132   54.1669   28.0715 H         1 UNK         0.0000 
     41 H41         1.3685   52.6239   26.9185 H         1 UNK         0.0000 
     42 H42        -0.7180   52.0011   30.6354 H         1 UNK         0.0000 
     43 H43         1.3553   52.4459   31.8635 H         1 UNK         0.0000 
     44 H44        -0.9993   49.5453   27.2134 H         1 UNK         0.0000 
     45 H45        -0.1852   52.6783   25.2366 H         1 UNK         0.0000 
     46 H46         0.7923   52.6219   23.1020 H         1 UNK         0.0000 
     47 H47         0.9872   48.3168   23.2810 H         1 UNK         0.0000 
     48 H48        -0.0498   48.3710   25.4774 H         1 UNK         0.0000 
     49 H49         0.7463   52.1737   21.1901 H         1 UNK         0.0000 
     50 H50         1.6933   52.7211   19.2656 H         1 UNK         0.0000 
     51 H51         2.2870   51.1015   19.0135 H         1 UNK         0.0000 
     52 H52         5.9044   52.2412   21.5837 H         1 UNK         0.0000 
     53 H53         6.4952   53.3740   23.6659 H         1 UNK         0.0000 
     54 H54         2.5341   55.0089   23.8503 H         1 UNK         0.0000 
     55 H55         2.0297   54.0197   21.6819 H         1 UNK         0.0000 
     56 H56         6.0036   55.3001   26.7313 H         1 UNK         0.0000 
     57 H57         6.8161   55.2077   25.1732 H         1 UNK         0.0000 
     58 H58         6.2629   53.7281   25.9903 H         1 UNK         0.0000 
     59 H59         2.6401   54.3899   18.0636 H         1 UNK         0.0000 
     60 H60         3.5046   55.0360   19.4744 H         1 UNK         0.0000 
     61 H61         4.2583   55.3948   16.6120 H         1 UNK         0.0000 
     62 H62         4.8372   56.2621   18.0238 H         1 UNK         0.0000 
     63 H63         6.8131   55.0270   17.7240 H         1 UNK         0.0000 
     64 H64         6.0083   53.8558   16.6916 H         1 UNK         0.0000 
     65 H65         6.0356   53.8986   19.7452 H         1 UNK         0.0000 
     66 H66         6.2932   52.4966   18.6849 H         1 UNK         0.0000 
     67 H67         4.0804   52.5423   18.0478 H         1 UNK         0.0000 
@<TRIPOS>BOND
     1    1    2 1    
     2    1   38 1    
     3    1   39 1    
     4    1   40 1    
     5    2    7 ar   
     6    2    3 ar   
     7    3    4 ar   
     8    3   41 1    
     9    4    5 ar   
    10    4    9 1    
    11    5    6 ar   
    12    5   42 1    
    13    6    7 ar   
    14    6   43 1    
    15    7    8 1    
    16    9   10 2    
    17    9   11 2    
    18    9   12 1    
    19   12   13 1    
    20   12   44 1    
    21   13   18 ar   
    22   13   14 ar   
    23   14   15 ar   
    24   14   45 1    
    25   15   16 ar   
    26   15   46 1    
    27   16   17 ar   
    28   16   19 1    
    29   17   18 ar   
    30   17   47 1    
    31   18   48 1    
    32   19   20 2    
    33   19   21 am   BACKBONE|DICT|INTERRES
    34   21   22 1    
    35   21   49 1    
    36   22   23 1    
    37   22   50 1    
    38   22   51 1    
    39   23   24 1    
    40   23   25 1    
    41   23   33 1    
    42   25   30 ar   
    43   25   26 ar   
    44   26   27 ar   
    45   26   52 1    
    46   27   28 ar   
    47   27   53 1    
    48   28   29 ar   
    49   28   31 1    
    50   29   30 ar   
    51   29   54 1    
    52   30   55 1    
    53   31   32 1    
    54   32   56 1    
    55   32   57 1    
    56   32   58 1    
    57   33   37 1    
    58   33   34 1    
    59   33   67 1    
    60   34   35 1    
    61   34   59 1    
    62   34   60 1    
    63   35   36 1    
    64   35   61 1    
    65   35   62 1    
    66   36   37 1    
    67   36   63 1    
    68   36   64 1    
    69   37   65 1    
    70   37   66 1    
@<TRIPOS>SUBSTRUCTURE
     1 UNK         1 GROUP             0       ****    0 ROOT    
