@<TRIPOS>MOLECULE
ZINC29794920_689
51   55    1
SMALL
USER_CHARGES


@<TRIPOS>ATOM
      1 C1         -0.1616   50.2637   26.1038 C.ar      1 UNK         0.0000 
      2 C2          0.2863   50.7717   24.8847 C.ar      1 UNK         0.0000 
      3 C3          0.9421   52.0091   24.8297 C.ar      1 UNK         0.0000 
      4 C4          1.1046   52.7413   26.0153 C.ar      1 UNK         0.0000 
      5 C5          0.6680   52.2315   27.2415 C.ar      1 UNK         0.0000 
      6 C6          0.0333   50.9868   27.2794 C.ar      1 UNK         0.0000 
      7 S7          0.9417   53.1599   28.7546 S.o2      1 UNK         0.0000 
      8 O8          0.7082   54.5807   28.4811 O.2       1 UNK         0.0000 
      9 O9          0.2092   52.4804   29.8272 O.2       1 UNK         0.0000 
     10 N10         2.6635   52.9546   29.1529 N.pl3     1 UNK         0.0000 
     11 C11         3.7507   53.4644   28.4218 C.ar      1 UNK         0.0000 
     12 C12         3.6464   54.4924   27.4777 C.ar      1 UNK         0.0000 
     13 C13         4.7673   54.8966   26.7553 C.ar      1 UNK         0.0000 
     14 C14         6.0081   54.3254   27.0141 C.ar      1 UNK         0.0000 
     15 C15         6.1303   53.3314   27.9774 C.ar      1 UNK         0.0000 
     16 C16         5.0012   52.8968   28.6691 C.ar      1 UNK         0.0000 
     17 F17         7.0994   54.7458   26.3338 F         1 UNK         0.0000 
     18 C18         1.4894   52.5113   23.5181 C.2       1 UNK         0.0000 
     19 O19         0.8590   52.3302   22.4766 O.2       1 UNK         0.0000 
     20 N20         2.7041   53.0953   23.6120 N.am      1 UNK         0.0000 
     21 C21         3.6001   53.4949   22.6038 C.ar      1 UNK         0.0000 
     22 C22         3.3987   53.2981   21.2310 C.ar      1 UNK         0.0000 
     23 C23         4.3436   53.7546   20.3151 C.ar      1 UNK         0.0000 
     24 C24         5.5042   54.3996   20.7533 C.ar      1 UNK         0.0000 
     25 C25         5.7270   54.5422   22.1259 C.ar      1 UNK         0.0000 
     26 C26         4.7805   54.0963   23.0427 C.ar      1 UNK         0.0000 
     27 C27         6.5070   54.8963   19.7578 C.ar      1 UNK         0.0000 
     28 C28         6.7042   54.4066   18.4656 C.ar      1 UNK         0.0000 
     29 N29         7.7661   55.1253   17.9583 N.pl3     1 UNK         0.0000 
     30 C30         8.5317   55.2143   16.8086 C.2       1 UNK         0.0000 
     31 C31         9.5034   56.1884   16.9242 C.2       1 UNK         0.0000 
     32 S32         9.4656   57.0075   18.4816 S.3       1 UNK         0.0000 
     33 C33         8.1156   55.9958   18.9694 C.ar      1 UNK         0.0000 
     34 N34         7.3676   55.8620   20.0429 N.2       1 UNK         0.0000 
     35 H35        -0.6533   49.3011   26.1492 H         1 UNK         0.0000 
     36 H36         0.1420   50.1845   23.9878 H         1 UNK         0.0000 
     37 H37         1.5702   53.7126   25.9834 H         1 UNK         0.0000 
     38 H38        -0.3200   50.5688   28.2122 H         1 UNK         0.0000 
     39 H39         2.8582   52.1938   29.7829 H         1 UNK         0.0000 
     40 H40         2.7133   54.9939   27.2877 H         1 UNK         0.0000 
     41 H41         4.6831   55.6827   26.0197 H         1 UNK         0.0000 
     42 H42         7.0982   52.8954   28.1723 H         1 UNK         0.0000 
     43 H43         5.1027   52.1061   29.3976 H         1 UNK         0.0000 
     44 H44         3.0650   53.1912   24.5476 H         1 UNK         0.0000 
     45 H45         2.5136   52.8204   20.8421 H         1 UNK         0.0000 
     46 H46         4.1578   53.6139   19.2604 H         1 UNK         0.0000 
     47 H47         6.6318   55.0098   22.4867 H         1 UNK         0.0000 
     48 H48         4.9766   54.2267   24.0948 H         1 UNK         0.0000 
     49 H49         6.2066   53.6201   17.9161 H         1 UNK         0.0000 
     50 H50         8.3335   54.5654   15.9678 H         1 UNK         0.0000 
     51 H51        10.2419   56.4750   16.1883 H         1 UNK         0.0000 
@<TRIPOS>BOND
     1    1    6 ar   
     2    1    2 ar   
     3    1   35 1    
     4    2    3 ar   
     5    2   36 1    
     6    3    4 ar   
     7    3   18 1    
     8    4    5 ar   
     9    4   37 1    
    10    5    6 ar   
    11    5    7 1    
    12    6   38 1    
    13    7    8 2    
    14    7    9 2    
    15    7   10 1    
    16   10   11 1    
    17   10   39 1    
    18   11   16 ar   
    19   11   12 ar   
    20   12   13 ar   
    21   12   40 1    
    22   13   14 ar   
    23   13   41 1    
    24   14   15 ar   
    25   14   17 1    
    26   15   16 ar   
    27   15   42 1    
    28   16   43 1    
    29   18   19 2    
    30   18   20 am   BACKBONE|DICT|INTERRES
    31   20   21 1    
    32   20   44 1    
    33   21   26 ar   
    34   21   22 ar   
    35   22   23 ar   
    36   22   45 1    
    37   23   24 ar   
    38   23   46 1    
    39   24   25 ar   
    40   24   27 1    
    41   25   26 ar   
    42   25   47 1    
    43   26   48 1    
    44   27   34 ar   
    45   27   28 ar   
    46   28   29 ar   
    47   28   49 1    
    48   29   33 ar   
    49   29   30 1    
    50   30   31 2    
    51   30   50 1    
    52   31   32 1    
    53   31   51 1    
    54   32   33 1    
    55   33   34 ar   
@<TRIPOS>SUBSTRUCTURE
     1 UNK         1 GROUP             0       ****    0 ROOT    
