ZINC39637142_218
                    3D
 Schrodinger Suite 2024-2.
 69 72  0  0  1  0            999 V2000
   -5.5328   47.8349   30.8774 C   0  0  0  0  0  0
   -4.8835   48.1626   29.5175 C   0  0  1  0  0  0
   -3.8154   48.3100   29.6861 H   0  0  0  0  0  0
   -5.0161   46.9653   28.5408 C   0  0  0  0  0  0
   -4.3862   47.2387   27.1614 C   0  0  0  0  0  0
   -4.9362   48.5480   26.5597 C   0  0  0  0  0  0
   -4.7138   49.7510   27.5028 C   0  0  1  0  0  0
   -5.2198   50.6099   27.0533 H   0  0  0  0  0  0
   -5.4188   49.4779   28.8646 C   0  0  2  0  0  0
   -6.4643   49.2691   28.6319 H   0  0  0  0  0  0
   -5.3983   50.7096   29.7980 C   0  0  0  0  0  0
   -3.2957   50.0975   27.6602 N   0  0  0  0  0  0
   -2.6941   51.2195   27.2387 C   0  0  0  0  0  0
   -3.3115   52.1701   26.7573 O   0  0  0  0  0  0
   -1.1631   51.2781   27.4593 C   0  0  2  0  0  0
   -0.9057   50.5828   28.2605 H   0  0  0  0  0  0
   -0.7499   52.6967   27.8850 C   0  0  0  0  0  0
    0.6521   52.7828   27.4732 N   0  0  0  0  0  0
    1.0192   51.6496   26.6130 C   0  0  0  0  0  0
   -0.3048   50.9655   26.2039 C   0  0  0  0  0  0
   -0.8596   51.5817   24.8792 C   0  0  0  0  0  0
    0.0780   51.3414   23.6773 C   0  0  0  0  0  0
    0.2389   49.8171   23.4870 N   0  3  0  0  0  0
    0.7013   49.0606   24.7507 C   0  0  0  0  0  0
   -0.2098   49.4372   25.9393 C   0  0  0  0  0  0
    1.5051   53.6519   28.0827 C   0  0  0  0  0  0
    1.1486   54.3721   29.0185 O   0  0  0  0  0  0
    2.9289   53.7792   27.5875 C   0  0  0  0  0  0
    3.9816   53.8809   28.5075 C   0  0  0  0  0  0
    5.2928   54.0709   28.0714 C   0  0  0  0  0  0
    5.5635   54.1709   26.7090 C   0  0  0  0  0  0
    4.5352   54.0972   25.7684 C   0  0  0  0  0  0
    3.2173   53.9059   26.2198 C   0  0  0  0  0  0
    4.8978   54.2284   24.4423 O   0  0  0  0  0  0
    3.8975   54.1256   23.4330 C   0  0  0  0  0  0
   -6.6151   47.7418   30.7908 H   0  0  0  0  0  0
   -5.1534   46.8961   31.2814 H   0  0  0  0  0  0
   -5.3220   48.6072   31.6169 H   0  0  0  0  0  0
   -4.5680   46.0763   28.9842 H   0  0  0  0  0  0
   -6.0732   46.7221   28.4121 H   0  0  0  0  0  0
   -3.3001   47.2972   27.2586 H   0  0  0  0  0  0
   -4.5860   46.4061   26.4871 H   0  0  0  0  0  0
   -4.4669   48.7430   25.5941 H   0  0  0  0  0  0
   -6.0001   48.4353   26.3493 H   0  0  0  0  0  0
   -4.3953   50.8953   30.1846 H   0  0  0  0  0  0
   -6.0659   50.5818   30.6508 H   0  0  0  0  0  0
   -5.7243   51.6074   29.2720 H   0  0  0  0  0  0
   -2.6881   49.3522   28.0177 H   0  0  0  0  0  0
   -1.2956   53.4246   27.2818 H   0  0  0  0  0  0
   -0.8955   52.8162   28.9609 H   0  0  0  0  0  0
    1.5141   50.9453   27.2805 H   0  0  0  0  0  0
    1.7204   51.8413   25.8067 H   0  0  0  0  0  0
   -1.8570   51.2052   24.6478 H   0  0  0  0  0  0
   -0.9879   52.6583   25.0016 H   0  0  0  0  0  0
   -0.3420   51.7206   22.7451 H   0  0  0  0  0  0
    1.0772   51.7580   23.7970 H   0  0  0  0  0  0
   -0.6544   49.4383   23.2028 H   0  0  0  0  0  0
    0.6329   47.9978   24.5161 H   0  0  0  0  0  0
    1.7527   49.2968   24.8823 H   0  0  0  0  0  0
    0.1860   48.9420   26.8279 H   0  0  0  0  0  0
   -1.2038   49.0032   25.8141 H   0  0  0  0  0  0
    3.7898   53.8204   29.5690 H   0  0  0  0  0  0
    6.0964   54.1474   28.7905 H   0  0  0  0  0  0
    6.5808   54.3161   26.3766 H   0  0  0  0  0  0
    2.4050   53.8881   25.5110 H   0  0  0  0  0  0
    4.3587   54.2440   22.4519 H   0  0  0  0  0  0
    3.4098   53.1513   23.4530 H   0  0  0  0  0  0
    3.1394   54.9028   23.5346 H   0  0  0  0  0  0
    0.8817   49.6324   22.7280 H   0  0  0  0  0  0
  1  2  1  0  0  0
  1 36  1  0  0  0
  1 37  1  0  0  0
  1 38  1  0  0  0
  2  3  1  0  0  0
  2  9  1  0  0  0
  2  4  1  0  0  0
  4  5  1  0  0  0
  4 39  1  0  0  0
  4 40  1  0  0  0
  5  6  1  0  0  0
  5 41  1  0  0  0
  5 42  1  0  0  0
  6  7  1  0  0  0
  6 43  1  0  0  0
  6 44  1  0  0  0
  7  8  1  0  0  0
  7  9  1  0  0  0
  7 12  1  0  0  0
  9 10  1  0  0  0
  9 11  1  0  0  0
 11 45  1  0  0  0
 11 46  1  0  0  0
 11 47  1  0  0  0
 12 13  1  0  0  0
 12 48  1  0  0  0
 13 14  2  0  0  0
 13 15  1  0  0  0
 15 16  1  0  0  0
 15 20  1  0  0  0
 15 17  1  0  0  0
 17 18  1  0  0  0
 17 49  1  0  0  0
 17 50  1  0  0  0
 18 19  1  0  0  0
 18 26  1  0  0  0
 19 20  1  0  0  0
 19 51  1  0  0  0
 19 52  1  0  0  0
 20 25  1  0  0  0
 20 21  1  0  0  0
 21 22  1  0  0  0
 21 53  1  0  0  0
 21 54  1  0  0  0
 22 23  1  0  0  0
 22 55  1  0  0  0
 22 56  1  0  0  0
 23 24  1  0  0  0
 23 57  1  0  0  0
 23 69  1  0  0  0
 24 25  1  0  0  0
 24 58  1  0  0  0
 24 59  1  0  0  0
 25 60  1  0  0  0
 25 61  1  0  0  0
 26 27  2  0  0  0
 26 28  1  0  0  0
 28 33  2  0  0  0
 28 29  1  0  0  0
 29 30  2  0  0  0
 29 62  1  0  0  0
 30 31  1  0  0  0
 30 63  1  0  0  0
 31 32  2  0  0  0
 31 64  1  0  0  0
 32 33  1  0  0  0
 32 34  1  0  0  0
 33 65  1  0  0  0
 34 35  1  0  0  0
 35 66  1  0  0  0
 35 67  1  0  0  0
 35 68  1  0  0  0
M  CHG  1  23   1
M  END
> <i_i_glide_confnum>
26

> <i_i_glide_lignum>
219

> <i_i_glide_posenum>
233

> <i_i_glide_rotatable_bonds>
6

> <i_m_Source_File_Index>
4526

> <b_m_subgroup_collapsed>
0

> <r_i_docking_score>
-5.15799

> <r_i_glide_ecoul>
-6.90765

> <r_i_glide_eff_state_penalty>
0

> <r_i_glide_einternal>
2.97659

> <r_i_glide_emodel>
-53.1169

> <r_i_glide_energy>
-39.062

> <r_i_glide_erotb>
0.540729

> <r_i_glide_esite>
-0.169403

> <r_i_glide_evdw>
-32.1543

> <r_i_glide_gscore>
-5.15799

> <r_i_glide_hbond>
-0.16

> <r_i_glide_ligand_efficiency>
-0.166387

> <r_i_glide_ligand_efficiency_ln>
-1.16328

> <r_i_glide_ligand_efficiency_sa>
-0.522684

> <r_i_glide_lipo>
-1.80875

> <r_i_glide_metal>
0

> <r_i_glide_rewards>
-0.9167

> <s_i_glide_gridfile>
wee1_glide-grid

> <s_m_Source_File>
wee1_decoys_glide_SP.sdf

> <s_m_Source_Path>
/Users/zhangxujun/Desktop

> <s_m_entry_id>
4801

> <s_m_entry_name>
wee1_decoys_glide_SP.4526

> <s_m_subgroup_title>
wee1_decoys_glide_SP

> <s_m_subgroupid>
wee1_decoys_glide_SP


$$$$
