@<TRIPOS>MOLECULE
ZINC12468353_1307
51   54    1
SMALL
USER_CHARGES


@<TRIPOS>ATOM
      1 C1          3.6053   54.6267   25.7150 C.3       1 UNK         0.0000 
      2 C2          4.8153   54.3229   26.5670 C.ar      1 UNK         0.0000 
      3 C3          4.9930   54.2362   27.9489 C.ar      1 UNK         0.0000 
      4 C4          6.3557   53.9342   28.0797 C.ar      1 UNK         0.0000 
      5 N5          6.9946   53.8728   26.9391 N.2       1 UNK         0.0000 
      6 N6          6.0582   54.1101   26.0200 N.pl3     1 UNK         0.0000 
      7 C7          6.4296   54.1116   24.6115 C.3       1 UNK         0.0000 
      8 C8          3.9841   54.4348   29.0633 C.3       1 UNK         0.0000 
      9 N9          2.7131   53.7682   28.7890 N.am      1 UNK         0.0000 
     10 C10         2.1182   52.8487   29.5616 C.2       1 UNK         0.0000 
     11 O11         2.5850   52.4208   30.6205 O.2       1 UNK         0.0000 
     12 C12         0.8331   52.4312   29.0721 C.ar      1 UNK         0.0000 
     13 C13        -0.2812   52.0964   29.8476 C.ar      1 UNK         0.0000 
     14 N14        -1.2957   51.6967   29.1234 N.2       1 UNK         0.0000 
     15 N15        -0.8905   51.7341   27.8438 N.pl3     1 UNK         0.0000 
     16 C16         0.4442   52.1014   27.7719 C.ar      1 UNK         0.0000 
     17 N17         1.1044   52.1277   26.5575 N.pl3     1 UNK         0.0000 
     18 C18         0.5246   51.3482   25.4575 C.3       1 UNK         0.0000 
     19 H19         0.7379   50.2974   25.6651 H         1 UNK         0.0000 
     20 C20        -1.0047   51.5098   25.4119 C.3       1 UNK         0.0000 
     21 C21        -1.7033   51.1689   26.7502 C.3       1 UNK         0.0000 
     22 H22        -1.6702   50.0866   26.8808 H         1 UNK         0.0000 
     23 C23        -3.2017   51.5672   26.7410 C.3       1 UNK         0.0000 
     24 F24        -3.8255   51.2962   27.8874 F         1 UNK         0.0000 
     25 F25        -3.3639   52.8668   26.4822 F         1 UNK         0.0000 
     26 F26        -3.8489   50.9069   25.7807 F         1 UNK         0.0000 
     27 C27         1.1661   51.6268   24.0983 C.ar      1 UNK         0.0000 
     28 C28         1.6162   50.5648   23.3032 C.ar      1 UNK         0.0000 
     29 C29         2.2524   50.8204   22.0909 C.ar      1 UNK         0.0000 
     30 C30         2.4297   52.1360   21.6696 C.ar      1 UNK         0.0000 
     31 C31         1.9555   53.1961   22.4372 C.ar      1 UNK         0.0000 
     32 C32         1.3153   52.9437   23.6463 C.ar      1 UNK         0.0000 
     33 Br33        3.3330   52.4872   20.0331 Br        1 UNK         0.0000 
     34 H34         2.6796   54.2804   26.1661 H         1 UNK         0.0000 
     35 H35         3.5058   55.6965   25.5761 H         1 UNK         0.0000 
     36 H36         3.6632   54.1683   24.7279 H         1 UNK         0.0000 
     37 H37         6.8855   53.7962   29.0111 H         1 UNK         0.0000 
     38 H38         5.9126   53.2986   24.1016 H         1 UNK         0.0000 
     39 H39         6.1370   55.0617   24.1638 H         1 UNK         0.0000 
     40 H40         7.5035   53.9805   24.4850 H         1 UNK         0.0000 
     41 H41         4.3980   54.1597   30.0344 H         1 UNK         0.0000 
     42 H42         3.7743   55.5014   29.1457 H         1 UNK         0.0000 
     43 H43         2.2157   54.0701   27.9647 H         1 UNK         0.0000 
     44 H44        -0.3553   52.1330   30.9279 H         1 UNK         0.0000 
     45 H45         2.1066   52.0061   26.5910 H         1 UNK         0.0000 
     46 H46        -1.4269   50.8884   24.6198 H         1 UNK         0.0000 
     47 H47        -1.2487   52.5310   25.1128 H         1 UNK         0.0000 
     48 H48         1.5046   49.5421   23.6359 H         1 UNK         0.0000 
     49 H49         2.6214   50.0028   21.4876 H         1 UNK         0.0000 
     50 H50         2.0878   54.2108   22.0866 H         1 UNK         0.0000 
     51 H51         0.9530   53.7707   24.2410 H         1 UNK         0.0000 
@<TRIPOS>BOND
     1    1    2 1    
     2    1   34 1    
     3    1   35 1    
     4    1   36 1    
     5    2    6 ar   
     6    2    3 ar   
     7    3    4 ar   
     8    3    8 1    
     9    4    5 ar   
    10    4   37 1    
    11    5    6 ar   
    12    6    7 1    
    13    7   38 1    
    14    7   39 1    
    15    7   40 1    
    16    8    9 1    
    17    8   41 1    
    18    8   42 1    
    19    9   10 am   BACKBONE|DICT|INTERRES
    20    9   43 1    
    21   10   11 2    
    22   10   12 1    
    23   12   16 ar   
    24   12   13 ar   
    25   13   14 ar   
    26   13   44 1    
    27   14   15 ar   
    28   15   21 1    
    29   15   16 ar   
    30   16   17 1    
    31   17   18 1    
    32   17   45 1    
    33   18   19 1    
    34   18   20 1    
    35   18   27 1    
    36   20   21 1    
    37   20   46 1    
    38   20   47 1    
    39   21   22 1    
    40   21   23 1    
    41   23   24 1    
    42   23   25 1    
    43   23   26 1    
    44   27   32 ar   
    45   27   28 ar   
    46   28   29 ar   
    47   28   48 1    
    48   29   30 ar   
    49   29   49 1    
    50   30   31 ar   
    51   30   33 1    
    52   31   32 ar   
    53   31   50 1    
    54   32   51 1    
@<TRIPOS>SUBSTRUCTURE
     1 UNK         1 GROUP             0       ****    0 ROOT    
