@<TRIPOS>MOLECULE
ZINC44939122_1052
68   71    1
SMALL
USER_CHARGES


@<TRIPOS>ATOM
      1 C1          4.2221   58.4736   16.8865 C.3       1 UNK         0.0000 
      2 C2          3.4968   57.1897   16.5244 C.ar      1 UNK         0.0000 
      3 C3          2.1271   57.2118   16.2594 C.ar      1 UNK         0.0000 
      4 C4          1.4627   56.0369   15.9208 C.ar      1 UNK         0.0000 
      5 C5          2.1665   54.8372   15.8408 C.ar      1 UNK         0.0000 
      6 C6          3.5544   54.7852   16.0999 C.ar      1 UNK         0.0000 
      7 C7          4.1963   55.9799   16.4660 C.ar      1 UNK         0.0000 
      8 N8          4.2531   53.5477   15.9841 N.pl3     1 UNK         0.0000 
      9 C9          3.4681   52.4145   15.4728 C.3       1 UNK         0.0000 
     10 C10         1.9791   52.4770   15.8941 C.3       1 UNK         0.0000 
     11 H11         1.4377   51.6678   15.4028 H         1 UNK         0.0000 
     12 O12         1.4153   53.7316   15.4922 O.3       1 UNK         0.0000 
     13 C13         1.7099   52.2187   17.4050 C.2       1 UNK         0.0000 
     14 O14         0.9390   52.9444   18.0376 O.2       1 UNK         0.0000 
     15 N15         2.3037   51.1296   17.9306 N.am      1 UNK         0.0000 
     16 C16         2.1092   50.5883   19.2063 C.ar      1 UNK         0.0000 
     17 C17         2.1154   49.1962   19.2714 C.ar      1 UNK         0.0000 
     18 C18         1.9034   48.5516   20.4816 C.ar      1 UNK         0.0000 
     19 C19         1.7328   49.2957   21.6489 C.ar      1 UNK         0.0000 
     20 C20         1.7641   50.6944   21.6131 C.ar      1 UNK         0.0000 
     21 C21         1.9384   51.3473   20.3783 C.ar      1 UNK         0.0000 
     22 N22         1.6099   51.3343   22.8563 N.am      1 UNK         0.0000 
     23 C23         1.9055   52.5992   23.2288 C.2       1 UNK         0.0000 
     24 O24         2.3446   53.4734   22.4818 O.2       1 UNK         0.0000 
     25 C25         1.7745   52.8594   24.7123 C.ar      1 UNK         0.0000 
     26 C26         0.7744   52.2399   25.4757 C.ar      1 UNK         0.0000 
     27 C27         0.7264   52.4178   26.8559 C.ar      1 UNK         0.0000 
     28 C28         1.6719   53.2206   27.5118 C.ar      1 UNK         0.0000 
     29 C29         2.6515   53.8589   26.7375 C.ar      1 UNK         0.0000 
     30 C30         2.6948   53.6956   25.3549 C.ar      1 UNK         0.0000 
     31 C31         1.6733   53.4073   29.0519 C.3       1 UNK         0.0000 
     32 C32         2.9750   52.8083   29.6398 C.3       1 UNK         0.0000 
     33 C33         0.4776   52.7095   29.7567 C.3       1 UNK         0.0000 
     34 C34         1.5939   54.9145   29.4020 C.3       1 UNK         0.0000 
     35 S35         6.0431   53.4061   15.9036 S.o2      1 UNK         0.0000 
     36 O36         6.3557   52.1016   15.3096 O.2       1 UNK         0.0000 
     37 O37         6.5768   54.6256   15.2879 O.2       1 UNK         0.0000 
     38 C38         6.5220   53.3718   17.7205 C.3       1 UNK         0.0000 
     39 H39         4.7411   58.8845   16.0199 H         1 UNK         0.0000 
     40 H40         3.5359   59.2292   17.2719 H         1 UNK         0.0000 
     41 H41         4.9624   58.2878   17.6664 H         1 UNK         0.0000 
     42 H42         1.5749   58.1384   16.3192 H         1 UNK         0.0000 
     43 H43         0.4025   56.0545   15.7194 H         1 UNK         0.0000 
     44 H44         5.2484   55.9983   16.7013 H         1 UNK         0.0000 
     45 H45         3.9345   51.4672   15.7518 H         1 UNK         0.0000 
     46 H46         3.5221   52.4495   14.3840 H         1 UNK         0.0000 
     47 H47         2.8974   50.5668   17.3268 H         1 UNK         0.0000 
     48 H48         2.2735   48.6073   18.3775 H         1 UNK         0.0000 
     49 H49         1.9042   47.4730   20.5003 H         1 UNK         0.0000 
     50 H50         1.6021   48.7769   22.5888 H         1 UNK         0.0000 
     51 H51         1.9508   52.4256   20.3185 H         1 UNK         0.0000 
     52 H52         1.3239   50.7242   23.6052 H         1 UNK         0.0000 
     53 H53         0.0339   51.6013   25.0154 H         1 UNK         0.0000 
     54 H54        -0.0523   51.9026   27.3974 H         1 UNK         0.0000 
     55 H55         3.3972   54.4826   27.2065 H         1 UNK         0.0000 
     56 H56         3.4749   54.1892   24.7915 H         1 UNK         0.0000 
     57 H57         2.9973   52.8791   30.7281 H         1 UNK         0.0000 
     58 H58         3.8656   53.3167   29.2680 H         1 UNK         0.0000 
     59 H59         3.0753   51.7526   29.3810 H         1 UNK         0.0000 
     60 H60        -0.4811   53.0883   29.3982 H         1 UNK         0.0000 
     61 H61         0.4871   51.6297   29.6018 H         1 UNK         0.0000 
     62 H62         0.4951   52.8679   30.8364 H         1 UNK         0.0000 
     63 H63         0.7122   55.3738   28.9554 H         1 UNK         0.0000 
     64 H64         1.5319   55.0794   30.4780 H         1 UNK         0.0000 
     65 H65         2.4628   55.4712   29.0508 H         1 UNK         0.0000 
     66 H66         7.6055   53.2986   17.7879 H         1 UNK         0.0000 
     67 H67         6.1696   54.2831   18.1992 H         1 UNK         0.0000 
     68 H68         6.0559   52.4994   18.1788 H         1 UNK         0.0000 
@<TRIPOS>BOND
     1    1    2 1    
     2    1   39 1    
     3    1   40 1    
     4    1   41 1    
     5    2    7 ar   
     6    2    3 ar   
     7    3    4 ar   
     8    3   42 1    
     9    4    5 ar   
    10    4   43 1    
    11    5   12 1    
    12    5    6 ar   
    13    6    7 ar   
    14    6    8 1    
    15    7   44 1    
    16    8    9 1    
    17    8   35 1    
    18    9   10 1    
    19    9   45 1    
    20    9   46 1    
    21   10   11 1    
    22   10   12 1    
    23   10   13 1    
    24   13   14 2    
    25   13   15 am   BACKBONE|DICT|INTERRES
    26   15   16 1    
    27   15   47 1    
    28   16   21 ar   
    29   16   17 ar   
    30   17   18 ar   
    31   17   48 1    
    32   18   19 ar   
    33   18   49 1    
    34   19   20 ar   
    35   19   50 1    
    36   20   21 ar   
    37   20   22 1    
    38   21   51 1    
    39   22   23 am   BACKBONE|DICT|INTERRES
    40   22   52 1    
    41   23   24 2    
    42   23   25 1    
    43   25   30 ar   
    44   25   26 ar   
    45   26   27 ar   
    46   26   53 1    
    47   27   28 ar   
    48   27   54 1    
    49   28   29 ar   
    50   28   31 1    
    51   29   30 ar   
    52   29   55 1    
    53   30   56 1    
    54   31   32 1    
    55   31   33 1    
    56   31   34 1    
    57   32   57 1    
    58   32   58 1    
    59   32   59 1    
    60   33   60 1    
    61   33   61 1    
    62   33   62 1    
    63   34   63 1    
    64   34   64 1    
    65   34   65 1    
    66   35   36 2    
    67   35   37 2    
    68   35   38 1    
    69   38   66 1    
    70   38   67 1    
    71   38   68 1    
@<TRIPOS>SUBSTRUCTURE
     1 UNK         1 GROUP             0       ****    0 ROOT    
