@<TRIPOS>MOLECULE
ZINC13551248_1381
37   40    1
SMALL
USER_CHARGES


@<TRIPOS>ATOM
      1 C1          4.7898   53.8249   22.1637 C.ar      1 UNK         0.0000 
      2 C2          4.7275   54.0965   20.7906 C.ar      1 UNK         0.0000 
      3 C3          5.6709   54.9719   20.2664 C.ar      1 UNK         0.0000 
      4 C4          6.6297   55.5508   21.0472 C.ar      1 UNK         0.0000 
      5 C5          6.7185   55.2966   22.4112 C.ar      1 UNK         0.0000 
      6 C6          5.7668   54.4268   22.9831 C.ar      1 UNK         0.0000 
      7 N7          5.7161   54.0966   24.3476 N.am      1 UNK         0.0000 
      8 C8          6.3038   54.6976   25.4017 C.2       1 UNK         0.0000 
      9 O9          7.0140   55.6966   25.3353 O.2       1 UNK         0.0000 
     10 C10         6.0543   54.0578   26.7719 C.3       1 UNK         0.0000 
     11 C11         4.5793   53.7366   27.0923 C.3       1 UNK         0.0000 
     12 S12         4.3050   53.3226   28.8380 S.3       1 UNK         0.0000 
     13 C13         2.5799   53.1377   29.2098 C.ar      1 UNK         0.0000 
     14 C14         1.6721   52.7908   28.2007 C.ar      1 UNK         0.0000 
     15 C15         0.3018   52.6535   28.5600 C.ar      1 UNK         0.0000 
     16 N16        -0.4665   52.3014   27.4825 N.2       1 UNK         0.0000 
     17 H17         2.4651   52.4630   26.2137 H         1 UNK         0.0000 
     18 C18         0.3908   52.2015   26.4980 C.ar      1 UNK         0.0000 
     19 N19         1.6862   52.4983   26.8544 N.pl3     1 UNK         0.0000 
     20 N20        -0.1347   52.8624   29.8083 N.ar      1 UNK         0.0000 
     21 C21         0.8214   53.1820   30.7211 C.ar      1 UNK         0.0000 
     22 N22         2.1519   53.2968   30.4816 N.ar      1 UNK         0.0000 
     23 Cl23        0.3044   53.5381   32.3253 Cl        1 UNK         0.0000 
     24 O24         7.3825   56.3881   20.2873 O.3       1 UNK         0.0000 
     25 C25         7.0032   56.1358   18.9597 C.3       1 UNK         0.0000 
     26 O26         5.7940   55.4248   18.9924 O.3       1 UNK         0.0000 
     27 H27         4.0579   53.1539   22.5876 H         1 UNK         0.0000 
     28 H28         3.9637   53.6489   20.1703 H         1 UNK         0.0000 
     29 H29         7.5040   55.7600   22.9908 H         1 UNK         0.0000 
     30 H30         5.1367   53.3007   24.5607 H         1 UNK         0.0000 
     31 H31         6.7037   53.2019   26.9628 H         1 UNK         0.0000 
     32 H32         6.3967   54.7701   27.5266 H         1 UNK         0.0000 
     33 H33         3.9355   54.5821   26.8369 H         1 UNK         0.0000 
     34 H34         4.2593   52.8968   26.4825 H         1 UNK         0.0000 
     35 H35         0.1589   51.9203   25.4796 H         1 UNK         0.0000 
     36 H36         6.8834   57.0695   18.4061 H         1 UNK         0.0000 
     37 H37         7.7682   55.5213   18.4781 H         1 UNK         0.0000 
@<TRIPOS>BOND
     1    1    6 ar   
     2    1    2 ar   
     3    1   27 1    
     4    2    3 ar   
     5    2   28 1    
     6    3   26 1    
     7    3    4 ar   
     8    4    5 ar   
     9    4   24 1    
    10    5    6 ar   
    11    5   29 1    
    12    6    7 1    
    13    7    8 am   BACKBONE|DICT|INTERRES
    14    7   30 1    
    15    8    9 2    
    16    8   10 1    
    17   10   11 1    
    18   10   31 1    
    19   10   32 1    
    20   11   12 1    
    21   11   33 1    
    22   11   34 1    
    23   12   13 1    
    24   13   22 ar   
    25   13   14 ar   
    26   14   15 ar   
    27   14   19 ar   
    28   15   16 ar   
    29   15   20 ar   
    30   16   18 ar   
    31   17   19 1    
    32   18   35 1    
    33   18   19 ar   
    34   20   21 ar   
    35   21   23 1    
    36   21   22 ar   
    37   24   25 1    
    38   25   26 1    
    39   25   36 1    
    40   25   37 1    
@<TRIPOS>SUBSTRUCTURE
     1 UNK         1 GROUP             0       ****    0 ROOT    
