@<TRIPOS>MOLECULE
ZINC63581925_5723
74   79    1
SMALL
USER_CHARGES


@<TRIPOS>ATOM
      1 C1          5.6239   60.0624   14.0576 C.3       1 UNK         0.0000 
      2 C2          6.5148   59.4340   15.1198 C.ar      1 UNK         0.0000 
      3 C3          7.8913   59.6574   15.0528 C.ar      1 UNK         0.0000 
      4 C4          8.7424   59.1114   16.0081 C.ar      1 UNK         0.0000 
      5 C5          8.2232   58.3290   17.0347 C.ar      1 UNK         0.0000 
      6 C6          6.8441   58.0757   17.1149 C.ar      1 UNK         0.0000 
      7 C7          5.9844   58.6391   16.1547 C.ar      1 UNK         0.0000 
      8 C8          4.4754   58.4058   16.2576 C.3       1 UNK         0.0000 
      9 O9          6.2757   57.2910   18.1001 O.3       1 UNK         0.0000 
     10 C10         7.1039   56.4416   18.8845 C.3       1 UNK         0.0000 
     11 C11         6.2533   55.3014   19.4181 C.ar      1 UNK         0.0000 
     12 C12         6.0191   55.1962   20.7921 C.ar      1 UNK         0.0000 
     13 C13         5.3086   54.1092   21.3190 C.ar      1 UNK         0.0000 
     14 C14         4.7884   53.1592   20.4378 C.ar      1 UNK         0.0000 
     15 C15         4.9928   53.2783   19.0675 C.ar      1 UNK         0.0000 
     16 C16         5.7444   54.3361   18.5371 C.ar      1 UNK         0.0000 
     17 O17         6.0256   54.4720   17.1897 O.3       1 UNK         0.0000 
     18 C18         5.5698   53.4802   16.2766 C.3       1 UNK         0.0000 
     19 C19         5.1046   53.9214   22.8208 C.3       1 UNK         0.0000 
     20 H20         5.2694   52.8593   22.9974 H         1 UNK         0.0000 
     21 C21         3.6557   54.2950   23.2391 C.3       1 UNK         0.0000 
     22 H22         3.4256   55.2981   22.9042 H         1 UNK         0.0000 
     23 C23         3.4926   54.1483   24.7325 C.2       1 UNK         0.0000 
     24 C24         2.4205   53.3876   24.9805 C.2       1 UNK         0.0000 
     25 C25         1.8705   52.9226   26.2467 C.2       1 UNK         0.0000 
     26 C26         0.7925   52.1012   26.3077 C.2       1 UNK         0.0000 
     27 C27         0.2229   51.7106   25.0186 C.2       1 UNK         0.0000 
     28 C28         0.7254   52.1301   23.8227 C.2       1 UNK         0.0000 
     29 C29         1.8507   52.9649   23.7836 C.2       1 UNK         0.0000 
     30 N30         2.5363   53.4434   22.7630 N.pl3     1 UNK         0.0000 
     31 O31         0.2874   51.5514   27.4558 O.3       1 UNK         0.0000 
     32 C32         0.1045   52.3422   28.6470 C.3       1 UNK         0.0000 
     33 C33         1.3936   52.9237   29.2213 C.ar      1 UNK         0.0000 
     34 C34         2.5019   52.0980   29.4269 C.ar      1 UNK         0.0000 
     35 C35         3.7421   52.6602   29.7223 C.ar      1 UNK         0.0000 
     36 C36         3.8657   54.0459   29.8120 C.ar      1 UNK         0.0000 
     37 C37         2.7508   54.8699   29.6685 C.ar      1 UNK         0.0000 
     38 C38         1.5120   54.3088   29.3835 C.ar      1 UNK         0.0000 
     39 C39         4.5658   54.7459   25.6290 C.3       1 UNK         0.0000 
     40 C40         5.9514   54.3531   25.0744 C.3       1 UNK         0.0000 
     41 N41         6.0803   54.6481   23.6477 N.3       1 UNK         0.0000 
     42 H42         5.0750   60.9053   14.4819 H         1 UNK         0.0000 
     43 H43         6.1909   60.4096   13.1919 H         1 UNK         0.0000 
     44 H44         4.8936   59.3427   13.6891 H         1 UNK         0.0000 
     45 H45         8.3068   60.2691   14.2631 H         1 UNK         0.0000 
     46 H46         9.8061   59.2960   15.9525 H         1 UNK         0.0000 
     47 H47         8.9097   57.9321   17.7655 H         1 UNK         0.0000 
     48 H48         4.1687   57.5895   15.6046 H         1 UNK         0.0000 
     49 H49         4.1614   58.1785   17.2767 H         1 UNK         0.0000 
     50 H50         3.9152   59.2966   15.9772 H         1 UNK         0.0000 
     51 H51         7.9143   55.9944   18.3050 H         1 UNK         0.0000 
     52 H52         7.5617   57.0157   19.6906 H         1 UNK         0.0000 
     53 H53         6.4142   55.9539   21.4540 H         1 UNK         0.0000 
     54 H54         4.2411   52.3048   20.8077 H         1 UNK         0.0000 
     55 H55         4.5885   52.5025   18.4318 H         1 UNK         0.0000 
     56 H56         5.9710   52.4958   16.5209 H         1 UNK         0.0000 
     57 H57         4.4811   53.4305   16.2488 H         1 UNK         0.0000 
     58 H58         5.9144   53.7312   15.2721 H         1 UNK         0.0000 
     59 H59         2.4034   53.2091   27.1234 H         1 UNK         0.0000 
     60 H60        -0.6416   51.0585   25.0255 H         1 UNK         0.0000 
     61 H61         0.2457   51.7987   22.9112 H         1 UNK         0.0000 
     62 H62        -0.6092   53.1358   28.4294 H         1 UNK         0.0000 
     63 H63        -0.3612   51.7156   29.4076 H         1 UNK         0.0000 
     64 H64         2.4103   51.0297   29.2759 H         1 UNK         0.0000 
     65 H65         4.6096   52.0294   29.8386 H         1 UNK         0.0000 
     66 H66         4.8303   54.4947   30.0031 H         1 UNK         0.0000 
     67 H67         2.8505   55.9465   29.7185 H         1 UNK         0.0000 
     68 H68         0.6739   54.9627   29.2085 H         1 UNK         0.0000 
     69 H69         4.4852   55.8289   25.6816 H         1 UNK         0.0000 
     70 H70         4.4754   54.3984   26.6562 H         1 UNK         0.0000 
     71 H71         6.7467   54.8646   25.6177 H         1 UNK         0.0000 
     72 H72         6.1357   53.2971   25.2550 H         1 UNK         0.0000 
     73 H73         7.0144   54.4541   23.3088 H         1 UNK         0.0000 
     74 H74         2.3251   53.2902   21.7801 H         1 UNK         0.0000 
@<TRIPOS>BOND
     1    1    2 1    
     2    1   42 1    
     3    1   43 1    
     4    1   44 1    
     5    2    7 ar   
     6    2    3 ar   
     7    3    4 ar   
     8    3   45 1    
     9    4    5 ar   
    10    4   46 1    
    11    5    6 ar   
    12    5   47 1    
    13    6    7 ar   
    14    6    9 1    
    15    7    8 1    
    16    8   48 1    
    17    8   49 1    
    18    8   50 1    
    19    9   10 1    
    20   10   11 1    
    21   10   51 1    
    22   10   52 1    
    23   11   16 ar   
    24   11   12 ar   
    25   12   13 ar   
    26   12   53 1    
    27   13   14 ar   
    28   13   19 1    
    29   14   15 ar   
    30   14   54 1    
    31   15   16 ar   
    32   15   55 1    
    33   16   17 1    
    34   17   18 1    
    35   18   56 1    
    36   18   57 1    
    37   18   58 1    
    38   19   20 1    
    39   19   41 1    
    40   19   21 1    
    41   21   22 1    
    42   21   30 1    
    43   21   23 1    
    44   23   24 2    
    45   23   39 1    
    46   24   29 1    
    47   24   25 1    
    48   25   26 2    
    49   25   59 1    
    50   26   27 1    
    51   26   31 1    
    52   27   28 2    
    53   27   60 1    
    54   28   29 1    
    55   28   61 1    
    56   29   30 2    
    57   30   74 1    
    58   31   32 1    
    59   32   33 1    
    60   32   62 1    
    61   32   63 1    
    62   33   38 ar   
    63   33   34 ar   
    64   34   35 ar   
    65   34   64 1    
    66   35   36 ar   
    67   35   65 1    
    68   36   37 ar   
    69   36   66 1    
    70   37   38 ar   
    71   37   67 1    
    72   38   68 1    
    73   39   40 1    
    74   39   69 1    
    75   39   70 1    
    76   40   41 1    
    77   40   71 1    
    78   40   72 1    
    79   41   73 1    
@<TRIPOS>SUBSTRUCTURE
     1 UNK         1 GROUP             0       ****    0 ROOT    
