@<TRIPOS>MOLECULE
ZINC39691004_134
60   63    1
SMALL
USER_CHARGES


@<TRIPOS>ATOM
      1 C1          2.0940   49.3006   18.6699 C.3       1 UNK         0.0000 
      2 C2          1.9453   49.8344   20.0811 C.2       1 UNK         0.0000 
      3 C3          2.3037   49.0927   21.1479 C.2       1 UNK         0.0000 
      4 C4          1.3825   51.2539   20.1543 C.3       1 UNK         0.0000 
      5 N5          1.3758   51.8497   21.4904 N.am      1 UNK         0.0000 
      6 C6          0.2889   52.1946   22.2037 C.2       1 UNK         0.0000 
      7 O7         -0.8541   52.0801   21.7620 O.2       1 UNK         0.0000 
      8 C8          0.4626   52.7843   23.6319 C.3       1 UNK         0.0000 
      9 H9         -0.1346   53.6965   23.6814 H         1 UNK         0.0000 
     10 C10         1.9160   53.2334   23.8742 C.3       1 UNK         0.0000 
     11 N11         2.0694   53.1911   25.3282 N.am      1 UNK         0.0000 
     12 C12         0.9386   52.4965   25.9599 C.3       1 UNK         0.0000 
     13 C13         0.1549   51.8156   24.8019 C.3       1 UNK         0.0000 
     14 C14        -1.3670   51.6768   25.0524 C.3       1 UNK         0.0000 
     15 C15        -1.6651   50.8224   26.2979 C.3       1 UNK         0.0000 
     16 N16        -1.0673   49.4147   26.0817 N.4       1 UNK         0.0000 
     17 C17         0.4387   49.4164   25.7389 C.3       1 UNK         0.0000 
     18 C18         0.6577   50.3560   24.5347 C.3       1 UNK         0.0000 
     19 C19         3.1052   53.6967   26.0610 C.2       1 UNK         0.0000 
     20 O20         3.0703   53.7331   27.2930 O.2       1 UNK         0.0000 
     21 C21         4.3250   54.1219   25.3857 C.2       1 UNK         0.0000 
     22 C22         5.5367   54.5718   25.9037 C.2       1 UNK         0.0000 
     23 C23         6.3914   54.7960   24.8186 C.2       1 UNK         0.0000 
     24 C24         5.6746   54.4967   23.6685 C.2       1 UNK         0.0000 
     25 O25         4.4351   54.0810   24.0307 O.3       1 UNK         0.0000 
     26 C26         5.9505   54.6139   22.2063 C.ar      1 UNK         0.0000 
     27 C27         5.0553   54.0945   21.2629 C.ar      1 UNK         0.0000 
     28 C28         5.2989   54.2588   19.9017 C.ar      1 UNK         0.0000 
     29 C29         6.4348   54.9456   19.4813 C.ar      1 UNK         0.0000 
     30 C30         7.3323   55.4659   20.4104 C.ar      1 UNK         0.0000 
     31 C31         7.0918   55.2974   21.7721 C.ar      1 UNK         0.0000 
     32 F32         6.6711   55.1067   18.1608 F         1 UNK         0.0000 
     33 H33         1.1216   49.2009   18.1882 H         1 UNK         0.0000 
     34 H34         2.7044   49.9863   18.0822 H         1 UNK         0.0000 
     35 H35         2.5831   48.3256   18.6460 H         1 UNK         0.0000 
     36 H36         2.7040   48.0969   21.0230 H         1 UNK         0.0000 
     37 H37         2.2119   49.4564   22.1590 H         1 UNK         0.0000 
     38 H38         0.3842   51.2438   19.7110 H         1 UNK         0.0000 
     39 H39         1.9749   51.9060   19.5099 H         1 UNK         0.0000 
     40 H40         2.2854   52.0440   21.8763 H         1 UNK         0.0000 
     41 H41         2.6289   52.4961   23.5041 H         1 UNK         0.0000 
     42 H42         2.0964   54.2214   23.4451 H         1 UNK         0.0000 
     43 H43         0.3044   53.2722   26.3874 H         1 UNK         0.0000 
     44 H44         1.1966   51.8192   26.7729 H         1 UNK         0.0000 
     45 H45        -1.8814   51.2856   24.1725 H         1 UNK         0.0000 
     46 H46        -1.7970   52.6663   25.2165 H         1 UNK         0.0000 
     47 H47        -2.7333   50.6742   26.4651 H         1 UNK         0.0000 
     48 H48        -1.2161   51.2108   27.2139 H         1 UNK         0.0000 
     49 H49        -1.5866   48.9213   25.3708 H         1 UNK         0.0000 
     50 H50         0.7049   48.3817   25.5159 H         1 UNK         0.0000 
     51 H51         0.9637   49.7155   26.6457 H         1 UNK         0.0000 
     52 H52         1.7216   50.3664   24.3011 H         1 UNK         0.0000 
     53 H53         0.1834   49.9216   23.6529 H         1 UNK         0.0000 
     54 H54         5.7724   54.7070   26.9501 H         1 UNK         0.0000 
     55 H55         7.4091   55.1543   24.8547 H         1 UNK         0.0000 
     56 H56         4.1640   53.5713   21.5754 H         1 UNK         0.0000 
     57 H57         4.6101   53.8582   19.1720 H         1 UNK         0.0000 
     58 H58         8.2152   55.9882   20.0718 H         1 UNK         0.0000 
     59 H59         7.7953   55.7051   22.4836 H         1 UNK         0.0000 
     60 H60        -1.2178   48.8969   26.9664 H         1 UNK         0.0000 
@<TRIPOS>BOND
     1    1    2 1    
     2    1   33 1    
     3    1   34 1    
     4    1   35 1    
     5    2    3 2    
     6    2    4 1    
     7    3   36 1    
     8    3   37 1    
     9    4    5 1    
    10    4   38 1    
    11    4   39 1    
    12    5    6 am   BACKBONE|DICT|INTERRES
    13    5   40 1    
    14    6    7 2    
    15    6    8 1    
    16    8    9 1    
    17    8   13 1    
    18    8   10 1    
    19   10   11 1    
    20   10   41 1    
    21   10   42 1    
    22   11   12 1    
    23   11   19 am   BACKBONE|DICT|INTERRES
    24   12   13 1    
    25   12   43 1    
    26   12   44 1    
    27   13   18 1    
    28   13   14 1    
    29   14   15 1    
    30   14   45 1    
    31   14   46 1    
    32   15   16 1    
    33   15   47 1    
    34   15   48 1    
    35   16   17 1    
    36   16   49 1    
    37   16   60 1    
    38   17   18 1    
    39   17   50 1    
    40   17   51 1    
    41   18   52 1    
    42   18   53 1    
    43   19   20 2    
    44   19   21 1    
    45   21   25 1    
    46   21   22 2    
    47   22   23 1    
    48   22   54 1    
    49   23   24 2    
    50   23   55 1    
    51   24   25 1    
    52   24   26 1    
    53   26   31 ar   
    54   26   27 ar   
    55   27   28 ar   
    56   27   56 1    
    57   28   29 ar   
    58   28   57 1    
    59   29   30 ar   
    60   29   32 1    
    61   30   31 ar   
    62   30   58 1    
    63   31   59 1    
@<TRIPOS>SUBSTRUCTURE
     1 UNK         1 GROUP             0       ****    0 ROOT    
