ZINC20058168_3764
                    3D
 Schrodinger Suite 2024-2.
 43 45  0  0  1  0            999 V2000
    1.9047   49.7870   23.3520 C   0  0  0  0  0  0
    1.7181   49.4809   21.8482 C   0  0  0  0  0  0
    0.2681   49.6174   21.4085 C   0  0  0  0  0  0
   -0.7694   49.8344   22.2396 C   0  0  0  0  0  0
   -0.6809   49.9244   23.7656 C   0  0  1  0  0  0
   -1.3902   49.1598   24.0766 H   0  0  0  0  0  0
    0.7042   49.4129   24.2567 C   0  0  0  0  0  0
   -1.2045   51.3188   24.3002 C   0  0  2  0  0  0
   -1.9937   51.5719   23.5880 H   0  0  0  0  0  0
   -0.2223   52.5255   24.2342 C   0  0  2  0  0  0
   -0.8368   53.4140   24.3898 H   0  0  0  0  0  0
    0.4715   52.7831   22.8801 C   0  0  0  0  0  0
    1.5046   53.9192   22.9842 C   0  0  0  0  0  0
    2.5944   53.6154   24.0245 C   0  0  0  0  0  0
    2.0010   53.0225   25.2957 C   0  0  0  0  0  0
    0.7453   52.5297   25.4301 C   0  0  0  0  0  0
    0.2427   52.0743   26.7289 C   0  0  0  0  0  0
   -0.9978   51.5516   26.8743 C   0  0  0  0  0  0
   -1.9582   51.3194   25.6876 C   0  0  0  0  0  0
   -2.7561   50.0887   25.8671 C   0  0  0  0  0  0
   -3.3919   49.1304   25.9989 N   0  0  0  0  0  0
   -2.9339   52.4274   25.7019 C   0  0  0  0  0  0
   -3.7003   53.2949   25.7097 N   0  0  0  0  0  0
   -1.5350   51.2962   28.1169 N   0  0  0  0  0  0
    1.0631   52.2288   27.8971 C   0  0  0  0  0  0
    1.7216   52.3262   28.8452 N   0  0  0  0  0  0
    2.8126   49.2969   23.6807 H   0  0  0  0  0  0
    2.1989   50.8120   23.5333 H   0  0  0  0  0  0
    2.0408   48.4639   21.6372 H   0  0  0  0  0  0
    2.3739   50.1166   21.2519 H   0  0  0  0  0  0
    0.0537   49.5548   20.3513 H   0  0  0  0  0  0
   -1.7451   49.9260   21.7837 H   0  0  0  0  0  0
    0.8870   49.7294   25.2823 H   0  0  0  0  0  0
    0.6684   48.3239   24.3217 H   0  0  0  0  0  0
   -0.2892   52.8975   22.1123 H   0  0  0  0  0  0
    0.9717   51.9330   22.4659 H   0  0  0  0  0  0
    1.9735   54.0963   22.0192 H   0  0  0  0  0  0
    1.0027   54.8456   23.2669 H   0  0  0  0  0  0
    3.3264   52.9204   23.6128 H   0  0  0  0  0  0
    3.1478   54.5278   24.2506 H   0  0  0  0  0  0
    2.6532   53.0184   26.1573 H   0  0  0  0  0  0
   -2.3146   50.6565   28.2112 H   0  0  0  0  0  0
   -0.9740   51.4167   28.9493 H   0  0  0  0  0  0
  1  7  1  0  0  0
  1  2  1  0  0  0
  1 27  1  0  0  0
  1 28  1  0  0  0
  2  3  1  0  0  0
  2 29  1  0  0  0
  2 30  1  0  0  0
  3  4  2  0  0  0
  3 31  1  0  0  0
  4  5  1  0  0  0
  4 32  1  0  0  0
  5  6  1  0  0  0
  5  7  1  0  0  0
  5  8  1  0  0  0
  7 33  1  0  0  0
  7 34  1  0  0  0
  8  9  1  0  0  0
  8 19  1  0  0  0
  8 10  1  0  0  0
 10 11  1  0  0  0
 10 16  1  0  0  0
 10 12  1  0  0  0
 12 13  1  0  0  0
 12 35  1  0  0  0
 12 36  1  0  0  0
 13 14  1  0  0  0
 13 37  1  0  0  0
 13 38  1  0  0  0
 14 15  1  0  0  0
 14 39  1  0  0  0
 14 40  1  0  0  0
 15 16  2  0  0  0
 15 41  1  0  0  0
 16 17  1  0  0  0
 17 18  2  0  0  0
 17 25  1  0  0  0
 18 19  1  0  0  0
 18 24  1  0  0  0
 19 20  1  0  0  0
 19 22  1  0  0  0
 20 21  3  0  0  0
 22 23  3  0  0  0
 24 42  1  0  0  0
 24 43  1  0  0  0
 25 26  3  0  0  0
M  END
> <i_i_glide_confnum>
3

> <i_i_glide_lignum>
3765

> <i_i_glide_posenum>
342

> <i_i_glide_rotatable_bonds>
4

> <i_m_Source_File_Index>
4765

> <b_m_subgroup_collapsed>
0

> <r_i_docking_score>
-4.07928

> <r_i_glide_ecoul>
-2.1368

> <r_i_glide_eff_state_penalty>
0

> <r_i_glide_einternal>
5.03147

> <r_i_glide_emodel>
-29.1127

> <r_i_glide_energy>
-24.738

> <r_i_glide_erotb>
0.199039

> <r_i_glide_esite>
-0.158532

> <r_i_glide_evdw>
-22.6012

> <r_i_glide_gscore>
-4.07928

> <r_i_glide_hbond>
0

> <r_i_glide_ligand_efficiency>
-0.17736

> <r_i_glide_ligand_efficiency_ln>
-0.986408

> <r_i_glide_ligand_efficiency_sa>
-0.504389

> <r_i_glide_lipo>
-1.09624

> <r_i_glide_metal>
0

> <r_i_glide_rewards>
-1.57297

> <s_i_glide_gridfile>
wee1_glide-grid

> <s_m_Source_File>
wee1_decoys_glide_SP.sdf

> <s_m_Source_Path>
/Users/zhangxujun/Desktop

> <s_m_entry_id>
5040

> <s_m_entry_name>
wee1_decoys_glide_SP.4765

> <s_m_subgroup_title>
wee1_decoys_glide_SP

> <s_m_subgroupid>
wee1_decoys_glide_SP


$$$$
