ZINC05342625_2645
                    3D
 Schrodinger Suite 2024-2.
 57 62  0  0  1  0            999 V2000
   -3.6977   47.4691   26.4815 C   0  0  0  0  0  0
   -4.3311   46.3602   25.9294 C   0  0  0  0  0  0
   -4.1963   46.0965   24.5694 C   0  0  0  0  0  0
   -3.4212   46.9350   23.7682 C   0  0  0  0  0  0
   -2.7686   48.0670   24.3041 C   0  0  0  0  0  0
   -2.9386   48.3167   25.6767 C   0  0  0  0  0  0
   -1.9719   48.9964   23.3668 C   0  0  2  0  0  0
   -1.6771   48.2833   22.0202 C   0  0  0  0  0  0
   -2.9365   47.5564   21.5211 C   0  0  0  0  0  0
   -3.3046   46.5358   22.4499 O   0  0  0  0  0  0
   -0.6559   49.4715   23.9754 C   0  0  0  0  0  0
    0.3040   48.7579   24.2681 O   0  0  0  0  0  0
   -0.7323   50.8201   24.0180 N   0  0  0  0  0  0
   -1.9171   51.3261   23.5921 C   0  0  0  0  0  0
   -2.3334   52.4794   23.6960 O   0  0  0  0  0  0
   -2.6221   50.2678   23.1799 N   0  0  0  0  0  0
    0.3741   51.6729   24.5013 C   0  0  0  0  0  0
    0.3041   51.9151   26.0234 C   0  0  0  0  0  0
   -0.6283   51.4951   26.7081 O   0  0  0  0  0  0
    1.3323   52.6206   26.5237 N   0  0  0  0  0  0
    1.5779   53.0152   27.9166 C   0  0  0  0  0  0
    2.9034   53.8410   27.9564 C   0  0  0  0  0  0
    3.2454   54.3091   29.3939 C   0  0  2  0  0  0
    3.4202   53.0473   30.2804 C   0  0  0  0  0  0
    2.0898   52.2544   30.3200 C   0  0  2  0  0  0
    1.7498   51.7905   28.8766 C   0  0  0  0  0  0
    0.9359   53.1389   30.8553 C   0  0  0  0  0  0
    0.7737   54.3814   29.9489 C   0  0  1  0  0  0
    2.0841   55.2051   29.9080 C   0  0  0  0  0  0
    0.4474   53.9197   28.5086 C   0  0  0  0  0  0
   -3.7813   47.6789   27.5387 H   0  0  0  0  0  0
   -4.9221   45.7097   26.5573 H   0  0  0  0  0  0
   -4.6940   45.2432   24.1343 H   0  0  0  0  0  0
   -2.4635   49.1696   26.1425 H   0  0  0  0  0  0
   -1.3201   48.9791   21.2586 H   0  0  0  0  0  0
   -0.9144   47.5118   22.1499 H   0  0  0  0  0  0
   -2.7507   47.0952   20.5517 H   0  0  0  0  0  0
   -3.7587   48.2620   21.3948 H   0  0  0  0  0  0
   -3.3747   50.3601   22.5157 H   0  0  0  0  0  0
    0.3703   52.6314   23.9809 H   0  0  0  0  0  0
    1.3306   51.1986   24.2762 H   0  0  0  0  0  0
    2.0448   52.9118   25.8729 H   0  0  0  0  0  0
    2.8256   54.7100   27.3002 H   0  0  0  0  0  0
    3.7289   53.2462   27.5596 H   0  0  0  0  0  0
    4.1746   54.8814   29.3804 H   0  0  0  0  0  0
    3.7576   53.2966   31.2816 H   0  0  0  0  0  0
    4.2140   52.4173   29.8741 H   0  0  0  0  0  0
    2.1955   51.3998   30.9842 H   0  0  0  0  0  0
    2.5303   51.1287   28.5017 H   0  0  0  0  0  0
    0.8394   51.1889   28.8938 H   0  0  0  0  0  0
    1.1048   53.4339   31.8905 H   0  0  0  0  0  0
    0.0065   52.5652   30.8733 H   0  0  0  0  0  0
   -0.0386   54.9964   30.3367 H   0  0  0  0  0  0
    1.9608   56.0656   29.2476 H   0  0  0  0  0  0
    2.2929   55.6396   30.8815 H   0  0  0  0  0  0
   -0.5016   53.3871   28.5034 H   0  0  0  0  0  0
    0.3067   54.8042   27.8955 H   0  0  0  0  0  0
  1  6  2  0  0  0
  1  2  1  0  0  0
  1 31  1  0  0  0
  2  3  2  0  0  0
  2 32  1  0  0  0
  3  4  1  0  0  0
  3 33  1  0  0  0
  4 10  1  0  0  0
  4  5  2  0  0  0
  5  6  1  0  0  0
  5  7  1  0  0  0
  6 34  1  0  0  0
  7 16  1  0  0  0
  7  8  1  0  0  0
  7 11  1  0  0  0
  8  9  1  0  0  0
  8 35  1  0  0  0
  8 36  1  0  0  0
  9 10  1  0  0  0
  9 37  1  0  0  0
  9 38  1  0  0  0
 11 12  2  0  0  0
 11 13  1  0  0  0
 13 14  1  0  0  0
 13 17  1  0  0  0
 14 15  2  0  0  0
 14 16  1  0  0  0
 16 39  1  0  0  0
 17 18  1  0  0  0
 17 40  1  0  0  0
 17 41  1  0  0  0
 18 19  2  0  0  0
 18 20  1  0  0  0
 20 21  1  0  0  0
 20 42  1  0  0  0
 21 26  1  0  0  0
 21 30  1  0  0  0
 21 22  1  0  0  0
 22 23  1  0  0  0
 22 43  1  0  0  0
 22 44  1  0  0  0
 23 29  1  0  0  0
 23 24  1  0  0  0
 23 45  1  0  0  0
 24 25  1  0  0  0
 24 46  1  0  0  0
 24 47  1  0  0  0
 25 26  1  0  0  0
 25 27  1  0  0  0
 25 48  1  0  0  0
 26 49  1  0  0  0
 26 50  1  0  0  0
 27 28  1  0  0  0
 27 51  1  0  0  0
 27 52  1  0  0  0
 28 29  1  0  0  0
 28 30  1  0  0  0
 28 53  1  0  0  0
 29 54  1  0  0  0
 29 55  1  0  0  0
 30 56  1  0  0  0
 30 57  1  0  0  0
M  END
> <i_i_glide_confnum>
3

> <i_i_glide_lignum>
2646

> <i_i_glide_posenum>
347

> <i_i_glide_rotatable_bonds>
4

> <i_m_Source_File_Index>
3007

> <b_m_subgroup_collapsed>
0

> <r_i_docking_score>
-3.07302

> <r_i_glide_ecoul>
1.49845

> <r_i_glide_eff_state_penalty>
0

> <r_i_glide_einternal>
2.46976

> <r_i_glide_emodel>
-32.7024

> <r_i_glide_energy>
-27.6796

> <r_i_glide_erotb>
0.234877

> <r_i_glide_esite>
-0.0116267

> <r_i_glide_evdw>
-29.178

> <r_i_glide_gscore>
-3.07302

> <r_i_glide_hbond>
0

> <r_i_glide_ligand_efficiency>
-0.102434

> <r_i_glide_ligand_efficiency_ln>
-0.698223

> <r_i_glide_ligand_efficiency_sa>
-0.318286

> <r_i_glide_lipo>
-1.37646

> <r_i_glide_metal>
0

> <r_i_glide_rewards>
-0.685677

> <s_i_glide_gridfile>
wee1_glide-grid

> <s_m_Source_File>
wee1_decoys_glide_SP.sdf

> <s_m_Source_Path>
/Users/zhangxujun/Desktop

> <s_m_entry_id>
3282

> <s_m_entry_name>
wee1_decoys_glide_SP.3007

> <s_m_subgroup_title>
wee1_decoys_glide_SP

> <s_m_subgroupid>
wee1_decoys_glide_SP


$$$$
