@<TRIPOS>MOLECULE
ZINC39361905_3137
58   61    1
SMALL
USER_CHARGES


@<TRIPOS>ATOM
      1 C1          2.8905   52.1455   16.9933 C.3       1 UNK         0.0000 
      2 C2          1.9038   51.1475   17.6185 C.3       1 UNK         0.0000 
      3 C3          2.1124   50.8773   19.0969 C.2       1 UNK         0.0000 
      4 N4          3.0998   51.3434   19.8322 N.2       1 UNK         0.0000 
      5 N5          3.0398   50.9552   21.1653 N.2       1 UNK         0.0000 
      6 C6          1.9920   50.2161   21.4225 C.2       1 UNK         0.0000 
      7 S7          1.0214   49.8786   20.0107 S.3       1 UNK         0.0000 
      8 N8          1.6847   49.8269   22.7165 N.am      1 UNK         0.0000 
      9 C9          0.5239   49.2963   23.1535 C.2       1 UNK         0.0000 
     10 O10        -0.3896   48.8951   22.4351 O.2       1 UNK         0.0000 
     11 C11         0.3362   49.2360   24.6689 C.3       1 UNK         0.0000 
     12 S12        -1.0548   50.2733   25.2223 S.3       1 UNK         0.0000 
     13 C13        -0.4752   52.0067   25.0954 C.3       1 UNK         0.0000 
     14 H14        -1.3095   52.6383   25.3915 H         1 UNK         0.0000 
     15 N15        -0.2469   52.3504   23.7226 N.2       1 UNK         0.0000 
     16 N16         0.9297   52.7378   23.5577 N.2       1 UNK         0.0000 
     17 C17         1.6326   52.7430   24.8058 C.3       1 UNK         0.0000 
     18 H18         2.4014   51.9777   24.7381 H         1 UNK         0.0000 
     19 N19         0.7071   52.3593   25.8762 N.pl3     1 UNK         0.0000 
     20 C20         0.9717   52.3117   27.2745 C.ar      1 UNK         0.0000 
     21 C21         2.3043   52.4968   27.6899 C.ar      1 UNK         0.0000 
     22 C22         2.6825   52.5354   29.0311 C.ar      1 UNK         0.0000 
     23 C23         1.7142   52.3740   30.0128 C.ar      1 UNK         0.0000 
     24 C24         0.3936   52.1495   29.6462 C.ar      1 UNK         0.0000 
     25 C25         0.0054   52.1095   28.3008 C.ar      1 UNK         0.0000 
     26 C26        -1.4757   51.8530   28.0646 C.3       1 UNK         0.0000 
     27 C27         4.1365   52.7314   29.4143 C.3       1 UNK         0.0000 
     28 C28         2.3021   54.1303   24.9700 C.3       1 UNK         0.0000 
     29 C29         3.7434   54.2174   24.4897 C.ar      1 UNK         0.0000 
     30 N30         4.6739   54.4724   25.4690 N.pl3     1 UNK         0.0000 
     31 C31         6.0024   54.6340   25.2106 C.ar      1 UNK         0.0000 
     32 O32         6.8282   54.8950   26.0801 O.2       1 UNK         0.0000 
     33 N33         6.3239   54.5144   23.8852 N.pl3     1 UNK         0.0000 
     34 C34         5.5058   54.3145   22.8132 C.ar      1 UNK         0.0000 
     35 O35         5.8996   54.4246   21.6576 O.2       1 UNK         0.0000 
     36 C36         4.1212   54.0984   23.1940 C.ar      1 UNK         0.0000 
     37 H37         2.8720   53.1062   17.5116 H         1 UNK         0.0000 
     38 H38         3.9045   51.7568   17.0406 H         1 UNK         0.0000 
     39 H39         2.6555   52.3279   15.9446 H         1 UNK         0.0000 
     40 H40         0.8933   51.5231   17.4615 H         1 UNK         0.0000 
     41 H41         1.9588   50.2103   17.0632 H         1 UNK         0.0000 
     42 H42         2.3658   50.0708   23.4183 H         1 UNK         0.0000 
     43 H43         0.1222   48.2062   24.9490 H         1 UNK         0.0000 
     44 H44         1.2377   49.5151   25.2095 H         1 UNK         0.0000 
     45 H45         3.0910   52.5928   26.9591 H         1 UNK         0.0000 
     46 H46         1.9815   52.4008   31.0601 H         1 UNK         0.0000 
     47 H47        -0.3373   51.9970   30.4286 H         1 UNK         0.0000 
     48 H48        -1.6523   50.8036   27.8351 H         1 UNK         0.0000 
     49 H49        -2.0620   52.0785   28.9548 H         1 UNK         0.0000 
     50 H50        -1.8972   52.4777   27.2821 H         1 UNK         0.0000 
     51 H51         4.3136   53.7657   29.7098 H         1 UNK         0.0000 
     52 H52         4.4046   52.0848   30.2517 H         1 UNK         0.0000 
     53 H53         4.8097   52.4783   28.5921 H         1 UNK         0.0000 
     54 H54         1.7315   54.8960   24.4374 H         1 UNK         0.0000 
     55 H55         2.2539   54.4659   26.0030 H         1 UNK         0.0000 
     56 H56         7.2955   54.6750   23.6677 H         1 UNK         0.0000 
     57 H57         3.3944   53.9062   22.4155 H         1 UNK         0.0000 
     58 H58         4.4085   54.5653   26.4394 H         1 UNK         0.0000 
@<TRIPOS>BOND
     1    1    2 1    
     2    1   37 1    
     3    1   38 1    
     4    1   39 1    
     5    2    3 1    
     6    2   40 1    
     7    2   41 1    
     8    3    7 1    
     9    3    4 2    
    10    4    5 1    
    11    5    6 2    
    12    6    7 1    
    13    6    8 am   BACKBONE|DICT|INTERRES
    14    8    9 am   BACKBONE|DICT|INTERRES
    15    8   42 1    
    16    9   10 2    
    17    9   11 1    
    18   11   12 1    
    19   11   43 1    
    20   11   44 1    
    21   12   13 1    
    22   13   14 1    
    23   13   19 1    
    24   13   15 1    
    25   15   16 2    
    26   16   17 1    
    27   17   18 1    
    28   17   19 1    
    29   17   28 1    
    30   19   20 1    
    31   20   25 ar   
    32   20   21 ar   
    33   21   22 ar   
    34   21   45 1    
    35   22   23 ar   
    36   22   27 1    
    37   23   24 ar   
    38   23   46 1    
    39   24   25 ar   
    40   24   47 1    
    41   25   26 1    
    42   26   48 1    
    43   26   49 1    
    44   26   50 1    
    45   27   51 1    
    46   27   52 1    
    47   27   53 1    
    48   28   54 1    
    49   28   55 1    
    50   28   29 1    
    51   29   36 ar   
    52   29   30 ar   
    53   30   31 ar   
    54   30   58 1    
    55   31   32 2    
    56   31   33 ar   
    57   33   56 1    
    58   33   34 ar   
    59   34   35 2    
    60   34   36 ar   
    61   36   57 1    
@<TRIPOS>SUBSTRUCTURE
     1 UNK         1 GROUP             0       ****    0 ROOT    
