@<TRIPOS>MOLECULE
ZINC16847568_477
51   53    1
SMALL
USER_CHARGES


@<TRIPOS>ATOM
      1 C1          1.4570   48.7466   20.7643 C.3       1 UNK         0.0000 
      2 C2          2.1229   50.0706   21.0813 C.ar      1 UNK         0.0000 
      3 C3          3.1045   50.5626   20.2222 C.ar      1 UNK         0.0000 
      4 C4          3.7554   51.7578   20.5147 C.ar      1 UNK         0.0000 
      5 C5          3.3938   52.4807   21.6537 C.ar      1 UNK         0.0000 
      6 C6          2.3839   52.0070   22.4954 C.ar      1 UNK         0.0000 
      7 C7          1.7595   50.7934   22.2188 C.ar      1 UNK         0.0000 
      8 S8          4.1603   54.0620   22.0003 S.o2      1 UNK         0.0000 
      9 O9          3.1041   54.8967   22.5679 O.2       1 UNK         0.0000 
     10 O10         4.9089   54.4728   20.8081 O.2       1 UNK         0.0000 
     11 N11         5.3768   53.8151   23.2702 N.pl3     1 UNK         0.0000 
     12 C12         5.2506   54.0854   24.6155 C.2       1 UNK         0.0000 
     13 N13         6.2814   54.1301   25.4191 N.2       1 UNK         0.0000 
     14 C14         5.9460   54.2484   26.6927 C.2       1 UNK         0.0000 
     15 C15         4.5717   54.3618   26.9540 C.2       1 UNK         0.0000 
     16 S16         3.7206   54.2123   25.4287 S.3       1 UNK         0.0000 
     17 C17         3.8949   54.4969   28.2284 C.2       1 UNK         0.0000 
     18 O18         4.5146   54.4970   29.2924 O.2       1 UNK         0.0000 
     19 N19         2.5547   54.5829   28.1636 N.am      1 UNK         0.0000 
     20 N20         1.7610   54.5784   29.2973 N.pl3     1 UNK         0.0000 
     21 S21         1.4299   52.9734   29.9693 S.o2      1 UNK         0.0000 
     22 O22         0.5707   53.1804   31.1386 O.2       1 UNK         0.0000 
     23 O23         2.6912   52.2338   30.1023 O.2       1 UNK         0.0000 
     24 C24         0.4720   52.1551   28.7017 C.ar      1 UNK         0.0000 
     25 C25        -0.8673   51.8527   28.9325 C.ar      1 UNK         0.0000 
     26 C26        -1.6344   51.2966   27.9140 C.ar      1 UNK         0.0000 
     27 C27        -1.0489   51.0001   26.6821 C.ar      1 UNK         0.0000 
     28 C28         0.3010   51.2762   26.4618 C.ar      1 UNK         0.0000 
     29 C29         1.0644   51.8486   27.4750 C.ar      1 UNK         0.0000 
     30 C30        -1.8819   50.3624   25.5869 C.3       1 UNK         0.0000 
     31 C31         7.1042   54.1984   27.6636 C.3       1 UNK         0.0000 
     32 H32         1.0539   48.7633   19.7509 H         1 UNK         0.0000 
     33 H33         2.1970   47.9468   20.8084 H         1 UNK         0.0000 
     34 H34         0.6404   48.5164   21.4493 H         1 UNK         0.0000 
     35 H35         3.3821   50.0155   19.3303 H         1 UNK         0.0000 
     36 H36         4.5185   52.1197   19.8381 H         1 UNK         0.0000 
     37 H37         2.0881   52.5723   23.3671 H         1 UNK         0.0000 
     38 H38         0.9938   50.4215   22.8837 H         1 UNK         0.0000 
     39 H39         6.2807   53.5869   22.8870 H         1 UNK         0.0000 
     40 H40         2.0724   54.7774   27.2986 H         1 UNK         0.0000 
     41 H41         2.1055   55.2583   29.9797 H         1 UNK         0.0000 
     42 H42        -1.3033   52.0489   29.8995 H         1 UNK         0.0000 
     43 H43        -2.6698   51.0501   28.0992 H         1 UNK         0.0000 
     44 H44         0.7595   51.0375   25.5138 H         1 UNK         0.0000 
     45 H45         2.1104   52.0534   27.3023 H         1 UNK         0.0000 
     46 H46        -1.4904   50.6017   24.5972 H         1 UNK         0.0000 
     47 H47        -2.9091   50.7282   25.6190 H         1 UNK         0.0000 
     48 H48        -1.8968   49.2786   25.7129 H         1 UNK         0.0000 
     49 H49         7.5129   53.1906   27.7271 H         1 UNK         0.0000 
     50 H50         7.9041   54.8747   27.3829 H         1 UNK         0.0000 
     51 H51         6.8326   54.4819   28.6758 H         1 UNK         0.0000 
@<TRIPOS>BOND
     1    1    2 1    
     2    1   32 1    
     3    1   33 1    
     4    1   34 1    
     5    2    7 ar   
     6    2    3 ar   
     7    3    4 ar   
     8    3   35 1    
     9    4    5 ar   
    10    4   36 1    
    11    5    6 ar   
    12    5    8 1    
    13    6    7 ar   
    14    6   37 1    
    15    7   38 1    
    16    8    9 2    
    17    8   10 2    
    18    8   11 1    
    19   11   12 1    
    20   11   39 1    
    21   12   16 1    
    22   12   13 2    
    23   13   14 1    
    24   14   15 2    
    25   14   31 1    
    26   15   16 1    
    27   15   17 1    
    28   17   18 2    
    29   17   19 am   BACKBONE|DICT|INTERRES
    30   19   20 1    
    31   19   40 1    
    32   20   21 1    
    33   20   41 1    
    34   21   22 2    
    35   21   23 2    
    36   21   24 1    
    37   24   29 ar   
    38   24   25 ar   
    39   25   26 ar   
    40   25   42 1    
    41   26   27 ar   
    42   26   43 1    
    43   27   28 ar   
    44   27   30 1    
    45   28   29 ar   
    46   28   44 1    
    47   29   45 1    
    48   30   46 1    
    49   30   47 1    
    50   30   48 1    
    51   31   49 1    
    52   31   50 1    
    53   31   51 1    
@<TRIPOS>SUBSTRUCTURE
     1 UNK         1 GROUP             0       ****    0 ROOT    
