ZINC03333466_5190
                    3D
 Schrodinger Suite 2024-2.
 51 54  0  0  1  0            999 V2000
    3.5571   52.7070   29.7356 C   0  0  0  0  0  0
    4.1144   53.2955   28.4435 C   0  0  0  0  0  0
    5.4495   53.7028   28.4188 C   0  0  0  0  0  0
    6.0216   54.2133   27.2646 C   0  0  0  0  0  0
    5.2693   54.3286   26.0947 C   0  0  0  0  0  0
    3.9175   53.9506   26.1163 C   0  0  0  0  0  0
    3.3320   53.4104   27.2776 C   0  0  0  0  0  0
    1.9990   52.9449   27.3336 N   0  0  0  0  0  0
    1.1243   52.6911   26.3365 C   0  0  0  0  0  0
    1.3191   52.8922   25.1368 O   0  0  0  0  0  0
   -0.1265   52.1380   26.7876 C   0  0  0  0  0  0
   -1.2848   51.8326   26.0809 C   0  0  0  0  0  0
   -2.1938   51.3012   26.9958 C   0  0  0  0  0  0
   -1.5533   51.2969   28.2225 C   0  0  0  0  0  0
   -0.3020   51.8107   28.1007 O   0  0  0  0  0  0
    5.9316   54.8490   24.8475 C   0  0  0  0  0  0
    6.8166   55.6967   24.9460 O   0  0  0  0  0  0
    5.4997   54.2941   23.6933 N   0  0  0  0  0  0
    5.9015   54.5619   22.3718 C   0  0  0  0  0  0
    7.0449   55.2994   22.0300 C   0  0  0  0  0  0
    7.3433   55.5510   20.6959 C   0  0  0  0  0  0
    6.5074   55.0631   19.6881 C   0  0  0  0  0  0
    5.3824   54.3089   20.0218 C   0  0  0  0  0  0
    5.0822   54.0591   21.3590 C   0  0  0  0  0  0
    6.8536   55.3470   17.9705 S   0  0  0  0  0  0
    7.9542   56.7287   17.9710 C   0  0  0  0  0  0
    9.3312   56.5154   18.0503 C   0  0  0  0  0  0
   10.1957   57.6059   18.0806 C   0  0  0  0  0  0
    9.6796   58.8991   18.0213 C   0  0  0  0  0  0
    8.3046   59.1108   17.9257 C   0  0  0  0  0  0
    7.4366   58.0227   17.9019 C   0  0  0  0  0  0
   10.8650   60.3865   18.0804 Br  0  0  0  0  0  0
    4.3040   52.6666   30.5312 H   0  0  0  0  0  0
    2.7115   53.2994   30.0869 H   0  0  0  0  0  0
    3.1983   51.6925   29.5566 H   0  0  0  0  0  0
    6.0818   53.6136   29.2816 H   0  0  0  0  0  0
    7.0640   54.5013   27.2904 H   0  0  0  0  0  0
    3.3347   54.0739   25.2180 H   0  0  0  0  0  0
    1.6757   52.6952   28.2561 H   0  0  0  0  0  0
   -1.4438   51.9714   25.0210 H   0  0  0  0  0  0
   -3.1891   50.9362   26.7898 H   0  0  0  0  0  0
   -1.8355   50.9492   29.2064 H   0  0  0  0  0  0
    4.7531   53.6234   23.7829 H   0  0  0  0  0  0
    7.7189   55.6945   22.7717 H   0  0  0  0  0  0
    8.2393   56.1061   20.4689 H   0  0  0  0  0  0
    4.7381   53.9168   19.2478 H   0  0  0  0  0  0
    4.1965   53.4853   21.5953 H   0  0  0  0  0  0
    9.7283   55.5119   18.1080 H   0  0  0  0  0  0
   11.2611   57.4472   18.1635 H   0  0  0  0  0  0
    7.9048   60.1133   17.8699 H   0  0  0  0  0  0
    6.3708   58.1897   17.8342 H   0  0  0  0  0  0
  1  2  1  0  0  0
  1 33  1  0  0  0
  1 34  1  0  0  0
  1 35  1  0  0  0
  2  7  2  0  0  0
  2  3  1  0  0  0
  3  4  2  0  0  0
  3 36  1  0  0  0
  4  5  1  0  0  0
  4 37  1  0  0  0
  5  6  2  0  0  0
  5 16  1  0  0  0
  6  7  1  0  0  0
  6 38  1  0  0  0
  7  8  1  0  0  0
  8  9  1  0  0  0
  8 39  1  0  0  0
  9 10  2  0  0  0
  9 11  1  0  0  0
 11 15  1  0  0  0
 11 12  2  0  0  0
 12 13  1  0  0  0
 12 40  1  0  0  0
 13 14  2  0  0  0
 13 41  1  0  0  0
 14 15  1  0  0  0
 14 42  1  0  0  0
 16 17  2  0  0  0
 16 18  1  0  0  0
 18 19  1  0  0  0
 18 43  1  0  0  0
 19 24  2  0  0  0
 19 20  1  0  0  0
 20 21  2  0  0  0
 20 44  1  0  0  0
 21 22  1  0  0  0
 21 45  1  0  0  0
 22 23  2  0  0  0
 22 25  1  0  0  0
 23 24  1  0  0  0
 23 46  1  0  0  0
 24 47  1  0  0  0
 25 26  1  0  0  0
 26 31  2  0  0  0
 26 27  1  0  0  0
 27 28  2  0  0  0
 27 48  1  0  0  0
 28 29  1  0  0  0
 28 49  1  0  0  0
 29 30  2  0  0  0
 29 32  1  0  0  0
 30 31  1  0  0  0
 30 50  1  0  0  0
 31 51  1  0  0  0
M  END
> <i_i_glide_confnum>
13

> <i_i_glide_lignum>
5191

> <i_i_glide_posenum>
234

> <i_i_glide_rotatable_bonds>
8

> <i_m_Source_File_Index>
2378

> <b_m_subgroup_collapsed>
0

> <r_i_docking_score>
-5.56168

> <r_i_glide_ecoul>
-3.4349

> <r_i_glide_eff_state_penalty>
0

> <r_i_glide_einternal>
7.04044

> <r_i_glide_emodel>
-64.6899

> <r_i_glide_energy>
-50.6408

> <r_i_glide_erotb>
0.635962

> <r_i_glide_esite>
0

> <r_i_glide_evdw>
-47.2059

> <r_i_glide_gscore>
-5.56168

> <r_i_glide_hbond>
-0.204712

> <r_i_glide_ligand_efficiency>
-0.173802

> <r_i_glide_ligand_efficiency_ln>
-1.24541

> <r_i_glide_ligand_efficiency_sa>
-0.551789

> <r_i_glide_lipo>
-2.46647

> <r_i_glide_metal>
0

> <r_i_glide_rewards>
-0.650928

> <s_i_glide_gridfile>
wee1_glide-grid

> <s_m_Source_File>
wee1_decoys_glide_SP.sdf

> <s_m_Source_Path>
/Users/zhangxujun/Desktop

> <s_m_entry_id>
2653

> <s_m_entry_name>
wee1_decoys_glide_SP.2378

> <s_m_subgroup_title>
wee1_decoys_glide_SP

> <s_m_subgroupid>
wee1_decoys_glide_SP


$$$$
