@<TRIPOS>MOLECULE
ZINC50634026_1808
28   29    1
SMALL
USER_CHARGES


@<TRIPOS>ATOM
      1 C1          5.5021   54.4617   28.6064 C.ar      1 UNK         0.0000 
      2 C2          6.3800   54.2838   27.5307 C.ar      1 UNK         0.0000 
      3 C3          5.8939   54.3014   26.2228 C.ar      1 UNK         0.0000 
      4 C4          4.5374   54.5246   26.0070 C.ar      1 UNK         0.0000 
      5 C5          3.7061   54.7643   27.0925 C.ar      1 UNK         0.0000 
      6 C6          4.1303   54.6640   28.4219 C.ar      1 UNK         0.0000 
      7 N7          3.3055   54.7564   29.5251 N.2       1 UNK         0.0000 
      8 S8          1.8036   55.2448   29.4978 S.o2      1 UNK         0.0000 
      9 O9          1.2483   55.5365   30.8230 O.2       1 UNK         0.0000 
     10 O10         1.5062   56.2433   28.4817 O.2       1 UNK         0.0000 
     11 C11         0.9441   53.7430   28.9658 C.ar      1 UNK         0.0000 
     12 C12         0.9014   53.2649   27.6379 C.ar      1 UNK         0.0000 
     13 C13         0.2042   52.0967   27.3246 C.ar      1 UNK         0.0000 
     14 N14        -0.4738   51.4698   28.2968 N.pl3     1 UNK         0.0000 
     15 C15        -0.5008   51.9253   29.5573 C.ar      1 UNK         0.0000 
     16 C16         0.2256   53.0423   29.9323 C.ar      1 UNK         0.0000 
     17 N17        -1.2956   51.2967   30.4817 N.pl3     1 UNK         0.0000 
     18 Cl18        3.8459   54.4967   24.4227 Cl        1 UNK         0.0000 
     19 Cl19        6.9628   54.0970   24.8818 Cl        1 UNK         0.0000 
     20 H20         5.9038   54.4967   29.6064 H         1 UNK         0.0000 
     21 H21         7.4340   54.1423   27.7193 H         1 UNK         0.0000 
     22 H22         2.7145   55.0793   26.8723 H         1 UNK         0.0000 
     23 H23         1.3466   53.7618   26.8032 H         1 UNK         0.0000 
     24 H24         0.1338   51.6638   26.3359 H         1 UNK         0.0000 
     25 H25         0.1973   53.3756   30.9608 H         1 UNK         0.0000 
     26 H26        -1.3262   51.6115   31.4618 H         1 UNK         0.0000 
     27 H27        -1.6956   50.3755   30.2928 H         1 UNK         0.0000 
     28 H28        -0.9922   50.6259   28.0817 H         1 UNK         0.0000 
@<TRIPOS>BOND
     1    1    6 ar   
     2    1    2 ar   
     3    1   20 1    
     4    2    3 ar   
     5    2   21 1    
     6    3    4 ar   
     7    3   19 1    
     8    4    5 ar   
     9    4   18 1    
    10    5    6 ar   
    11    5   22 1    
    12    6    7 1    
    13    7    8 1    
    14    8    9 2    
    15    8   10 2    
    16    8   11 1    
    17   11   16 ar   
    18   11   12 ar   
    19   12   13 ar   
    20   12   23 1    
    21   13   14 ar   
    22   13   24 1    
    23   14   15 ar   
    24   14   28 1    
    25   15   16 ar   
    26   15   17 1    
    27   16   25 1    
    28   17   26 1    
    29   17   27 1    
@<TRIPOS>SUBSTRUCTURE
     1 UNK         1 GROUP             0       ****    0 ROOT    
