@<TRIPOS>MOLECULE
ZINC67288959_51
48   51    1
SMALL
USER_CHARGES


@<TRIPOS>ATOM
      1 C1          0.3055   54.4040   31.2749 C.3       1 UNK         0.0000 
      2 S2          1.5306   53.7963   30.0798 S.3       1 UNK         0.0000 
      3 C3          0.6286   52.8119   28.9216 C.ar      1 UNK         0.0000 
      4 C4         -0.4957   52.0967   29.3308 C.ar      1 UNK         0.0000 
      5 C5         -1.2293   51.3709   28.3998 C.ar      1 UNK         0.0000 
      6 C6         -0.8281   51.3275   27.0632 C.ar      1 UNK         0.0000 
      7 C7          0.3157   52.0288   26.6638 C.ar      1 UNK         0.0000 
      8 C8          1.0446   52.7687   27.5923 C.ar      1 UNK         0.0000 
      9 C9         -1.6340   50.5072   26.0540 C.3       1 UNK         0.0000 
     10 H10        -2.5535   50.2177   26.5675 H         1 UNK         0.0000 
     11 C11        -2.0059   51.2646   24.7751 C.2       1 UNK         0.0000 
     12 C12        -1.6312   50.8096   23.5802 C.2       1 UNK         0.0000 
     13 C13        -2.1229   51.7783   22.5380 C.3       1 UNK         0.0000 
     14 O14        -2.7855   52.7780   23.2898 O.3       1 UNK         0.0000 
     15 C15        -2.7534   52.4962   24.6075 C.2       1 UNK         0.0000 
     16 O16        -3.2958   53.1693   25.4811 O.2       1 UNK         0.0000 
     17 N17        -0.9339   49.6424   23.4005 N.am      1 UNK         0.0000 
     18 C18        -0.6254   48.7972   24.4415 C.2       1 UNK         0.0000 
     19 O19        -0.0963   47.6959   24.3223 O.2       1 UNK         0.0000 
     20 N20        -0.9742   49.2300   25.6816 N.am      1 UNK         0.0000 
     21 C21        -0.5560   49.2325   22.0248 C.3       1 UNK         0.0000 
     22 C22         0.7301   49.9140   21.5040 C.2       1 UNK         0.0000 
     23 O23         1.1727   49.5115   20.4305 O.2       1 UNK         0.0000 
     24 N24         1.2696   50.9282   22.2214 N.am      1 UNK         0.0000 
     25 C25         2.3672   51.7575   21.9238 C.ar      1 UNK         0.0000 
     26 C26         2.4846   52.9093   22.7071 C.ar      1 UNK         0.0000 
     27 C27         3.5263   53.8068   22.4854 C.ar      1 UNK         0.0000 
     28 C28         4.4591   53.5491   21.4840 C.ar      1 UNK         0.0000 
     29 C29         4.3574   52.3995   20.7009 C.ar      1 UNK         0.0000 
     30 C30         3.3151   51.5010   20.9196 C.ar      1 UNK         0.0000 
     31 Cl31        5.7439   54.6680   21.2090 Cl        1 UNK         0.0000 
     32 H32         0.7062   55.1595   31.9472 H         1 UNK         0.0000 
     33 H33        -0.4964   54.8800   30.7224 H         1 UNK         0.0000 
     34 H34        -0.0955   53.5917   31.8831 H         1 UNK         0.0000 
     35 H35        -0.8163   52.0916   30.3627 H         1 UNK         0.0000 
     36 H36        -2.0954   50.8171   28.7329 H         1 UNK         0.0000 
     37 H37         0.6430   51.9963   25.6352 H         1 UNK         0.0000 
     38 H38         1.9228   53.3142   27.2797 H         1 UNK         0.0000 
     39 H39        -1.3076   52.2190   21.9614 H         1 UNK         0.0000 
     40 H40        -2.8202   51.3169   21.8368 H         1 UNK         0.0000 
     41 H41        -0.7332   48.6124   26.4489 H         1 UNK         0.0000 
     42 H42        -1.3718   49.4339   21.3308 H         1 UNK         0.0000 
     43 H43        -0.3893   48.1558   21.9770 H         1 UNK         0.0000 
     44 H44         0.7919   51.1647   23.0782 H         1 UNK         0.0000 
     45 H45         1.7660   53.1247   23.4841 H         1 UNK         0.0000 
     46 H46         3.6027   54.7004   23.0853 H         1 UNK         0.0000 
     47 H47         5.0761   52.2007   19.9162 H         1 UNK         0.0000 
     48 H48         3.2705   50.6211   20.2974 H         1 UNK         0.0000 
@<TRIPOS>BOND
     1    1    2 1    
     2    1   32 1    
     3    1   33 1    
     4    1   34 1    
     5    2    3 1    
     6    3    8 ar   
     7    3    4 ar   
     8    4    5 ar   
     9    4   35 1    
    10    5    6 ar   
    11    5   36 1    
    12    6    7 ar   
    13    6    9 1    
    14    7    8 ar   
    15    7   37 1    
    16    8   38 1    
    17    9   10 1    
    18    9   20 1    
    19    9   11 1    
    20   11   15 1    
    21   11   12 2    
    22   12   13 1    
    23   12   17 1    
    24   13   14 1    
    25   13   39 1    
    26   13   40 1    
    27   14   15 1    
    28   15   16 2    
    29   17   18 am   BACKBONE|DICT|INTERRES
    30   17   21 1    
    31   18   19 2    
    32   18   20 am   BACKBONE|DICT|INTERRES
    33   20   41 1    
    34   21   22 1    
    35   21   42 1    
    36   21   43 1    
    37   22   23 2    
    38   22   24 am   BACKBONE|DICT|INTERRES
    39   24   25 1    
    40   24   44 1    
    41   25   30 ar   
    42   25   26 ar   
    43   26   27 ar   
    44   26   45 1    
    45   27   28 ar   
    46   27   46 1    
    47   28   29 ar   
    48   28   31 1    
    49   29   30 ar   
    50   29   47 1    
    51   30   48 1    
@<TRIPOS>SUBSTRUCTURE
     1 UNK         1 GROUP             0       ****    0 ROOT    
