@<TRIPOS>MOLECULE
ZINC13121889_5171
54   57    1
SMALL
USER_CHARGES


@<TRIPOS>ATOM
      1 C1          5.4477   53.6963   26.9291 C.3       1 UNK         0.0000 
      2 C2          4.5209   54.4992   26.0031 C.3       1 UNK         0.0000 
      3 O3          4.5960   54.1365   24.6219 O.3       1 UNK         0.0000 
      4 C4          5.6566   54.4969   23.8473 C.2       1 UNK         0.0000 
      5 O5          6.7019   54.9635   24.3065 O.2       1 UNK         0.0000 
      6 C6          5.3840   54.3574   22.3912 C.2       1 UNK         0.0000 
      7 C7          6.2345   54.8967   21.3662 C.2       1 UNK         0.0000 
      8 C8          5.7896   54.6387   20.0621 C.2       1 UNK         0.0000 
      9 S9          4.3217   53.7444   20.0681 S.3       1 UNK         0.0000 
     10 C10         4.2764   53.6983   21.8066 C.2       1 UNK         0.0000 
     11 N11         3.2101   53.0931   22.4816 N.am      1 UNK         0.0000 
     12 C12         2.3033   52.2151   21.9935 C.2       1 UNK         0.0000 
     13 O13         2.3153   51.7313   20.8606 O.2       1 UNK         0.0000 
     14 C14         1.2864   51.8165   22.9345 C.ar      1 UNK         0.0000 
     15 C15         0.6695   52.6173   23.9144 C.ar      1 UNK         0.0000 
     16 C16        -0.3341   51.8416   24.4704 C.ar      1 UNK         0.0000 
     17 N17        -0.3096   50.6521   23.7646 N.pl3     1 UNK         0.0000 
     18 N18         0.7042   50.6369   22.8865 N.2       1 UNK         0.0000 
     19 C19        -1.1302   49.4585   24.0282 C.3       1 UNK         0.0000 
     20 H20        -0.5266   48.7944   24.6506 H         1 UNK         0.0000 
     21 C21        -2.3501   49.9239   24.8575 C.3       1 UNK         0.0000 
     22 C22        -2.0017   50.9264   25.9784 C.3       1 UNK         0.0000 
     23 H23        -1.3080   50.4449   26.6716 H         1 UNK         0.0000 
     24 N24        -1.3287   52.0960   25.3980 N.pl3     1 UNK         0.0000 
     25 C25        -3.2698   51.3015   26.7257 C.2       1 UNK         0.0000 
     26 C26        -3.7493   50.7999   27.9364 C.2       1 UNK         0.0000 
     27 C27        -5.0295   51.2415   28.2812 C.2       1 UNK         0.0000 
     28 C28        -5.5673   52.0969   27.3349 C.2       1 UNK         0.0000 
     29 S29        -4.4579   52.3907   26.0418 S.3       1 UNK         0.0000 
     30 C30        -1.5542   48.6666   22.7605 C.3       1 UNK         0.0000 
     31 F31        -2.2629   47.5870   23.0934 F         1 UNK         0.0000 
     32 F32        -2.3217   49.4020   21.9543 F         1 UNK         0.0000 
     33 F33        -0.5208   48.2428   22.0370 F         1 UNK         0.0000 
     34 C34         6.4018   55.0228   18.7313 C.3       1 UNK         0.0000 
     35 C35         7.5041   55.6961   21.6078 C.3       1 UNK         0.0000 
     36 H36         5.3244   54.0127   27.9649 H         1 UNK         0.0000 
     37 H37         6.4992   53.8235   26.6714 H         1 UNK         0.0000 
     38 H38         5.2196   52.6325   26.8826 H         1 UNK         0.0000 
     39 H39         3.4920   54.3536   26.3261 H         1 UNK         0.0000 
     40 H40         4.7219   55.5652   26.1070 H         1 UNK         0.0000 
     41 H41         3.2031   53.2430   23.4801 H         1 UNK         0.0000 
     42 H42         0.8992   53.6432   24.1629 H         1 UNK         0.0000 
     43 H43        -3.0934   50.3655   24.1904 H         1 UNK         0.0000 
     44 H44        -2.8492   49.0497   25.2808 H         1 UNK         0.0000 
     45 H45        -1.1745   52.8067   26.0978 H         1 UNK         0.0000 
     46 H46        -3.1884   50.0971   28.5382 H         1 UNK         0.0000 
     47 H47        -5.5473   50.9297   29.1774 H         1 UNK         0.0000 
     48 H48        -6.5378   52.5700   27.3420 H         1 UNK         0.0000 
     49 H49         7.4840   55.1359   18.7814 H         1 UNK         0.0000 
     50 H50         6.2139   54.2688   17.9647 H         1 UNK         0.0000 
     51 H51         5.9934   55.9625   18.3582 H         1 UNK         0.0000 
     52 H52         7.9163   56.1666   20.7177 H         1 UNK         0.0000 
     53 H53         7.3377   56.4965   22.3214 H         1 UNK         0.0000 
     54 H54         8.2794   55.0684   22.0420 H         1 UNK         0.0000 
@<TRIPOS>BOND
     1    1    2 1    
     2    1   36 1    
     3    1   37 1    
     4    1   38 1    
     5    2    3 1    
     6    2   39 1    
     7    2   40 1    
     8    3    4 1    
     9    4    5 2    
    10    4    6 1    
    11    6   10 2    
    12    6    7 1    
    13    7    8 2    
    14    7   35 1    
    15    8    9 1    
    16    8   34 1    
    17    9   10 1    
    18   10   11 am   BACKBONE|DICT|INTERRES
    19   11   12 am   BACKBONE|DICT|INTERRES
    20   11   41 1    
    21   12   13 2    
    22   12   14 1    
    23   14   18 ar   
    24   14   15 ar   
    25   15   16 ar   
    26   15   42 1    
    27   16   24 1    
    28   16   17 ar   
    29   17   18 ar   
    30   17   19 1    
    31   19   20 1    
    32   19   21 1    
    33   19   30 1    
    34   21   22 1    
    35   21   43 1    
    36   21   44 1    
    37   22   23 1    
    38   22   24 1    
    39   22   25 1    
    40   24   45 1    
    41   25   29 1    
    42   25   26 2    
    43   26   27 1    
    44   26   46 1    
    45   27   28 2    
    46   27   47 1    
    47   28   29 1    
    48   28   48 1    
    49   30   31 1    
    50   30   32 1    
    51   30   33 1    
    52   34   49 1    
    53   34   50 1    
    54   34   51 1    
    55   35   52 1    
    56   35   53 1    
    57   35   54 1    
@<TRIPOS>SUBSTRUCTURE
     1 UNK         1 GROUP             0       ****    0 ROOT    
