@<TRIPOS>MOLECULE
ZINC57316321_3188
52   54    1
SMALL
USER_CHARGES


@<TRIPOS>ATOM
      1 C1          7.7148   55.8286   21.6166 C.3       1 UNK         0.0000 
      2 O2          7.3739   56.4973   20.4132 O.3       1 UNK         0.0000 
      3 C3          6.3456   56.0283   19.6199 C.ar      1 UNK         0.0000 
      4 C4          5.6472   54.8383   19.8676 C.ar      1 UNK         0.0000 
      5 C5          4.6227   54.3984   19.0163 C.ar      1 UNK         0.0000 
      6 C6          4.3024   55.1903   17.9005 C.ar      1 UNK         0.0000 
      7 C7          4.9740   56.3865   17.6460 C.ar      1 UNK         0.0000 
      8 C8          6.0073   56.7990   18.5016 C.ar      1 UNK         0.0000 
      9 O9          6.6849   57.9740   18.2744 O.3       1 UNK         0.0000 
     10 C10         7.6963   57.8851   17.2807 C.3       1 UNK         0.0000 
     11 O11         4.6364   57.0950   16.5164 O.3       1 UNK         0.0000 
     12 C12         4.0074   58.3527   16.7387 C.3       1 UNK         0.0000 
     13 C13         3.8891   53.1078   19.3320 C.2       1 UNK         0.0000 
     14 O14         4.3336   52.3485   20.2011 O.2       1 UNK         0.0000 
     15 N15         2.7288   52.8967   18.6552 N.am      1 UNK         0.0000 
     16 C16         1.6437   52.1295   18.9835 C.2       1 UNK         0.0000 
     17 S17         0.2425   52.3816   18.1128 S.2       1 UNK         0.0000 
     18 N18         1.7810   51.2471   20.0218 N.pl3     1 UNK         0.0000 
     19 C19         0.6970   50.8056   20.9086 C.3       1 UNK         0.0000 
     20 C20         0.6619   51.6538   22.1683 C.2       1 UNK         0.0000 
     21 C21        -0.3344   52.0630   23.0400 C.2       1 UNK         0.0000 
     22 C22         0.2818   52.8403   24.0259 C.2       1 UNK         0.0000 
     23 C23         1.6317   52.9125   23.7051 C.2       1 UNK         0.0000 
     24 O24         1.8461   52.1763   22.5840 O.3       1 UNK         0.0000 
     25 C25         2.8297   53.5497   24.3246 C.ar      1 UNK         0.0000 
     26 C26         4.0040   53.6979   23.5784 C.ar      1 UNK         0.0000 
     27 C27         5.1537   54.2064   24.1747 C.ar      1 UNK         0.0000 
     28 C28         5.1251   54.6017   25.5088 C.ar      1 UNK         0.0000 
     29 C29         3.9536   54.4832   26.2540 C.ar      1 UNK         0.0000 
     30 C30         2.8087   53.9493   25.6637 C.ar      1 UNK         0.0000 
     31 Br31        6.7037   55.2966   26.3153 Br        1 UNK         0.0000 
     32 H32         8.5449   56.3561   22.0815 H         1 UNK         0.0000 
     33 H33         6.8823   55.8403   22.3183 H         1 UNK         0.0000 
     34 H34         8.0435   54.8079   21.4397 H         1 UNK         0.0000 
     35 H35         5.9029   54.2418   20.7301 H         1 UNK         0.0000 
     36 H36         3.5303   54.8959   17.2048 H         1 UNK         0.0000 
     37 H37         8.1825   58.8548   17.1750 H         1 UNK         0.0000 
     38 H38         8.4609   57.1558   17.5545 H         1 UNK         0.0000 
     39 H39         7.2856   57.6129   16.3072 H         1 UNK         0.0000 
     40 H40         3.7753   58.8135   15.7786 H         1 UNK         0.0000 
     41 H41         4.6453   59.0497   17.2817 H         1 UNK         0.0000 
     42 H42         3.0691   58.2390   17.2811 H         1 UNK         0.0000 
     43 H43         2.5514   53.5587   17.9170 H         1 UNK         0.0000 
     44 H44         2.7171   51.1584   20.3960 H         1 UNK         0.0000 
     45 H45        -0.2737   50.7921   20.4143 H         1 UNK         0.0000 
     46 H46         0.8950   49.7632   21.1565 H         1 UNK         0.0000 
     47 H47        -1.3821   51.8095   22.9794 H         1 UNK         0.0000 
     48 H48        -0.2032   53.2963   24.8747 H         1 UNK         0.0000 
     49 H49         4.0398   53.3886   22.5445 H         1 UNK         0.0000 
     50 H50         6.0692   54.2758   23.6100 H         1 UNK         0.0000 
     51 H51         3.9389   54.7859   27.2909 H         1 UNK         0.0000 
     52 H52         1.9120   53.8324   26.2547 H         1 UNK         0.0000 
@<TRIPOS>BOND
     1    1    2 1    
     2    1   32 1    
     3    1   33 1    
     4    1   34 1    
     5    2    3 1    
     6    3    8 ar   
     7    3    4 ar   
     8    4    5 ar   
     9    4   35 1    
    10    5    6 ar   
    11    5   13 1    
    12    6    7 ar   
    13    6   36 1    
    14    7    8 ar   
    15    7   11 1    
    16    8    9 1    
    17    9   10 1    
    18   10   37 1    
    19   10   38 1    
    20   10   39 1    
    21   11   12 1    
    22   12   40 1    
    23   12   41 1    
    24   12   42 1    
    25   13   14 2    
    26   13   15 am   BACKBONE|DICT|INTERRES
    27   15   16 am   BACKBONE|DICT|INTERRES
    28   15   43 1    
    29   16   17 2    
    30   16   18 1    
    31   18   19 1    
    32   18   44 1    
    33   19   20 1    
    34   19   45 1    
    35   19   46 1    
    36   20   24 1    
    37   20   21 2    
    38   21   22 1    
    39   21   47 1    
    40   22   23 2    
    41   22   48 1    
    42   23   24 1    
    43   23   25 1    
    44   25   30 ar   
    45   25   26 ar   
    46   26   27 ar   
    47   26   49 1    
    48   27   28 ar   
    49   27   50 1    
    50   28   29 ar   
    51   28   31 1    
    52   29   30 ar   
    53   29   51 1    
    54   30   52 1    
@<TRIPOS>SUBSTRUCTURE
     1 UNK         1 GROUP             0       ****    0 ROOT    
