ZINC40960757_5355
                    3D
 Schrodinger Suite 2024-2.
 60 64  0  0  1  0            999 V2000
   -1.5705   51.2984   28.9361 C   0  0  0  0  0  0
   -0.4160   51.8456   29.4976 C   0  0  0  0  0  0
    0.5844   52.3906   28.6808 C   0  0  0  0  0  0
    0.3771   52.4024   27.2923 C   0  0  0  0  0  0
   -0.7794   51.8593   26.7197 C   0  0  0  0  0  0
   -1.7495   51.2968   27.5554 C   0  0  0  0  0  0
   -0.9653   51.8543   25.2024 C   0  0  0  0  0  0
   -2.2586   51.8957   24.8708 F   0  0  0  0  0  0
   -0.3584   52.8956   24.6272 F   0  0  0  0  0  0
   -0.4338   50.7359   24.7072 F   0  0  0  0  0  0
    1.8836   52.8879   29.2495 C   0  0  0  0  0  0
    2.6762   53.6869   28.5616 N   0  0  0  0  0  0
    3.7769   53.6755   29.2639 C   0  0  0  0  0  0
    3.6463   53.0147   30.4395 O   0  0  0  0  0  0
    2.3502   52.4970   30.4204 N   0  0  0  0  0  0
    5.1572   54.2025   28.8795 C   0  0  0  0  0  0
    5.2384   54.5591   27.3679 N   0  3  2  0  0  0
    5.0517   53.3077   26.4811 C   0  0  0  0  0  0
    5.0142   53.7646   25.0141 C   0  0  0  0  0  0
    6.2933   54.5048   24.5634 C   0  0  2  0  0  0
    6.5766   55.6539   25.5502 C   0  0  0  0  0  0
    6.5967   55.2212   27.0334 C   0  0  0  0  0  0
    6.3043   54.9786   23.1788 N   0  0  0  0  0  0
    5.8883   54.3237   22.0811 C   0  0  0  0  0  0
    5.5038   53.1550   22.0852 O   0  0  0  0  0  0
    5.9040   55.1072   20.8694 C   0  0  0  0  0  0
    6.5153   56.3356   20.6053 C   0  0  0  0  0  0
    6.3319   56.7932   19.2936 C   0  0  0  0  0  0
    5.5585   55.9044   18.5385 C   0  0  0  0  0  0
    5.1088   54.4967   19.4457 S   0  0  0  0  0  0
    5.0943   56.1481   17.1100 C   0  0  0  0  0  0
    5.9383   57.2812   16.4870 C   0  0  0  0  0  0
    6.0903   58.4848   17.4364 C   0  0  0  0  0  0
    6.8395   58.1220   18.7394 C   0  0  0  0  0  0
   -2.3101   50.8391   29.5777 H   0  0  0  0  0  0
   -0.2956   51.8072   30.5712 H   0  0  0  0  0  0
    1.1380   52.8054   26.6398 H   0  0  0  0  0  0
   -2.6352   50.8311   27.1441 H   0  0  0  0  0  0
    5.9437   53.4592   29.0275 H   0  0  0  0  0  0
    5.4215   55.1118   29.4247 H   0  0  0  0  0  0
    5.8578   52.6156   26.7168 H   0  0  0  0  0  0
    4.0966   52.8481   26.7200 H   0  0  0  0  0  0
    4.1468   54.4115   24.8688 H   0  0  0  0  0  0
    4.8431   52.8973   24.3856 H   0  0  0  0  0  0
    7.1125   53.7841   24.6354 H   0  0  0  0  0  0
    7.5041   56.1446   25.2799 H   0  0  0  0  0  0
    5.8023   56.4099   25.4134 H   0  0  0  0  0  0
    7.3859   54.5005   27.2648 H   0  0  0  0  0  0
    6.7042   56.0927   27.6817 H   0  0  0  0  0  0
    6.5764   55.9392   23.0550 H   0  0  0  0  0  0
    7.0741   56.8940   21.3387 H   0  0  0  0  0  0
    4.0434   56.4412   17.1116 H   0  0  0  0  0  0
    5.1705   55.2436   16.5039 H   0  0  0  0  0  0
    5.4819   57.5990   15.5479 H   0  0  0  0  0  0
    6.9263   56.9001   16.2248 H   0  0  0  0  0  0
    5.1049   58.8849   17.6781 H   0  0  0  0  0  0
    6.6125   59.2960   16.9290 H   0  0  0  0  0  0
    7.9075   58.0436   18.5382 H   0  0  0  0  0  0
    6.7205   58.9316   19.4587 H   0  0  0  0  0  0
    4.4915   55.2135   27.1714 H   0  0  0  0  0  0
  1  6  2  0  0  0
  1  2  1  0  0  0
  1 35  1  0  0  0
  2  3  2  0  0  0
  2 36  1  0  0  0
  3  4  1  0  0  0
  3 11  1  0  0  0
  4  5  2  0  0  0
  4 37  1  0  0  0
  5  6  1  0  0  0
  5  7  1  0  0  0
  6 38  1  0  0  0
  7  8  1  0  0  0
  7  9  1  0  0  0
  7 10  1  0  0  0
 11 15  2  0  0  0
 11 12  1  0  0  0
 12 13  2  0  0  0
 13 14  1  0  0  0
 13 16  1  0  0  0
 14 15  1  0  0  0
 16 17  1  0  0  0
 16 39  1  0  0  0
 16 40  1  0  0  0
 17 22  1  0  0  0
 17 18  1  0  0  0
 17 60  1  0  0  0
 18 19  1  0  0  0
 18 41  1  0  0  0
 18 42  1  0  0  0
 19 20  1  0  0  0
 19 43  1  0  0  0
 19 44  1  0  0  0
 20 21  1  0  0  0
 20 23  1  0  0  0
 20 45  1  0  0  0
 21 22  1  0  0  0
 21 46  1  0  0  0
 21 47  1  0  0  0
 22 48  1  0  0  0
 22 49  1  0  0  0
 23 24  1  0  0  0
 23 50  1  0  0  0
 24 25  2  0  0  0
 24 26  1  0  0  0
 26 30  1  0  0  0
 26 27  2  0  0  0
 27 28  1  0  0  0
 27 51  1  0  0  0
 28 34  1  0  0  0
 28 29  2  0  0  0
 29 30  1  0  0  0
 29 31  1  0  0  0
 31 32  1  0  0  0
 31 52  1  0  0  0
 31 53  1  0  0  0
 32 33  1  0  0  0
 32 54  1  0  0  0
 32 55  1  0  0  0
 33 34  1  0  0  0
 33 56  1  0  0  0
 33 57  1  0  0  0
 34 58  1  0  0  0
 34 59  1  0  0  0
M  CHG  1  17   1
M  END
> <i_i_glide_confnum>
15

> <i_i_glide_lignum>
5356

> <i_i_glide_posenum>
203

> <i_i_glide_rotatable_bonds>
7

> <i_m_Source_File_Index>
2556

> <b_m_subgroup_collapsed>
0

> <r_i_docking_score>
-4.23841

> <r_i_glide_ecoul>
-0.566686

> <r_i_glide_eff_state_penalty>
0

> <r_i_glide_einternal>
8.59124

> <r_i_glide_emodel>
-48.353

> <r_i_glide_energy>
-40.0422

> <r_i_glide_erotb>
0.505543

> <r_i_glide_esite>
-0.0319018

> <r_i_glide_evdw>
-39.4756

> <r_i_glide_gscore>
-4.23841

> <r_i_glide_hbond>
0

> <r_i_glide_ligand_efficiency>
-0.124659

> <r_i_glide_ligand_efficiency_ln>
-0.936383

> <r_i_glide_ligand_efficiency_sa>
-0.403847

> <r_i_glide_lipo>
-1.95747

> <r_i_glide_metal>
0

> <r_i_glide_rewards>
-0.6958

> <s_i_glide_gridfile>
wee1_glide-grid

> <s_m_Source_File>
wee1_decoys_glide_SP.sdf

> <s_m_Source_Path>
/Users/zhangxujun/Desktop

> <s_m_entry_id>
2831

> <s_m_entry_name>
wee1_decoys_glide_SP.2556

> <s_m_subgroup_title>
wee1_decoys_glide_SP

> <s_m_subgroupid>
wee1_decoys_glide_SP


$$$$
