@<TRIPOS>MOLECULE
ZINC21014344_3765
39   41    1
SMALL
USER_CHARGES


@<TRIPOS>ATOM
      1 C1          1.4387   52.0440   24.0411 C.3       1 UNK         0.0000 
      2 C2          1.6868   53.4164   24.7141 C.3       1 UNK         0.0000 
      3 H3          0.7243   53.7733   25.0777 H         1 UNK         0.0000 
      4 C4          2.1767   54.4303   23.6657 C.3       1 UNK         0.0000 
      5 C5          3.5942   54.0969   23.2213 C.3       1 UNK         0.0000 
      6 C6          4.4797   54.1012   24.4485 C.ar      1 UNK         0.0000 
      7 C7          5.8108   54.5099   24.3252 C.ar      1 UNK         0.0000 
      8 C8          6.6488   54.5780   25.4284 C.ar      1 UNK         0.0000 
      9 C9          6.1601   54.2469   26.6859 C.ar      1 UNK         0.0000 
     10 C10         4.8377   53.8302   26.8276 C.ar      1 UNK         0.0000 
     11 C11         3.9739   53.7207   25.7199 C.ar      1 UNK         0.0000 
     12 N12         2.6111   53.2973   25.8812 N.pl3     1 UNK         0.0000 
     13 S13         1.8788   53.0290   27.5198 S.o2      1 UNK         0.0000 
     14 O14         2.7540   52.1466   28.2998 O.2       1 UNK         0.0000 
     15 O15         1.5032   54.3522   28.0326 O.2       1 UNK         0.0000 
     16 C16         0.3837   52.0970   27.2411 C.ar      1 UNK         0.0000 
     17 C17        -0.8507   52.7322   27.2982 C.ar      1 UNK         0.0000 
     18 C18        -2.0012   52.0695   26.8811 C.ar      1 UNK         0.0000 
     19 C19        -1.9079   50.7489   26.4583 C.ar      1 UNK         0.0000 
     20 C20        -0.6786   50.0967   26.4525 C.ar      1 UNK         0.0000 
     21 C21         0.4651   50.7556   26.8816 C.ar      1 UNK         0.0000 
     22 N22        -3.0527   50.0556   26.0818 N.pl3     1 UNK         0.0000 
     23 H23         1.1801   52.1518   22.9867 H         1 UNK         0.0000 
     24 H24         2.3042   51.3871   24.0828 H         1 UNK         0.0000 
     25 H25         0.5957   51.5203   24.4784 H         1 UNK         0.0000 
     26 H26         1.5054   54.4559   22.8053 H         1 UNK         0.0000 
     27 H27         2.1303   55.4338   24.0817 H         1 UNK         0.0000 
     28 H28         3.9347   54.8208   22.4799 H         1 UNK         0.0000 
     29 H29         3.6296   53.1184   22.7412 H         1 UNK         0.0000 
     30 H30         6.2014   54.7884   23.3566 H         1 UNK         0.0000 
     31 H31         7.6690   54.8969   25.2910 H         1 UNK         0.0000 
     32 H32         6.8006   54.3125   27.5537 H         1 UNK         0.0000 
     33 H33         4.5164   53.6030   27.8290 H         1 UNK         0.0000 
     34 H34        -0.8962   53.7405   27.6812 H         1 UNK         0.0000 
     35 H35        -2.9564   52.5710   26.9033 H         1 UNK         0.0000 
     36 H36        -0.6119   49.0590   26.1586 H         1 UNK         0.0000 
     37 H37         1.4086   50.2335   26.8831 H         1 UNK         0.0000 
     38 H38        -3.9344   50.4895   26.3059 H         1 UNK         0.0000 
     39 H39        -2.9805   49.0518   26.1787 H         1 UNK         0.0000 
@<TRIPOS>BOND
     1    1    2 1    
     2    1   23 1    
     3    1   24 1    
     4    1   25 1    
     5    2    3 1    
     6    2   12 1    
     7    2    4 1    
     8    4    5 1    
     9    4   26 1    
    10    4   27 1    
    11    5    6 1    
    12    5   28 1    
    13    5   29 1    
    14    6   11 ar   
    15    6    7 ar   
    16    7    8 ar   
    17    7   30 1    
    18    8    9 ar   
    19    8   31 1    
    20    9   10 ar   
    21    9   32 1    
    22   10   11 ar   
    23   10   33 1    
    24   11   12 1    
    25   12   13 1    
    26   13   14 2    
    27   13   15 2    
    28   13   16 1    
    29   16   21 ar   
    30   16   17 ar   
    31   17   18 ar   
    32   17   34 1    
    33   18   19 ar   
    34   18   35 1    
    35   19   20 ar   
    36   19   22 1    
    37   20   21 ar   
    38   20   36 1    
    39   21   37 1    
    40   22   38 1    
    41   22   39 1    
@<TRIPOS>SUBSTRUCTURE
     1 UNK         1 GROUP             0       ****    0 ROOT    
