ZINC11859250_3509
                    3D
 Schrodinger Suite 2024-2.
 62 65  0  0  1  0            999 V2000
    0.6589   51.4473   28.7232 C   0  0  0  0  0  0
    0.2099   51.6322   27.2621 C   0  0  0  0  0  0
    1.1481   52.4036   26.4269 N   0  0  0  0  0  0
    1.5627   53.7025   26.9827 C   0  0  0  0  0  0
    3.0314   53.7865   27.3766 C   0  0  0  0  0  0
    3.3712   54.0681   28.7021 C   0  0  0  0  0  0
    4.7043   54.2555   29.0530 C   0  0  0  0  0  0
    5.6982   54.1463   28.0830 C   0  0  0  0  0  0
    5.3682   53.8685   26.7591 C   0  0  0  0  0  0
    4.0324   53.6967   26.4049 C   0  0  0  0  0  0
    1.0855   52.2079   25.0111 C   0  0  0  0  0  0
    0.9503   50.9128   24.4821 C   0  0  0  0  0  0
    0.9541   50.6773   23.1137 C   0  0  0  0  0  0
    1.0667   51.7421   22.2176 C   0  0  0  0  0  0
    1.1705   53.0368   22.7197 C   0  0  0  0  0  0
    1.1962   53.2659   24.0885 C   0  0  0  0  0  0
    1.0810   51.5148   20.6978 C   0  0  1  0  0  0
    0.1769   52.0388   20.3872 H   0  0  0  0  0  0
    2.2851   52.1663   19.9167 C   0  0  2  0  0  0
    2.1140   53.2416   19.8994 H   0  0  0  0  0  0
    2.3159   51.6646   18.4262 C   0  0  1  0  0  0
    2.3043   50.1921   18.4816 N   0  0  0  0  0  0
    1.5404   49.4408   19.3017 C   0  0  0  0  0  0
    1.4659   48.2192   19.2129 O   0  0  0  0  0  0
    0.8661   50.1183   20.2546 N   0  0  0  0  0  0
    1.1486   52.2707   17.5686 C   0  0  0  0  0  0
   -0.0631   51.9011   17.9861 F   0  0  0  0  0  0
    1.1628   53.6059   17.5761 F   0  0  0  0  0  0
    1.2246   51.8881   16.2913 F   0  0  0  0  0  0
    3.5041   52.0967   17.7799 O   0  0  0  0  0  0
    3.6440   51.9872   20.6671 C   0  0  0  0  0  0
    3.9043   50.8993   21.1840 O   0  0  0  0  0  0
    4.4774   53.2087   20.9123 C   0  0  0  0  0  0
    4.6333   54.1935   19.9267 C   0  0  0  0  0  0
    5.5048   55.2598   20.1280 C   0  0  0  0  0  0
    6.2053   55.3638   21.3258 C   0  0  0  0  0  0
    6.0295   54.4198   22.3328 C   0  0  0  0  0  0
    5.1886   53.3311   22.1137 C   0  0  0  0  0  0
   -0.0953   50.8966   29.2813 H   0  0  0  0  0  0
    1.5977   50.8973   28.7804 H   0  0  0  0  0  0
    0.7900   52.3897   29.2517 H   0  0  0  0  0  0
   -0.7510   52.1494   27.2504 H   0  0  0  0  0  0
   -0.0013   50.6436   26.8583 H   0  0  0  0  0  0
    1.4208   54.4967   26.2826 H   0  0  0  0  0  0
    0.9343   53.9865   27.8271 H   0  0  0  0  0  0
    2.6026   54.1668   29.4542 H   0  0  0  0  0  0
    4.9660   54.4970   30.0730 H   0  0  0  0  0  0
    6.7322   54.2910   28.3624 H   0  0  0  0  0  0
    6.1415   53.7874   26.0103 H   0  0  0  0  0  0
    3.7772   53.4927   25.3759 H   0  0  0  0  0  0
    0.9014   50.0489   25.1274 H   0  0  0  0  0  0
    0.8902   49.6560   22.7694 H   0  0  0  0  0  0
    1.2656   53.8780   22.0507 H   0  0  0  0  0  0
    1.3014   54.2969   24.3739 H   0  0  0  0  0  0
    2.9715   49.6968   17.8931 H   0  0  0  0  0  0
    0.1352   49.5980   20.7115 H   0  0  0  0  0  0
    4.1998   51.4256   17.9185 H   0  0  0  0  0  0
    4.1033   54.1460   18.9880 H   0  0  0  0  0  0
    5.6319   56.0047   19.3557 H   0  0  0  0  0  0
    6.8836   56.1892   21.4823 H   0  0  0  0  0  0
    6.5752   54.5071   23.2613 H   0  0  0  0  0  0
    5.1045   52.5790   22.8812 H   0  0  0  0  0  0
  1  2  1  0  0  0
  1 39  1  0  0  0
  1 40  1  0  0  0
  1 41  1  0  0  0
  2  3  1  0  0  0
  2 42  1  0  0  0
  2 43  1  0  0  0
  3  4  1  0  0  0
  3 11  1  0  0  0
  4  5  1  0  0  0
  4 44  1  0  0  0
  4 45  1  0  0  0
  5 10  2  0  0  0
  5  6  1  0  0  0
  6  7  2  0  0  0
  6 46  1  0  0  0
  7  8  1  0  0  0
  7 47  1  0  0  0
  8  9  2  0  0  0
  8 48  1  0  0  0
  9 10  1  0  0  0
  9 49  1  0  0  0
 10 50  1  0  0  0
 11 16  2  0  0  0
 11 12  1  0  0  0
 12 13  2  0  0  0
 12 51  1  0  0  0
 13 14  1  0  0  0
 13 52  1  0  0  0
 14 15  2  0  0  0
 14 17  1  0  0  0
 15 16  1  0  0  0
 15 53  1  0  0  0
 16 54  1  0  0  0
 17 18  1  0  0  0
 17 25  1  0  0  0
 17 19  1  0  0  0
 19 20  1  0  0  0
 19 21  1  0  0  0
 19 31  1  0  0  0
 21 22  1  0  0  0
 21 26  1  0  0  0
 21 30  1  0  0  0
 22 23  1  0  0  0
 22 55  1  0  0  0
 23 24  2  0  0  0
 23 25  1  0  0  0
 25 56  1  0  0  0
 26 27  1  0  0  0
 26 28  1  0  0  0
 26 29  1  0  0  0
 30 57  1  0  0  0
 31 32  2  0  0  0
 31 33  1  0  0  0
 33 38  2  0  0  0
 33 34  1  0  0  0
 34 35  2  0  0  0
 34 58  1  0  0  0
 35 36  1  0  0  0
 35 59  1  0  0  0
 36 37  2  0  0  0
 36 60  1  0  0  0
 37 38  1  0  0  0
 37 61  1  0  0  0
 38 62  1  0  0  0
M  END
> <i_i_glide_confnum>
58

> <i_i_glide_lignum>
3510

> <i_i_glide_posenum>
242

> <i_i_glide_rotatable_bonds>
9

> <i_m_Source_File_Index>
2352

> <b_m_subgroup_collapsed>
0

> <r_i_docking_score>
-6.33514

> <r_i_glide_ecoul>
-8.87352

> <r_i_glide_eff_state_penalty>
0

> <r_i_glide_einternal>
8.70058

> <r_i_glide_emodel>
-62.7706

> <r_i_glide_energy>
-46.5019

> <r_i_glide_erotb>
0.494507

> <r_i_glide_esite>
-0.277112

> <r_i_glide_evdw>
-37.6284

> <r_i_glide_gscore>
-6.33514

> <r_i_glide_hbond>
-0.304

> <r_i_glide_ligand_efficiency>
-0.175976

> <r_i_glide_ligand_efficiency_ln>
-1.38216

> <r_i_glide_ligand_efficiency_sa>
-0.581061

> <r_i_glide_lipo>
-2.98786

> <r_i_glide_metal>
0

> <r_i_glide_rewards>
-0.0482292

> <s_i_glide_gridfile>
wee1_glide-grid

> <s_m_Source_File>
wee1_decoys_glide_SP.sdf

> <s_m_Source_Path>
/Users/zhangxujun/Desktop

> <s_m_entry_id>
2627

> <s_m_entry_name>
wee1_decoys_glide_SP.2352

> <s_m_subgroup_title>
wee1_decoys_glide_SP

> <s_m_subgroupid>
wee1_decoys_glide_SP


$$$$
