@<TRIPOS>MOLECULE
ZINC01035687_2641
40   42    1
SMALL
USER_CHARGES


@<TRIPOS>ATOM
      1 C1         -2.3301   46.2276   22.6005 C.3       1 UNK         0.0000 
      2 N2         -1.8324   47.1867   23.5787 N.am      1 UNK         0.0000 
      3 C3         -1.9919   47.0973   24.9152 C.2       1 UNK         0.0000 
      4 O4         -2.4768   46.0969   25.4406 O.2       1 UNK         0.0000 
      5 N5         -1.6202   48.1553   25.6811 N.am      1 UNK         0.0000 
      6 C6         -1.1670   49.3795   25.3085 C.2       1 UNK         0.0000 
      7 O7         -0.9632   49.7450   24.1456 O.2       1 UNK         0.0000 
      8 C8         -0.8821   50.3297   26.4734 C.3       1 UNK         0.0000 
      9 S9         -1.1414   52.0941   26.1109 S.3       1 UNK         0.0000 
     10 C10         0.5451   52.5313   25.8530 C.ar      1 UNK         0.0000 
     11 N11         1.0950   52.5234   24.6675 N.2       1 UNK         0.0000 
     12 N12         2.3720   53.0384   24.8050 N.2       1 UNK         0.0000 
     13 C13         2.5691   53.2967   26.0760 C.ar      1 UNK         0.0000 
     14 N14         1.4197   53.0332   26.8080 N.pl3     1 UNK         0.0000 
     15 C15         1.1624   53.2803   28.1781 C.ar      1 UNK         0.0000 
     16 C16         1.4170   54.5503   28.7100 C.ar      1 UNK         0.0000 
     17 C17         1.1412   54.8128   30.0507 C.ar      1 UNK         0.0000 
     18 C18         0.6104   53.8043   30.8526 C.ar      1 UNK         0.0000 
     19 C19         0.3407   52.5453   30.3288 C.ar      1 UNK         0.0000 
     20 C20         0.6247   52.2781   28.9932 C.ar      1 UNK         0.0000 
     21 Cl21        0.3017   54.0968   32.5217 Cl        1 UNK         0.0000 
     22 C22         3.8565   53.7715   26.5990 C.2       1 UNK         0.0000 
     23 C23         4.4230   53.5639   27.8578 C.2       1 UNK         0.0000 
     24 C24         5.7086   54.0977   27.9877 C.2       1 UNK         0.0000 
     25 C25         6.1488   54.7112   26.8316 C.2       1 UNK         0.0000 
     26 S26         4.9703   54.6348   25.5704 S.3       1 UNK         0.0000 
     27 H27        -2.3207   46.6789   21.6056 H         1 UNK         0.0000 
     28 H28        -3.3582   45.9322   22.8247 H         1 UNK         0.0000 
     29 H29        -1.6987   45.3372   22.5744 H         1 UNK         0.0000 
     30 H30        -1.3845   48.0204   23.2208 H         1 UNK         0.0000 
     31 H31        -1.6965   48.0236   26.6885 H         1 UNK         0.0000 
     32 H32        -1.5724   50.1028   27.2814 H         1 UNK         0.0000 
     33 H33         0.1264   50.1304   26.8342 H         1 UNK         0.0000 
     34 H34         1.8212   55.3337   28.0835 H         1 UNK         0.0000 
     35 H35         1.3378   55.7917   30.4617 H         1 UNK         0.0000 
     36 H36        -0.0953   51.7816   30.9575 H         1 UNK         0.0000 
     37 H37         0.4202   51.2925   28.6107 H         1 UNK         0.0000 
     38 H38         3.9284   53.0239   28.6515 H         1 UNK         0.0000 
     39 H39         6.3065   54.0317   28.8813 H         1 UNK         0.0000 
     40 H40         7.1004   55.1895   26.6684 H         1 UNK         0.0000 
@<TRIPOS>BOND
     1    1    2 1    
     2    1   27 1    
     3    1   28 1    
     4    1   29 1    
     5    2    3 am   BACKBONE|DICT|INTERRES
     6    2   30 1    
     7    3    4 2    
     8    3    5 am   BACKBONE|DICT|INTERRES
     9    5    6 am   BACKBONE|DICT|INTERRES
    10    5   31 1    
    11    6    7 2    
    12    6    8 1    
    13    8    9 1    
    14    8   32 1    
    15    8   33 1    
    16    9   10 1    
    17   10   14 ar   
    18   10   11 ar   
    19   11   12 ar   
    20   12   13 ar   
    21   13   14 ar   
    22   13   22 1    
    23   14   15 1    
    24   15   20 ar   
    25   15   16 ar   
    26   16   17 ar   
    27   16   34 1    
    28   17   18 ar   
    29   17   35 1    
    30   18   19 ar   
    31   18   21 1    
    32   19   20 ar   
    33   19   36 1    
    34   20   37 1    
    35   22   26 1    
    36   22   23 2    
    37   23   24 1    
    38   23   38 1    
    39   24   25 2    
    40   24   39 1    
    41   25   26 1    
    42   25   40 1    
@<TRIPOS>SUBSTRUCTURE
     1 UNK         1 GROUP             0       ****    0 ROOT    
