@<TRIPOS>MOLECULE
ZINC33658260_3429
71   76    1
SMALL
USER_CHARGES


@<TRIPOS>ATOM
      1 C1         -0.1377   49.6423   25.5641 C.ar      1 UNK         0.0000 
      2 C2         -0.4455   48.5546   24.7511 C.ar      1 UNK         0.0000 
      3 C3         -0.5740   48.7384   23.3764 C.ar      1 UNK         0.0000 
      4 C4         -0.3825   49.9925   22.8006 C.ar      1 UNK         0.0000 
      5 C5         -0.0783   51.0828   23.6115 C.ar      1 UNK         0.0000 
      6 C6          0.0463   50.9081   24.9956 C.ar      1 UNK         0.0000 
      7 C7          0.2731   52.1165   25.8896 C.3       1 UNK         0.0000 
      8 N8          1.6454   52.6153   25.8786 N.am      1 UNK         0.0000 
      9 C9          2.1473   53.5616   25.0653 C.2       1 UNK         0.0000 
     10 O10         1.4817   54.0968   24.1797 O.2       1 UNK         0.0000 
     11 C11         3.6036   53.9350   25.2778 C.ar      1 UNK         0.0000 
     12 C12         4.3739   54.2005   24.1326 C.ar      1 UNK         0.0000 
     13 C13         5.7463   54.4924   24.2151 C.ar      1 UNK         0.0000 
     14 C14         6.3485   54.5123   25.4683 C.ar      1 UNK         0.0000 
     15 C15         5.5982   54.2848   26.6154 C.ar      1 UNK         0.0000 
     16 C16         4.2241   54.0159   26.5536 C.ar      1 UNK         0.0000 
     17 N17         3.5405   53.8455   27.7721 N.pl3     1 UNK         0.0000 
     18 C18         4.0898   53.2392   28.9826 C.3       1 UNK         0.0000 
     19 C19         2.9125   53.0258   29.9214 C.3       1 UNK         0.0000 
     20 C20         2.0856   54.2777   29.6823 C.3       1 UNK         0.0000 
     21 C21         2.3883   54.6351   28.2239 C.3       1 UNK         0.0000 
     22 N22         6.5946   54.7696   23.1194 N.am      1 UNK         0.0000 
     23 C23         6.2764   54.9242   21.8181 C.2       1 UNK         0.0000 
     24 O24         5.1525   54.7966   21.3346 O.2       1 UNK         0.0000 
     25 N25         7.3525   55.2976   21.1033 N.am      1 UNK         0.0000 
     26 C26         7.3910   55.7148   19.6919 C.3       1 UNK         0.0000 
     27 C27         6.5501   57.0058   19.4229 C.3       1 UNK         0.0000 
     28 C28         6.6562   57.4679   17.9465 C.3       1 UNK         0.0000 
     29 C29         6.1336   56.3356   17.0267 C.3       1 UNK         0.0000 
     30 C30         6.9854   55.0563   17.2354 C.3       1 UNK         0.0000 
     31 C31         6.8857   54.6037   18.7153 C.3       1 UNK         0.0000 
     32 C32         8.4648   55.3617   16.8972 C.3       1 UNK         0.0000 
     33 C33         8.9861   56.4905   17.8179 C.3       1 UNK         0.0000 
     34 C34         8.1359   57.7688   17.6068 C.3       1 UNK         0.0000 
     35 C35         8.8677   56.0266   19.2928 C.3       1 UNK         0.0000 
     36 F36        -0.9001   47.6894   22.5897 F         1 UNK         0.0000 
     37 H37        -0.0713   49.4900   26.6336 H         1 UNK         0.0000 
     38 H38        -0.5969   47.5778   25.1916 H         1 UNK         0.0000 
     39 H39        -0.4827   50.1141   21.7326 H         1 UNK         0.0000 
     40 H40         0.0535   52.0585   23.1668 H         1 UNK         0.0000 
     41 H41        -0.4282   52.8967   25.5804 H         1 UNK         0.0000 
     42 H42         0.0059   51.8700   26.9208 H         1 UNK         0.0000 
     43 H43         2.2784   52.2124   26.5532 H         1 UNK         0.0000 
     44 H44         3.8871   54.1477   23.1720 H         1 UNK         0.0000 
     45 H45         7.4015   54.7201   25.5593 H         1 UNK         0.0000 
     46 H46         6.1078   54.3417   27.5673 H         1 UNK         0.0000 
     47 H47         4.5646   52.2966   28.7155 H         1 UNK         0.0000 
     48 H48         4.8887   53.8523   29.3998 H         1 UNK         0.0000 
     49 H49         2.3713   52.1172   29.6460 H         1 UNK         0.0000 
     50 H50         3.2278   52.8985   30.9556 H         1 UNK         0.0000 
     51 H51         2.4085   55.0867   30.3365 H         1 UNK         0.0000 
     52 H52         1.0252   54.0962   29.8524 H         1 UNK         0.0000 
     53 H53         2.6558   55.6905   28.1795 H         1 UNK         0.0000 
     54 H54         1.5049   54.5167   27.5927 H         1 UNK         0.0000 
     55 H55         7.5691   54.8960   23.3566 H         1 UNK         0.0000 
     56 H56         8.2473   55.2983   21.5723 H         1 UNK         0.0000 
     57 H57         5.5045   56.8224   19.6621 H         1 UNK         0.0000 
     58 H58         6.8575   57.8186   20.0797 H         1 UNK         0.0000 
     59 H59         6.0548   58.3681   17.7980 H         1 UNK         0.0000 
     60 H60         5.0835   56.1287   17.2408 H         1 UNK         0.0000 
     61 H61         6.1768   56.6513   15.9835 H         1 UNK         0.0000 
     62 H62         6.6164   54.2589   16.5865 H         1 UNK         0.0000 
     63 H63         7.4658   53.6977   18.8663 H         1 UNK         0.0000 
     64 H64         5.8503   54.3328   18.9278 H         1 UNK         0.0000 
     65 H65         9.0724   54.4613   17.0190 H         1 UNK         0.0000 
     66 H66         8.5583   55.6539   15.8514 H         1 UNK         0.0000 
     67 H67        10.0326   56.7027   17.5878 H         1 UNK         0.0000 
     68 H68         8.2258   58.1212   16.5772 H         1 UNK         0.0000 
     69 H69         8.5067   58.5776   18.2378 H         1 UNK         0.0000 
     70 H70         9.2844   56.7960   19.9451 H         1 UNK         0.0000 
     71 H71         9.4973   55.1492   19.4532 H         1 UNK         0.0000 
@<TRIPOS>BOND
     1    1    6 ar   
     2    1    2 ar   
     3    1   37 1    
     4    2    3 ar   
     5    2   38 1    
     6    3    4 ar   
     7    3   36 1    
     8    4    5 ar   
     9    4   39 1    
    10    5    6 ar   
    11    5   40 1    
    12    6    7 1    
    13    7    8 1    
    14    7   41 1    
    15    7   42 1    
    16    8    9 am   BACKBONE|DICT|INTERRES
    17    8   43 1    
    18    9   10 2    
    19    9   11 1    
    20   11   16 ar   
    21   11   12 ar   
    22   12   13 ar   
    23   12   44 1    
    24   13   14 ar   
    25   13   22 1    
    26   14   15 ar   
    27   14   45 1    
    28   15   16 ar   
    29   15   46 1    
    30   16   17 1    
    31   17   21 1    
    32   17   18 1    
    33   18   19 1    
    34   18   47 1    
    35   18   48 1    
    36   19   20 1    
    37   19   49 1    
    38   19   50 1    
    39   20   21 1    
    40   20   51 1    
    41   20   52 1    
    42   21   53 1    
    43   21   54 1    
    44   22   23 am   BACKBONE|DICT|INTERRES
    45   22   55 1    
    46   23   24 2    
    47   23   25 am   BACKBONE|DICT|INTERRES
    48   25   26 1    
    49   25   56 1    
    50   26   31 1    
    51   26   35 1    
    52   26   27 1    
    53   27   28 1    
    54   27   57 1    
    55   27   58 1    
    56   28   34 1    
    57   28   29 1    
    58   28   59 1    
    59   29   30 1    
    60   29   60 1    
    61   29   61 1    
    62   30   31 1    
    63   30   32 1    
    64   30   62 1    
    65   31   63 1    
    66   31   64 1    
    67   32   33 1    
    68   32   65 1    
    69   32   66 1    
    70   33   34 1    
    71   33   35 1    
    72   33   67 1    
    73   34   68 1    
    74   34   69 1    
    75   35   70 1    
    76   35   71 1    
@<TRIPOS>SUBSTRUCTURE
     1 UNK         1 GROUP             0       ****    0 ROOT    
