@<TRIPOS>MOLECULE
ZINC15859346_1122
58   62    1
SMALL
USER_CHARGES


@<TRIPOS>ATOM
      1 C1          9.1392   52.3627   14.8014 C.3       1 UNK         0.0000 
      2 C2          8.0106   53.0660   15.5768 C.3       1 UNK         0.0000 
      3 C3          8.3556   53.1834   17.0700 C.3       1 UNK         0.0000 
      4 C4          7.2781   53.9830   17.8234 C.3       1 UNK         0.0000 
      5 C5          5.5345   53.0297   16.1574 C.3       1 UNK         0.0000 
      6 C6          6.6918   52.2823   15.4804 C.3       1 UNK         0.0000 
      7 C7          4.7061   54.0269   18.3581 C.3       1 UNK         0.0000 
      8 H8          3.9187   53.2858   18.2105 H         1 UNK         0.0000 
      9 C9          4.2345   55.3342   17.6995 C.ar      1 UNK         0.0000 
     10 C10         3.0428   55.3267   16.9640 C.ar      1 UNK         0.0000 
     11 C11         2.5881   56.4896   16.3478 C.ar      1 UNK         0.0000 
     12 C12         3.3280   57.6646   16.4584 C.ar      1 UNK         0.0000 
     13 C13         4.5133   57.6873   17.1919 C.ar      1 UNK         0.0000 
     14 C14         4.9596   56.5280   17.8231 C.ar      1 UNK         0.0000 
     15 Br15        2.7054   59.2471   15.6034 Br        1 UNK         0.0000 
     16 C16         4.9283   54.1121   19.8650 C.2       1 UNK         0.0000 
     17 C17         4.2985   53.4932   20.9427 C.2       1 UNK         0.0000 
     18 C18         4.9157   54.0147   22.1339 C.ar      1 UNK         0.0000 
     19 C19         4.7774   53.8551   23.5254 C.ar      1 UNK         0.0000 
     20 C20         5.6803   54.4992   24.3750 C.ar      1 UNK         0.0000 
     21 C21         6.7045   55.2959   23.8657 C.ar      1 UNK         0.0000 
     22 C22         6.8568   55.4948   22.4932 C.ar      1 UNK         0.0000 
     23 C23         5.9338   54.8658   21.6561 C.ar      1 UNK         0.0000 
     24 O24         5.9050   54.9627   20.2993 O.3       1 UNK         0.0000 
     25 N25         3.3038   52.5340   20.8620 N.am      1 UNK         0.0000 
     26 C26         2.2103   52.4752   21.6500 C.2       1 UNK         0.0000 
     27 O27         1.9116   53.3004   22.5154 O.2       1 UNK         0.0000 
     28 C28         1.3846   51.3213   21.3965 C.2       1 UNK         0.0000 
     29 C29         1.4773   50.2736   20.4718 C.2       1 UNK         0.0000 
     30 C30         0.3944   49.4268   20.7114 C.2       1 UNK         0.0000 
     31 C31        -0.3198   49.9910   21.7567 C.2       1 UNK         0.0000 
     32 O32         0.2774   51.1400   22.1673 O.3       1 UNK         0.0000 
     33 H33         9.3437   51.3661   15.1973 H         1 UNK         0.0000 
     34 H34         8.8852   52.2529   13.7462 H         1 UNK         0.0000 
     35 H35        10.0672   52.9329   14.8514 H         1 UNK         0.0000 
     36 H36         7.8646   54.0650   15.1597 H         1 UNK         0.0000 
     37 H37         9.3247   53.6738   17.1870 H         1 UNK         0.0000 
     38 H38         8.5005   52.1965   17.5126 H         1 UNK         0.0000 
     39 H39         7.2002   55.0075   17.4590 H         1 UNK         0.0000 
     40 H40         7.5250   53.9724   18.8832 H         1 UNK         0.0000 
     41 H41         4.6417   52.4003   16.1541 H         1 UNK         0.0000 
     42 H42         5.3260   53.9874   15.6748 H         1 UNK         0.0000 
     43 H43         6.8160   51.2966   15.9151 H         1 UNK         0.0000 
     44 H44         6.4426   52.0941   14.4351 H         1 UNK         0.0000 
     45 H45         2.4589   54.4222   16.8642 H         1 UNK         0.0000 
     46 H46         1.6694   56.4812   15.7813 H         1 UNK         0.0000 
     47 H47         5.0727   58.6108   17.2778 H         1 UNK         0.0000 
     48 H48         5.8703   56.5716   18.4012 H         1 UNK         0.0000 
     49 H49         3.9906   53.2424   23.9383 H         1 UNK         0.0000 
     50 H50         5.5856   54.3683   25.4434 H         1 UNK         0.0000 
     51 H51         7.3988   55.7702   24.5433 H         1 UNK         0.0000 
     52 H52         7.6570   56.0982   22.0962 H         1 UNK         0.0000 
     53 H53         3.3413   51.8979   20.0794 H         1 UNK         0.0000 
     54 H54         2.2431   50.1267   19.7199 H         1 UNK         0.0000 
     55 H55         0.1579   48.5137   20.1834 H         1 UNK         0.0000 
     56 H56        -1.2166   49.7069   22.2893 H         1 UNK         0.0000 
     57 N57         5.8882   53.2964   17.6484 N.4       1 UNK         0.0000 
     58 H58         5.9557   52.3679   18.0633 H         1 UNK         0.0000 
@<TRIPOS>BOND
     1    1    2 1    
     2    1   33 1    
     3    1   34 1    
     4    1   35 1    
     5    2    6 1    
     6    2    3 1    
     7    2   36 1    
     8    3    4 1    
     9    3   37 1    
    10    3   38 1    
    11    4   39 1    
    12    4   40 1    
    13    4   57 1    
    14    5    6 1    
    15    5   41 1    
    16    5   42 1    
    17    5   57 1    
    18    6   43 1    
    19    6   44 1    
    20    7    8 1    
    21    7    9 1    
    22    7   16 1    
    23    7   57 1    
    24    9   14 ar   
    25    9   10 ar   
    26   10   11 ar   
    27   10   45 1    
    28   11   12 ar   
    29   11   46 1    
    30   12   13 ar   
    31   12   15 1    
    32   13   14 ar   
    33   13   47 1    
    34   14   48 1    
    35   16   24 1    
    36   16   17 2    
    37   17   18 1    
    38   17   25 1    
    39   18   23 ar   
    40   18   19 ar   
    41   19   20 ar   
    42   19   49 1    
    43   20   21 ar   
    44   20   50 1    
    45   21   22 ar   
    46   21   51 1    
    47   22   23 ar   
    48   22   52 1    
    49   23   24 1    
    50   25   26 am   BACKBONE|DICT|INTERRES
    51   25   53 1    
    52   26   27 2    
    53   26   28 1    
    54   28   32 1    
    55   28   29 2    
    56   29   30 1    
    57   29   54 1    
    58   30   31 2    
    59   30   55 1    
    60   31   32 1    
    61   31   56 1    
    62   57   58 1    
@<TRIPOS>SUBSTRUCTURE
     1 UNK         1 GROUP             0       ****    0 ROOT    
