@<TRIPOS>MOLECULE
ZINC39287402_2675
41   43    1
SMALL
USER_CHARGES


@<TRIPOS>ATOM
      1 C1         -2.9647   53.4487   23.6356 C.3       1 UNK         0.0000 
      2 C2         -2.3483   52.6392   24.7545 C.2       1 UNK         0.0000 
      3 C3         -1.1702   52.0177   24.8541 C.2       1 UNK         0.0000 
      4 C4          0.0219   51.7984   23.9241 C.3       1 UNK         0.0000 
      5 H5         -0.2918   52.0663   22.9131 H         1 UNK         0.0000 
      6 C6          0.2952   50.2917   23.9251 C.2       1 UNK         0.0000 
      7 C7         -0.2731   49.4479   24.8207 C.2       1 UNK         0.0000 
      8 O8         -1.1339   49.7841   25.8224 O.3       1 UNK         0.0000 
      9 C9         -1.2707   51.1876   26.1007 C.3       1 UNK         0.0000 
     10 H10        -0.5483   51.4256   26.8791 H         1 UNK         0.0000 
     11 N11        -2.5707   51.5121   26.5969 N.2       1 UNK         0.0000 
     12 N12        -3.1345   52.3421   25.8162 N.2       1 UNK         0.0000 
     13 N13        -0.0955   48.0968   24.8817 N.pl3     1 UNK         0.0000 
     14 C14         1.1728   49.7810   22.9197 C.1       1 UNK         0.0000 
     15 N15         1.8628   49.3807   22.0817 N.1       1 UNK         0.0000 
     16 C16         1.2708   52.6487   24.2098 C.ar      1 UNK         0.0000 
     17 C17         1.6946   52.9393   25.5129 C.ar      1 UNK         0.0000 
     18 C18         2.8534   53.6968   25.7566 C.ar      1 UNK         0.0000 
     19 C19         3.6043   54.1562   24.6665 C.ar      1 UNK         0.0000 
     20 C20         3.1864   53.8759   23.3604 C.ar      1 UNK         0.0000 
     21 C21         2.0302   53.1306   23.1388 C.ar      1 UNK         0.0000 
     22 Br22        4.1861   54.4952   21.8614 Br        1 UNK         0.0000 
     23 O23         4.7150   54.9418   24.8818 O.3       1 UNK         0.0000 
     24 C24         5.9792   54.2860   24.8858 C.3       1 UNK         0.0000 
     25 C25         6.5462   54.1696   26.2408 C.1       1 UNK         0.0000 
     26 C26         6.9932   54.0980   27.3753 C.1       1 UNK         0.0000 
     27 O27         3.3060   54.0272   27.0215 O.3       1 UNK         0.0000 
     28 C28         2.6093   53.5482   28.1655 C.3       1 UNK         0.0000 
     29 H29        -4.0532   53.3891   23.6760 H         1 UNK         0.0000 
     30 H30        -2.6778   54.4969   23.6817 H         1 UNK         0.0000 
     31 H31        -2.6342   53.0565   22.6743 H         1 UNK         0.0000 
     32 H32         0.6299   47.6967   24.3066 H         1 UNK         0.0000 
     33 H33        -0.2323   47.6372   25.7762 H         1 UNK         0.0000 
     34 H34         1.1225   52.5732   26.3440 H         1 UNK         0.0000 
     35 H35         1.7345   52.9191   22.1207 H         1 UNK         0.0000 
     36 H36         5.9445   53.2967   24.4335 H         1 UNK         0.0000 
     37 H37         6.6748   54.8758   24.2881 H         1 UNK         0.0000 
     38 H38         7.3632   54.0528   28.3763 H         1 UNK         0.0000 
     39 H39         3.1219   53.8892   29.0648 H         1 UNK         0.0000 
     40 H40         1.5885   53.9316   28.2021 H         1 UNK         0.0000 
     41 H41         2.5866   52.4574   28.1926 H         1 UNK         0.0000 
@<TRIPOS>BOND
     1    1    2 1    
     2    1   29 1    
     3    1   30 1    
     4    1   31 1    
     5    2   12 1    
     6    2    3 2    
     7    3    9 1    
     8    3    4 1    
     9    4    5 1    
    10    4    6 1    
    11    4   16 1    
    12    6    7 2    
    13    6   14 1    
    14    7    8 1    
    15    7   13 1    
    16    8    9 1    
    17    9   10 1    
    18    9   11 1    
    19   11   12 2    
    20   13   32 1    
    21   13   33 1    
    22   14   15 3    
    23   16   21 ar   
    24   16   17 ar   
    25   17   18 ar   
    26   17   34 1    
    27   18   19 ar   
    28   18   27 1    
    29   19   20 ar   
    30   19   23 1    
    31   20   21 ar   
    32   20   22 1    
    33   21   35 1    
    34   23   24 1    
    35   24   25 1    
    36   24   36 1    
    37   24   37 1    
    38   25   26 3    
    39   26   38 1    
    40   27   28 1    
    41   28   39 1    
    42   28   40 1    
    43   28   41 1    
@<TRIPOS>SUBSTRUCTURE
     1 UNK         1 GROUP             0       ****    0 ROOT    
