ZINC39665628_381
                    3D
 Schrodinger Suite 2024-2.
 75 78  0  0  1  0            999 V2000
    1.9488   52.8608   18.7869 C   0  0  0  0  0  0
    2.8888   51.8297   19.4557 C   0  0  2  0  0  0
    3.5043   51.3725   18.6819 H   0  0  0  0  0  0
    2.0864   50.7001   20.1497 C   0  0  0  0  0  0
    1.5503   51.1238   21.4478 N   0  0  0  0  0  0
    0.3229   51.6073   21.7041 C   0  0  0  0  0  0
   -0.5893   51.5817   20.8786 O   0  0  0  0  0  0
    0.0431   52.1882   23.1129 C   0  0  2  0  0  0
   -0.7830   52.8886   22.9874 H   0  0  0  0  0  0
    1.2366   53.0516   23.5870 C   0  0  0  0  0  0
    1.1808   52.9512   25.0488 N   0  0  0  0  0  0
    0.0967   52.0610   25.4759 C   0  0  0  0  0  0
   -0.2400   51.1758   24.2514 C   0  0  0  0  0  0
   -1.6916   50.6423   24.2385 C   0  0  0  0  0  0
   -2.0127   49.8725   25.5363 C   0  0  0  0  0  0
   -1.0266   48.6907   25.6817 N   0  3  0  0  0  0
    0.4720   49.0401   25.4991 C   0  0  0  0  0  0
    0.6439   49.8922   24.2215 C   0  0  0  0  0  0
    2.1628   53.4910   25.8300 C   0  0  0  0  0  0
    3.0925   54.1198   25.3152 O   0  0  0  0  0  0
    2.1459   53.2921   27.3427 C   0  0  0  0  0  0
    0.9373   53.2748   28.0592 C   0  0  0  0  0  0
    0.8966   52.9677   29.4124 C   0  0  0  0  0  0
    2.0755   52.6788   30.1022 C   0  0  0  0  0  0
    3.2895   52.8175   29.4364 C   0  0  0  0  0  0
    3.3485   53.1526   28.0729 C   0  0  0  0  0  0
    4.5583   53.2968   27.4175 O   0  0  0  0  0  0
    5.7098   53.6919   28.1572 C   0  0  0  0  0  0
    2.1288   52.2461   31.4109 O   0  0  0  0  0  0
    0.9252   52.1719   32.1745 C   0  0  0  0  0  0
    3.7404   52.3736   20.4796 O   0  0  0  0  0  0
    4.6051   53.4235   20.2531 C   0  0  0  0  0  0
    5.0697   54.0891   21.3874 C   0  0  0  0  0  0
    5.9248   55.1800   21.2641 C   0  0  0  0  0  0
    6.3123   55.6341   20.0064 C   0  0  0  0  0  0
    5.8828   54.9377   18.8652 C   0  0  0  0  0  0
    5.0466   53.8301   18.9895 C   0  0  0  0  0  0
    7.1044   56.7652   19.9816 O   0  0  0  0  0  0
    7.4624   57.3288   18.7213 C   0  0  0  0  0  0
    1.3500   52.3820   18.0100 H   0  0  0  0  0  0
    1.2548   53.2952   19.5016 H   0  0  0  0  0  0
    2.4800   53.6869   18.3178 H   0  0  0  0  0  0
    1.3023   50.3180   19.4933 H   0  0  0  0  0  0
    2.7550   49.8582   20.3359 H   0  0  0  0  0  0
    2.2310   51.1552   22.1909 H   0  0  0  0  0  0
    2.1929   52.6095   23.3029 H   0  0  0  0  0  0
    1.1622   54.0825   23.2339 H   0  0  0  0  0  0
   -0.7805   52.6897   25.6332 H   0  0  0  0  0  0
    0.2601   51.4915   26.3868 H   0  0  0  0  0  0
   -2.3826   51.4863   24.1984 H   0  0  0  0  0  0
   -1.9003   50.0572   23.3405 H   0  0  0  0  0  0
   -1.8989   50.4703   26.4421 H   0  0  0  0  0  0
   -3.0132   49.4374   25.5362 H   0  0  0  0  0  0
   -1.1610   48.3111   26.6239 H   0  0  0  0  0  0
    0.7919   49.5271   26.4195 H   0  0  0  0  0  0
    1.0094   48.0963   25.4347 H   0  0  0  0  0  0
    0.4644   49.2897   23.3284 H   0  0  0  0  0  0
    1.6945   50.1752   24.1625 H   0  0  0  0  0  0
   -0.0080   53.4806   27.5863 H   0  0  0  0  0  0
   -0.0674   52.9294   29.8956 H   0  0  0  0  0  0
    4.1925   52.6279   29.9946 H   0  0  0  0  0  0
    6.5202   53.9272   27.4654 H   0  0  0  0  0  0
    5.5176   54.5858   28.7546 H   0  0  0  0  0  0
    6.0611   52.8967   28.8114 H   0  0  0  0  0  0
    1.0944   51.5614   33.0596 H   0  0  0  0  0  0
    0.6046   53.1634   32.4969 H   0  0  0  0  0  0
    0.0975   51.6964   31.6543 H   0  0  0  0  0  0
    4.7523   53.7641   22.3674 H   0  0  0  0  0  0
    6.2709   55.6947   22.1488 H   0  0  0  0  0  0
    6.1851   55.2413   17.8760 H   0  0  0  0  0  0
    4.7419   53.3006   18.0999 H   0  0  0  0  0  0
    8.0564   58.2288   18.8804 H   0  0  0  0  0  0
    6.5784   57.6191   18.1465 H   0  0  0  0  0  0
    8.0674   56.6383   18.1299 H   0  0  0  0  0  0
   -1.2800   47.9583   25.0348 H   0  0  0  0  0  0
  1  2  1  0  0  0
  1 40  1  0  0  0
  1 41  1  0  0  0
  1 42  1  0  0  0
  2  3  1  0  0  0
  2  4  1  0  0  0
  2 31  1  0  0  0
  4  5  1  0  0  0
  4 43  1  0  0  0
  4 44  1  0  0  0
  5  6  1  0  0  0
  5 45  1  0  0  0
  6  7  2  0  0  0
  6  8  1  0  0  0
  8  9  1  0  0  0
  8 13  1  0  0  0
  8 10  1  0  0  0
 10 11  1  0  0  0
 10 46  1  0  0  0
 10 47  1  0  0  0
 11 12  1  0  0  0
 11 19  1  0  0  0
 12 13  1  0  0  0
 12 48  1  0  0  0
 12 49  1  0  0  0
 13 18  1  0  0  0
 13 14  1  0  0  0
 14 15  1  0  0  0
 14 50  1  0  0  0
 14 51  1  0  0  0
 15 16  1  0  0  0
 15 52  1  0  0  0
 15 53  1  0  0  0
 16 17  1  0  0  0
 16 54  1  0  0  0
 16 75  1  0  0  0
 17 18  1  0  0  0
 17 55  1  0  0  0
 17 56  1  0  0  0
 18 57  1  0  0  0
 18 58  1  0  0  0
 19 20  2  0  0  0
 19 21  1  0  0  0
 21 26  2  0  0  0
 21 22  1  0  0  0
 22 23  2  0  0  0
 22 59  1  0  0  0
 23 24  1  0  0  0
 23 60  1  0  0  0
 24 25  2  0  0  0
 24 29  1  0  0  0
 25 26  1  0  0  0
 25 61  1  0  0  0
 26 27  1  0  0  0
 27 28  1  0  0  0
 28 62  1  0  0  0
 28 63  1  0  0  0
 28 64  1  0  0  0
 29 30  1  0  0  0
 30 65  1  0  0  0
 30 66  1  0  0  0
 30 67  1  0  0  0
 31 32  1  0  0  0
 32 37  2  0  0  0
 32 33  1  0  0  0
 33 34  2  0  0  0
 33 68  1  0  0  0
 34 35  1  0  0  0
 34 69  1  0  0  0
 35 36  2  0  0  0
 35 38  1  0  0  0
 36 37  1  0  0  0
 36 70  1  0  0  0
 37 71  1  0  0  0
 38 39  1  0  0  0
 39 72  1  0  0  0
 39 73  1  0  0  0
 39 74  1  0  0  0
M  CHG  1  16   1
M  END
> <i_i_glide_confnum>
282

> <i_i_glide_lignum>
382

> <i_i_glide_posenum>
240

> <i_i_glide_rotatable_bonds>
11

> <i_m_Source_File_Index>
3251

> <b_m_subgroup_collapsed>
0

> <r_i_docking_score>
-6.33415

> <r_i_glide_ecoul>
-10.2294

> <r_i_glide_eff_state_penalty>
0

> <r_i_glide_einternal>
21.108

> <r_i_glide_emodel>
-66.0446

> <r_i_glide_energy>
-53.9884

> <r_i_glide_erotb>
0.624127

> <r_i_glide_esite>
-0.1

> <r_i_glide_evdw>
-43.759

> <r_i_glide_gscore>
-6.33415

> <r_i_glide_hbond>
-0.611062

> <r_i_glide_ligand_efficiency>
-0.171193

> <r_i_glide_ligand_efficiency_ln>
-1.37373

> <r_i_glide_ligand_efficiency_sa>
-0.570454

> <r_i_glide_lipo>
-2.06439

> <r_i_glide_metal>
0

> <r_i_glide_rewards>
-0.460461

> <s_i_glide_gridfile>
wee1_glide-grid

> <s_m_Source_File>
wee1_decoys_glide_SP.sdf

> <s_m_Source_Path>
/Users/zhangxujun/Desktop

> <s_m_entry_id>
3526

> <s_m_entry_name>
wee1_decoys_glide_SP.3251

> <s_m_subgroup_title>
wee1_decoys_glide_SP

> <s_m_subgroupid>
wee1_decoys_glide_SP


$$$$
