ZINC64589709_2025
                    3D
 Schrodinger Suite 2024-2.
 61 63  0  0  1  0            999 V2000
   -1.3456   51.4525   29.8884 C   0  0  0  0  0  0
   -0.1858   52.2234   29.3366 C   0  0  0  0  0  0
    0.4505   53.1924   30.1058 C   0  0  0  0  0  0
    1.6505   53.7290   29.6560 C   0  0  0  0  0  0
    2.1994   53.2802   28.4435 C   0  0  0  0  0  0
    1.5017   52.3815   27.6418 C   0  0  0  0  0  0
    0.3082   51.8451   28.0918 C   0  0  0  0  0  0
    3.4479   53.6502   27.9458 N   0  0  0  0  0  0
    4.4357   54.3544   28.5207 C   0  0  0  0  0  0
    4.4112   54.7611   29.6794 O   0  0  0  0  0  0
    5.6843   54.6525   27.6713 C   0  0  0  0  0  0
    5.5857   54.2748   26.2440 N   0  0  0  0  0  0
    6.8781   54.5470   25.6186 C   0  0  0  0  0  0
    6.9283   53.9724   24.1876 C   0  0  0  0  0  0
    5.8611   54.4971   23.3299 N   0  0  0  0  0  0
    4.5521   54.4201   23.9954 C   0  0  0  0  0  0
    4.5879   54.9950   25.4364 C   0  0  0  0  0  0
    6.0482   54.8617   22.0048 C   0  0  0  0  0  0
    7.1558   55.6248   21.6404 C   0  0  0  0  0  0
    7.3123   56.0656   20.3332 C   0  0  0  0  0  0
    6.3595   55.7640   19.3489 C   0  0  0  0  0  0
    5.2820   54.8927   19.6698 C   0  0  0  0  0  0
    5.1410   54.4840   21.0107 C   0  0  0  0  0  0
    4.2804   54.3899   18.6507 C   0  0  0  0  0  0
    3.5049   53.4714   19.0005 O   0  0  0  0  0  0
    4.2705   54.9038   17.5063 O   0  5  0  0  0  0
    6.4503   56.3077   18.0482 N   0  0  0  0  0  0
    7.1631   57.3526   17.5745 C   0  0  0  0  0  0
    7.9152   58.0578   18.2504 O   0  0  0  0  0  0
    6.9700   57.6689   16.0770 C   0  0  0  0  0  0
    6.4422   59.1049   15.8665 C   0  0  0  0  0  0
    8.2730   57.4279   15.2867 C   0  0  0  0  0  0
   -1.6943   51.6967   30.8817 H   0  0  0  0  0  0
   -2.1792   51.3593   29.1914 H   0  0  0  0  0  0
   -0.8957   50.4967   30.0374 H   0  0  0  0  0  0
    0.0550   53.4755   31.0714 H   0  0  0  0  0  0
    2.1417   54.4565   30.2798 H   0  0  0  0  0  0
    1.8993   52.0569   26.6916 H   0  0  0  0  0  0
   -0.1974   51.0889   27.5068 H   0  0  0  0  0  0
    3.6655   53.3206   27.0157 H   0  0  0  0  0  0
    6.4913   54.0833   28.1374 H   0  0  0  0  0  0
    5.9387   55.6972   27.7762 H   0  0  0  0  0  0
    7.6344   54.0938   26.2452 H   0  0  0  0  0  0
    7.0926   55.6178   25.5956 H   0  0  0  0  0  0
    6.7983   52.8972   24.2240 H   0  0  0  0  0  0
    7.9042   54.0977   23.7341 H   0  0  0  0  0  0
    3.7948   54.9340   23.4037 H   0  0  0  0  0  0
    4.2395   53.3753   24.0208 H   0  0  0  0  0  0
    4.8197   56.0609   25.4255 H   0  0  0  0  0  0
    3.5850   54.8966   25.8450 H   0  0  0  0  0  0
    7.8933   55.9103   22.3769 H   0  0  0  0  0  0
    8.1936   56.6415   20.1037 H   0  0  0  0  0  0
    4.3071   53.8551   21.2909 H   0  0  0  0  0  0
    5.7595   55.8935   17.4241 H   0  0  0  0  0  0
    6.2149   56.9898   15.6733 H   0  0  0  0  0  0
    5.5085   59.2784   16.4059 H   0  0  0  0  0  0
    6.2442   59.3054   14.8134 H   0  0  0  0  0  0
    7.1542   59.8552   16.2149 H   0  0  0  0  0  0
    8.6208   56.3991   15.3931 H   0  0  0  0  0  0
    8.1273   57.6112   14.2220 H   0  0  0  0  0  0
    9.0782   58.0812   15.6269 H   0  0  0  0  0  0
  1  2  1  0  0  0
  1 33  1  0  0  0
  1 34  1  0  0  0
  1 35  1  0  0  0
  2  7  2  0  0  0
  2  3  1  0  0  0
  3  4  2  0  0  0
  3 36  1  0  0  0
  4  5  1  0  0  0
  4 37  1  0  0  0
  5  6  2  0  0  0
  5  8  1  0  0  0
  6  7  1  0  0  0
  6 38  1  0  0  0
  7 39  1  0  0  0
  8  9  1  0  0  0
  8 40  1  0  0  0
  9 10  2  0  0  0
  9 11  1  0  0  0
 11 12  1  0  0  0
 11 41  1  0  0  0
 11 42  1  0  0  0
 12 17  1  0  0  0
 12 13  1  0  0  0
 13 14  1  0  0  0
 13 43  1  0  0  0
 13 44  1  0  0  0
 14 15  1  0  0  0
 14 45  1  0  0  0
 14 46  1  0  0  0
 15 16  1  0  0  0
 15 18  1  0  0  0
 16 17  1  0  0  0
 16 47  1  0  0  0
 16 48  1  0  0  0
 17 49  1  0  0  0
 17 50  1  0  0  0
 18 23  2  0  0  0
 18 19  1  0  0  0
 19 20  2  0  0  0
 19 51  1  0  0  0
 20 21  1  0  0  0
 20 52  1  0  0  0
 21 22  2  0  0  0
 21 27  1  0  0  0
 22 23  1  0  0  0
 22 24  1  0  0  0
 23 53  1  0  0  0
 24 25  2  0  0  0
 24 26  1  0  0  0
 27 28  1  0  0  0
 27 54  1  0  0  0
 28 29  2  0  0  0
 28 30  1  0  0  0
 30 31  1  0  0  0
 30 32  1  0  0  0
 30 55  1  0  0  0
 31 56  1  0  0  0
 31 57  1  0  0  0
 31 58  1  0  0  0
 32 59  1  0  0  0
 32 60  1  0  0  0
 32 61  1  0  0  0
M  CHG  1  26  -1
M  END
> <i_i_glide_confnum>
152

> <i_i_glide_lignum>
2026

> <i_i_glide_posenum>
389

> <i_i_glide_rotatable_bonds>
9

> <i_m_Source_File_Index>
1289

> <b_m_subgroup_collapsed>
0

> <r_i_docking_score>
-4.91798

> <r_i_glide_ecoul>
-1.25119

> <r_i_glide_eff_state_penalty>
0

> <r_i_glide_einternal>
2.88436

> <r_i_glide_emodel>
-53.7944

> <r_i_glide_energy>
-38.6264

> <r_i_glide_erotb>
0.729268

> <r_i_glide_esite>
-0.0125968

> <r_i_glide_evdw>
-37.3752

> <r_i_glide_gscore>
-4.91798

> <r_i_glide_hbond>
0

> <r_i_glide_ligand_efficiency>
-0.153687

> <r_i_glide_ligand_efficiency_ln>
-1.10127

> <r_i_glide_ligand_efficiency_sa>
-0.487926

> <r_i_glide_lipo>
-2.43982

> <r_i_glide_metal>
0

> <r_i_glide_rewards>
-1.13839

> <s_i_glide_gridfile>
wee1_glide-grid

> <s_m_Source_File>
wee1_decoys_glide_SP.sdf

> <s_m_Source_Path>
/Users/zhangxujun/Desktop

> <s_m_entry_id>
1564

> <s_m_entry_name>
wee1_decoys_glide_SP.1289

> <s_m_subgroup_title>
wee1_decoys_glide_SP

> <s_m_subgroupid>
wee1_decoys_glide_SP


$$$$
