@<TRIPOS>MOLECULE
ZINC00647518_579
51   54    1
SMALL
USER_CHARGES


@<TRIPOS>ATOM
      1 C1          6.0945   54.1387   26.3260 C.ar      1 UNK         0.0000 
      2 C2          5.9010   54.2347   27.7043 C.ar      1 UNK         0.0000 
      3 C3          4.6071   54.3191   28.2105 C.ar      1 UNK         0.0000 
      4 C4          3.5101   54.3062   27.3588 C.ar      1 UNK         0.0000 
      5 C5          3.7033   54.2137   25.9870 C.ar      1 UNK         0.0000 
      6 C6          4.9973   54.1385   25.4494 C.ar      1 UNK         0.0000 
      7 C7          5.2354   54.0016   23.9320 C.3       1 UNK         0.0000 
      8 H8          5.5831   52.9762   23.8339 H         1 UNK         0.0000 
      9 C9          3.9448   54.1207   23.0693 C.3       1 UNK         0.0000 
     10 C10         4.1486   53.9935   21.5423 C.3       1 UNK         0.0000 
     11 H11         3.3267   54.4963   21.0402 H         1 UNK         0.0000 
     12 N12         5.3663   54.7308   21.2094 N.pl3     1 UNK         0.0000 
     13 C13         6.4012   55.0639   22.0602 C.ar      1 UNK         0.0000 
     14 C14         7.3355   55.6926   21.2600 C.ar      1 UNK         0.0000 
     15 C15         6.8175   55.6842   19.9533 C.ar      1 UNK         0.0000 
     16 N16         5.6388   55.0914   19.9466 N.2       1 UNK         0.0000 
     17 C17         7.4586   56.2704   18.7942 C.2       1 UNK         0.0000 
     18 O18         8.5157   56.8964   18.8813 O.2       1 UNK         0.0000 
     19 N19         6.7962   56.0954   17.6373 N.am      1 UNK         0.0000 
     20 C20         7.1534   56.6938   16.3505 C.3       1 UNK         0.0000 
     21 C21         6.5264   55.8883   15.1871 C.3       1 UNK         0.0000 
     22 C22         4.9777   55.9153   15.2168 C.3       1 UNK         0.0000 
     23 C23         4.4366   57.3652   15.2209 C.3       1 UNK         0.0000 
     24 C24         5.1064   58.2531   16.2950 C.3       1 UNK         0.0000 
     25 C25         6.6488   58.1545   16.2298 C.3       1 UNK         0.0000 
     26 N26         6.3219   54.8491   23.4186 N.pl3     1 UNK         0.0000 
     27 C27         4.1270   52.5380   21.0228 C.3       1 UNK         0.0000 
     28 F28         2.9814   51.9282   21.3356 F         1 UNK         0.0000 
     29 F29         4.2430   52.4967   19.6966 F         1 UNK         0.0000 
     30 F30         5.1043   51.8059   21.5500 F         1 UNK         0.0000 
     31 Br31        4.3036   54.4494   30.0800 Br        1 UNK         0.0000 
     32 H32         7.0994   54.0567   25.9458 H         1 UNK         0.0000 
     33 H33         6.7497   54.2465   28.3734 H         1 UNK         0.0000 
     34 H34         2.5086   54.3691   27.7591 H         1 UNK         0.0000 
     35 H35         2.8256   54.2070   25.3665 H         1 UNK         0.0000 
     36 H36         3.4527   55.0726   23.2672 H         1 UNK         0.0000 
     37 H37         3.2170   53.3714   23.3797 H         1 UNK         0.0000 
     38 H38         8.2830   56.0998   21.5789 H         1 UNK         0.0000 
     39 H39         5.8693   55.6963   17.6920 H         1 UNK         0.0000 
     40 H40         8.2404   56.6593   16.2474 H         1 UNK         0.0000 
     41 H41         6.8773   54.8555   15.2178 H         1 UNK         0.0000 
     42 H42         6.8793   56.2893   14.2361 H         1 UNK         0.0000 
     43 H43         4.6128   55.3846   16.0992 H         1 UNK         0.0000 
     44 H44         4.5803   55.3700   14.3600 H         1 UNK         0.0000 
     45 H45         3.3538   57.3606   15.3605 H         1 UNK         0.0000 
     46 H46         4.6088   57.8091   14.2388 H         1 UNK         0.0000 
     47 H47         4.7573   57.9584   17.2863 H         1 UNK         0.0000 
     48 H48         4.7964   59.2923   16.1666 H         1 UNK         0.0000 
     49 H49         7.0050   58.5904   15.2948 H         1 UNK         0.0000 
     50 H50         7.0848   58.7669   17.0219 H         1 UNK         0.0000 
     51 H51         7.1849   54.7131   23.9257 H         1 UNK         0.0000 
@<TRIPOS>BOND
     1    1    6 ar   
     2    1    2 ar   
     3    1   32 1    
     4    2    3 ar   
     5    2   33 1    
     6    3    4 ar   
     7    3   31 1    
     8    4    5 ar   
     9    4   34 1    
    10    5    6 ar   
    11    5   35 1    
    12    6    7 1    
    13    7    8 1    
    14    7   26 1    
    15    7    9 1    
    16    9   10 1    
    17    9   36 1    
    18    9   37 1    
    19   10   11 1    
    20   10   12 1    
    21   10   27 1    
    22   12   16 ar   
    23   12   13 ar   
    24   13   14 ar   
    25   13   26 1    
    26   14   15 ar   
    27   14   38 1    
    28   15   16 ar   
    29   15   17 1    
    30   17   18 2    
    31   17   19 am   BACKBONE|DICT|INTERRES
    32   19   20 1    
    33   19   39 1    
    34   20   25 1    
    35   20   21 1    
    36   20   40 1    
    37   21   22 1    
    38   21   41 1    
    39   21   42 1    
    40   22   23 1    
    41   22   43 1    
    42   22   44 1    
    43   23   24 1    
    44   23   45 1    
    45   23   46 1    
    46   24   25 1    
    47   24   47 1    
    48   24   48 1    
    49   25   49 1    
    50   25   50 1    
    51   26   51 1    
    52   27   28 1    
    53   27   29 1    
    54   27   30 1    
@<TRIPOS>SUBSTRUCTURE
     1 UNK         1 GROUP             0       ****    0 ROOT    
