ZINC13060272_5780
                    3D
 Schrodinger Suite 2024-2.
 51 53  0  0  1  0            999 V2000
    3.3185   54.8412   28.4360 C   0  0  0  0  0  0
    3.6428   54.0647   27.1489 C   0  0  0  0  0  0
    2.4667   53.7315   26.4137 O   0  0  0  0  0  0
    1.6226   52.7360   26.8032 C   0  0  0  0  0  0
    1.8131   52.0833   27.8307 O   0  0  0  0  0  0
    0.4965   52.4964   25.8517 C   0  0  0  0  0  0
   -0.4639   51.5404   26.0148 C   0  0  0  0  0  0
   -1.4367   51.3248   25.0292 N   0  0  0  0  0  0
   -1.6708   52.2246   24.0093 C   0  0  0  0  0  0
   -2.5058   52.1466   23.1061 O   0  0  0  0  0  0
   -0.8477   53.2948   23.9893 N   0  0  0  0  0  0
    0.5211   53.2971   24.5307 C   0  0  2  0  0  0
    0.7837   54.3380   24.7204 H   0  0  0  0  0  0
    1.5709   52.8600   23.5084 C   0  0  0  0  0  0
    2.5018   53.7832   23.0241 C   0  0  0  0  0  0
    3.4378   53.4074   22.0673 C   0  0  0  0  0  0
    3.4780   52.0892   21.5855 C   0  0  0  0  0  0
    2.5475   51.1639   22.0792 C   0  0  0  0  0  0
    1.6074   51.5465   23.0338 C   0  0  0  0  0  0
    2.5199   49.3616   21.4602 Br  0  0  0  0  0  0
    4.3902   51.6485   20.6472 O   0  0  0  0  0  0
    5.1585   52.6080   19.9271 C   0  0  0  0  0  0
   -2.1475   50.0905   24.9859 C   0  0  0  0  0  0
   -3.5482   50.0848   25.0062 C   0  0  0  0  0  0
   -4.2462   48.8826   25.0195 C   0  0  0  0  0  0
   -3.5644   47.6586   25.0312 C   0  0  0  0  0  0
   -2.1611   47.6687   25.0007 C   0  0  0  0  0  0
   -1.4575   48.8715   24.9690 C   0  0  0  0  0  0
   -4.3319   46.3687   25.0837 C   0  0  0  0  0  0
   -5.5705   46.4104   24.9096 O   0  0  0  0  0  0
   -0.6724   50.7553   27.3192 C   0  0  0  0  0  0
    4.2282   55.2135   28.9069 H   0  0  0  0  0  0
    2.6732   55.6956   28.2272 H   0  0  0  0  0  0
    2.8072   54.2082   29.1608 H   0  0  0  0  0  0
    4.2170   53.1637   27.3747 H   0  0  0  0  0  0
    4.2773   54.6797   26.5083 H   0  0  0  0  0  0
   -1.0041   53.8860   23.1902 H   0  0  0  0  0  0
    2.5005   54.8048   23.3731 H   0  0  0  0  0  0
    4.1213   54.1624   21.7136 H   0  0  0  0  0  0
    0.9000   50.8154   23.3946 H   0  0  0  0  0  0
    5.8881   52.1003   19.2982 H   0  0  0  0  0  0
    4.5207   53.2135   19.2827 H   0  0  0  0  0  0
    5.7235   53.2674   20.5831 H   0  0  0  0  0  0
   -4.1002   51.0137   25.0135 H   0  0  0  0  0  0
   -5.3275   48.9126   25.0359 H   0  0  0  0  0  0
   -1.6041   46.7442   25.0154 H   0  0  0  0  0  0
   -0.3766   48.8483   24.9664 H   0  0  0  0  0  0
   -0.3826   51.3004   28.2144 H   0  0  0  0  0  0
   -1.7188   50.5067   27.4923 H   0  0  0  0  0  0
   -0.1067   49.8249   27.2817 H   0  0  0  0  0  0
   -3.6958   45.3047   25.2812 O   0  5  0  0  0  0
  1  2  1  0  0  0
  1 32  1  0  0  0
  1 33  1  0  0  0
  1 34  1  0  0  0
  2  3  1  0  0  0
  2 35  1  0  0  0
  2 36  1  0  0  0
  3  4  1  0  0  0
  4  5  2  0  0  0
  4  6  1  0  0  0
  6 12  1  0  0  0
  6  7  2  0  0  0
  7  8  1  0  0  0
  7 31  1  0  0  0
  8  9  1  0  0  0
  8 23  1  0  0  0
  9 10  2  0  0  0
  9 11  1  0  0  0
 11 12  1  0  0  0
 11 37  1  0  0  0
 12 13  1  0  0  0
 12 14  1  0  0  0
 14 19  2  0  0  0
 14 15  1  0  0  0
 15 16  2  0  0  0
 15 38  1  0  0  0
 16 17  1  0  0  0
 16 39  1  0  0  0
 17 18  2  0  0  0
 17 21  1  0  0  0
 18 19  1  0  0  0
 18 20  1  0  0  0
 19 40  1  0  0  0
 21 22  1  0  0  0
 22 41  1  0  0  0
 22 42  1  0  0  0
 22 43  1  0  0  0
 23 28  2  0  0  0
 23 24  1  0  0  0
 24 25  2  0  0  0
 24 44  1  0  0  0
 25 26  1  0  0  0
 25 45  1  0  0  0
 26 27  2  0  0  0
 26 29  1  0  0  0
 27 28  1  0  0  0
 27 46  1  0  0  0
 28 47  1  0  0  0
 29 30  2  0  0  0
 29 51  1  0  0  0
 31 48  1  0  0  0
 31 49  1  0  0  0
 31 50  1  0  0  0
M  CHG  1  51  -1
M  END
> <i_i_glide_confnum>
6

> <i_i_glide_lignum>
5781

> <i_i_glide_posenum>
236

> <i_i_glide_rotatable_bonds>
7

> <i_m_Source_File_Index>
2777

> <b_m_subgroup_collapsed>
0

> <r_i_docking_score>
-4.25547

> <r_i_glide_ecoul>
-6.07516

> <r_i_glide_eff_state_penalty>
0

> <r_i_glide_einternal>
1.3515

> <r_i_glide_emodel>
-49.4072

> <r_i_glide_energy>
-37.2807

> <r_i_glide_erotb>
0.341136

> <r_i_glide_esite>
-0.0494797

> <r_i_glide_evdw>
-31.2056

> <r_i_glide_gscore>
-4.25547

> <r_i_glide_hbond>
-0.179456

> <r_i_glide_ligand_efficiency>
-0.137273

> <r_i_glide_ligand_efficiency_ln>
-0.95974

> <r_i_glide_ligand_efficiency_sa>
-0.431228

> <r_i_glide_lipo>
-1.53135

> <r_i_glide_metal>
0

> <r_i_glide_rewards>
-0.364771

> <s_i_glide_gridfile>
wee1_glide-grid

> <s_m_Source_File>
wee1_decoys_glide_SP.sdf

> <s_m_Source_Path>
/Users/zhangxujun/Desktop

> <s_m_entry_id>
3052

> <s_m_entry_name>
wee1_decoys_glide_SP.2777

> <s_m_subgroup_title>
wee1_decoys_glide_SP

> <s_m_subgroupid>
wee1_decoys_glide_SP


$$$$
