@<TRIPOS>MOLECULE
ZINC39595362_778
63   66    1
SMALL
USER_CHARGES


@<TRIPOS>ATOM
      1 C1         -1.1524   52.4967   26.0229 C.3       1 UNK         0.0000 
      2 C2          0.3348   52.0797   26.1183 C.3       1 UNK         0.0000 
      3 H3          0.4123   51.1128   26.6182 H         1 UNK         0.0000 
      4 C4          0.9778   51.9229   24.7210 C.3       1 UNK         0.0000 
      5 N5          0.6039   50.6587   24.0844 N.am      1 UNK         0.0000 
      6 C6         -0.4776   50.4706   23.3087 C.2       1 UNK         0.0000 
      7 O7         -1.2043   51.3905   22.9309 O.2       1 UNK         0.0000 
      8 C8         -0.8192   49.0019   22.9744 C.3       1 UNK         0.0000 
      9 H9         -0.1305   48.3882   23.5526 H         1 UNK         0.0000 
     10 C10        -0.5465   48.6815   21.4990 C.3       1 UNK         0.0000 
     11 N11        -1.8656   48.5540   20.8847 N.am      1 UNK         0.0000 
     12 C12        -2.9499   48.7822   21.8438 C.3       1 UNK         0.0000 
     13 C13        -2.3035   48.5843   23.2377 C.3       1 UNK         0.0000 
     14 C14        -2.4044   47.0751   23.6251 C.3       1 UNK         0.0000 
     15 C15        -1.7878   46.7780   25.0205 C.3       1 UNK         0.0000 
     16 N16        -2.4969   47.6479   26.0816 N.4       1 UNK         0.0000 
     17 C17        -2.5304   49.1438   25.7267 C.3       1 UNK         0.0000 
     18 C18        -3.1467   49.3092   24.3258 C.3       1 UNK         0.0000 
     19 C19        -2.0766   48.0073   19.6613 C.2       1 UNK         0.0000 
     20 O20        -3.2010   47.7753   19.2152 O.2       1 UNK         0.0000 
     21 C21        -0.8648   47.6136   18.8488 C.ar      1 UNK         0.0000 
     22 C22        -0.0384   48.6092   18.3049 C.ar      1 UNK         0.0000 
     23 C23         1.1062   48.2667   17.5830 C.ar      1 UNK         0.0000 
     24 C24         1.4336   46.9263   17.3904 C.ar      1 UNK         0.0000 
     25 C25         0.6264   45.9299   17.9354 C.ar      1 UNK         0.0000 
     26 C26        -0.5129   46.2611   18.6716 C.ar      1 UNK         0.0000 
     27 Cl27       -1.4349   44.9641   19.3617 Cl        1 UNK         0.0000 
     28 Cl28        2.8376   46.4966   16.4830 Cl        1 UNK         0.0000 
     29 O29         1.0982   53.0498   26.8418 O.3       1 UNK         0.0000 
     30 C30         0.8649   53.2447   28.1921 C.ar      1 UNK         0.0000 
     31 C31         0.2102   52.3209   29.0262 C.ar      1 UNK         0.0000 
     32 C32         0.0117   52.6107   30.3733 C.ar      1 UNK         0.0000 
     33 C33         0.4651   53.8192   30.8907 C.ar      1 UNK         0.0000 
     34 C34         1.1154   54.7421   30.0764 C.ar      1 UNK         0.0000 
     35 C35         1.3233   54.4473   28.7318 C.ar      1 UNK         0.0000 
     36 F36         0.2830   54.0956   32.1996 F         1 UNK         0.0000 
     37 H37        -1.7772   51.6820   25.6747 H         1 UNK         0.0000 
     38 H38        -1.5620   52.8265   26.9756 H         1 UNK         0.0000 
     39 H39        -1.2936   53.2963   25.3001 H         1 UNK         0.0000 
     40 H40         0.7402   52.7804   24.0870 H         1 UNK         0.0000 
     41 H41         2.0629   51.9454   24.8194 H         1 UNK         0.0000 
     42 H42         1.1995   49.8670   24.2814 H         1 UNK         0.0000 
     43 H43         0.1362   49.3859   21.0191 H         1 UNK         0.0000 
     44 H44        -0.0956   47.6967   21.4633 H         1 UNK         0.0000 
     45 H45        -3.8512   48.1783   21.7233 H         1 UNK         0.0000 
     46 H46        -3.2252   49.8366   21.7840 H         1 UNK         0.0000 
     47 H47        -3.4430   46.7394   23.5960 H         1 UNK         0.0000 
     48 H48        -1.8968   46.4657   22.8747 H         1 UNK         0.0000 
     49 H49        -1.9343   45.7498   25.3461 H         1 UNK         0.0000 
     50 H50        -0.7278   47.0164   25.1055 H         1 UNK         0.0000 
     51 H51        -3.4406   47.3207   26.2309 H         1 UNK         0.0000 
     52 H52        -3.1120   49.6268   26.5141 H         1 UNK         0.0000 
     53 H53        -1.4936   49.4708   25.8017 H         1 UNK         0.0000 
     54 H54        -3.2213   50.3745   24.1053 H         1 UNK         0.0000 
     55 H55        -4.1809   48.9596   24.3189 H         1 UNK         0.0000 
     56 H56        -0.2745   49.6559   18.4407 H         1 UNK         0.0000 
     57 H57         1.7463   49.0374   17.1725 H         1 UNK         0.0000 
     58 H58         0.8920   44.8934   17.7915 H         1 UNK         0.0000 
     59 H59        -0.1554   51.3757   28.6560 H         1 UNK         0.0000 
     60 H60        -0.4957   51.9063   31.0193 H         1 UNK         0.0000 
     61 H61         1.4595   55.6791   30.4897 H         1 UNK         0.0000 
     62 H62         1.8278   55.1608   28.0969 H         1 UNK         0.0000 
     63 H63        -2.0338   47.5978   26.9989 H         1 UNK         0.0000 
@<TRIPOS>BOND
     1    1    2 1    
     2    1   37 1    
     3    1   38 1    
     4    1   39 1    
     5    2    3 1    
     6    2    4 1    
     7    2   29 1    
     8    4    5 1    
     9    4   40 1    
    10    4   41 1    
    11    5    6 am   BACKBONE|DICT|INTERRES
    12    5   42 1    
    13    6    7 2    
    14    6    8 1    
    15    8    9 1    
    16    8   13 1    
    17    8   10 1    
    18   10   11 1    
    19   10   43 1    
    20   10   44 1    
    21   11   12 1    
    22   11   19 am   BACKBONE|DICT|INTERRES
    23   12   13 1    
    24   12   45 1    
    25   12   46 1    
    26   13   18 1    
    27   13   14 1    
    28   14   15 1    
    29   14   47 1    
    30   14   48 1    
    31   15   16 1    
    32   15   49 1    
    33   15   50 1    
    34   16   17 1    
    35   16   51 1    
    36   16   63 1    
    37   17   18 1    
    38   17   52 1    
    39   17   53 1    
    40   18   54 1    
    41   18   55 1    
    42   19   20 2    
    43   19   21 1    
    44   21   26 ar   
    45   21   22 ar   
    46   22   23 ar   
    47   22   56 1    
    48   23   24 ar   
    49   23   57 1    
    50   24   25 ar   
    51   24   28 1    
    52   25   26 ar   
    53   25   58 1    
    54   26   27 1    
    55   29   30 1    
    56   30   35 ar   
    57   30   31 ar   
    58   31   32 ar   
    59   31   59 1    
    60   32   33 ar   
    61   32   60 1    
    62   33   34 ar   
    63   33   36 1    
    64   34   35 ar   
    65   34   61 1    
    66   35   62 1    
@<TRIPOS>SUBSTRUCTURE
     1 UNK         1 GROUP             0       ****    0 ROOT    
