ZINC02229602_1268
                    3D
 Schrodinger Suite 2024-2.
 59 63  0  0  1  0            999 V2000
    0.4473   45.7157   18.2786 C   0  0  0  0  0  0
    0.7401   47.1052   18.8296 C   0  0  0  0  0  0
    1.9855   47.6878   18.5655 C   0  0  0  0  0  0
    2.3042   48.9483   19.0574 C   0  0  0  0  0  0
    1.3423   49.6774   19.7517 C   0  0  0  0  0  0
    0.1154   49.1008   20.0284 C   0  0  0  0  0  0
   -0.2130   47.8106   19.5904 C   0  0  0  0  0  0
   -1.5666   47.1793   19.9063 C   0  0  0  0  0  0
   -0.6625   50.0134   20.7234 N   0  0  0  0  0  0
   -0.0710   51.2094   20.8692 C   0  0  0  0  0  0
   -0.6044   52.2335   21.2868 O   0  0  0  0  0  0
    1.3842   51.0537   20.3577 C   0  0  1  0  0  0
    2.5742   51.3127   21.3506 C   0  0  1  0  0  0
    2.9780   50.3681   21.7243 H   0  0  0  0  0  0
    3.6400   52.0663   20.5690 C   0  0  1  0  0  0
    4.5693   51.4941   20.5242 H   0  0  0  0  0  0
    3.0825   52.3188   19.1330 C   0  0  2  0  0  0
    3.2957   51.4418   18.5229 H   0  0  0  0  0  0
    3.5877   53.5326   18.2996 C   0  0  0  0  0  0
    5.0791   53.3748   17.9336 C   0  0  0  0  0  0
    2.7548   53.7516   17.0203 C   0  0  0  0  0  0
    3.9020   53.3242   21.3947 C   0  0  0  0  0  0
    4.7315   54.1886   21.1124 O   0  0  0  0  0  0
    3.1024   53.2867   22.4874 N   0  0  0  0  0  0
    2.3045   52.1980   22.5735 C   0  0  0  0  0  0
    1.5303   51.9151   23.4886 O   0  0  0  0  0  0
    3.0961   54.3500   23.5059 C   0  0  0  0  0  0
    4.1622   54.2387   24.5914 C   0  0  0  0  0  0
    3.7861   53.9499   25.9060 C   0  0  0  0  0  0
    4.7538   53.8776   26.9057 C   0  0  0  0  0  0
    6.0915   54.1053   26.5934 C   0  0  0  0  0  0
    6.4676   54.4248   25.2921 C   0  0  0  0  0  0
    5.5029   54.4966   24.2939 C   0  0  0  0  0  0
    7.0320   54.0260   27.5598 F   0  0  0  0  0  0
    0.2429   45.0169   19.0921 H   0  0  0  0  0  0
   -0.4332   45.7445   17.6340 H   0  0  0  0  0  0
    1.2772   45.3254   17.6849 H   0  0  0  0  0  0
    2.7354   47.1600   17.9909 H   0  0  0  0  0  0
    3.2954   49.3361   18.8814 H   0  0  0  0  0  0
   -2.1993   47.8217   20.5176 H   0  0  0  0  0  0
   -2.1033   46.9548   18.9836 H   0  0  0  0  0  0
   -1.4303   46.2395   20.4433 H   0  0  0  0  0  0
   -1.6198   49.8492   20.9934 H   0  0  0  0  0  0
    3.4777   54.4432   18.8894 H   0  0  0  0  0  0
    5.2385   52.5135   17.2824 H   0  0  0  0  0  0
    5.4601   54.2563   17.4137 H   0  0  0  0  0  0
    5.6997   53.2249   18.8178 H   0  0  0  0  0  0
    2.7682   52.8703   16.3773 H   0  0  0  0  0  0
    1.7150   53.9852   17.2492 H   0  0  0  0  0  0
    3.1433   54.5885   16.4374 H   0  0  0  0  0  0
    3.2352   55.2969   22.9941 H   0  0  0  0  0  0
    2.1114   54.4125   23.9737 H   0  0  0  0  0  0
    2.7511   53.7653   26.1526 H   0  0  0  0  0  0
    4.4735   53.6337   27.9187 H   0  0  0  0  0  0
    7.5032   54.6083   25.0524 H   0  0  0  0  0  0
    5.8112   54.7567   23.2924 H   0  0  0  0  0  0
    1.5674   52.1888   19.3333 N   0  3  0  0  0  0
    1.0869   51.9927   18.4670 H   0  0  0  0  0  0
    1.2058   53.0621   19.6996 H   0  0  0  0  0  0
  1  2  1  0  0  0
  1 35  1  0  0  0
  1 36  1  0  0  0
  1 37  1  0  0  0
  2  7  2  0  0  0
  2  3  1  0  0  0
  3  4  2  0  0  0
  3 38  1  0  0  0
  4  5  1  0  0  0
  4 39  1  0  0  0
  5 12  1  0  0  0
  5  6  2  0  0  0
  6  7  1  0  0  0
  6  9  1  0  0  0
  7  8  1  0  0  0
  8 40  1  0  0  0
  8 41  1  0  0  0
  8 42  1  0  0  0
  9 10  1  0  0  0
  9 43  1  0  0  0
 10 11  2  0  0  0
 10 12  1  0  0  0
 12 13  1  0  0  0
 12 57  1  0  0  0
 13 14  1  0  0  0
 13 25  1  0  0  0
 13 15  1  0  0  0
 15 16  1  0  0  0
 15 17  1  0  0  0
 15 22  1  0  0  0
 17 18  1  0  0  0
 17 19  1  0  0  0
 17 57  1  0  0  0
 19 20  1  0  0  0
 19 21  1  0  0  0
 19 44  1  0  0  0
 20 45  1  0  0  0
 20 46  1  0  0  0
 20 47  1  0  0  0
 21 48  1  0  0  0
 21 49  1  0  0  0
 21 50  1  0  0  0
 22 23  2  0  0  0
 22 24  1  0  0  0
 24 25  1  0  0  0
 24 27  1  0  0  0
 25 26  2  0  0  0
 27 28  1  0  0  0
 27 51  1  0  0  0
 27 52  1  0  0  0
 28 33  2  0  0  0
 28 29  1  0  0  0
 29 30  2  0  0  0
 29 53  1  0  0  0
 30 31  1  0  0  0
 30 54  1  0  0  0
 31 32  2  0  0  0
 31 34  1  0  0  0
 32 33  1  0  0  0
 32 55  1  0  0  0
 33 56  1  0  0  0
 57 58  1  0  0  0
 57 59  1  0  0  0
M  CHG  1  57   1
M  END
> <i_i_glide_confnum>
7

> <i_i_glide_lignum>
1269

> <i_i_glide_posenum>
375

> <i_i_glide_rotatable_bonds>
3

> <i_m_Source_File_Index>
2673

> <b_m_subgroup_collapsed>
0

> <r_i_docking_score>
-5.12477

> <r_i_glide_ecoul>
-3.53102

> <r_i_glide_eff_state_penalty>
0

> <r_i_glide_einternal>
1.05507

> <r_i_glide_emodel>
-51.9839

> <r_i_glide_energy>
-39.4688

> <r_i_glide_erotb>
0.20924

> <r_i_glide_esite>
-0.0279112

> <r_i_glide_evdw>
-35.9378

> <r_i_glide_gscore>
-5.12477

> <r_i_glide_hbond>
0

> <r_i_glide_ligand_efficiency>
-0.160149

> <r_i_glide_ligand_efficiency_ln>
-1.14758

> <r_i_glide_ligand_efficiency_sa>
-0.508442

> <r_i_glide_lipo>
-1.86065

> <r_i_glide_metal>
0

> <r_i_glide_rewards>
-1.11891

> <s_i_glide_gridfile>
wee1_glide-grid

> <s_m_Source_File>
wee1_decoys_glide_SP.sdf

> <s_m_Source_Path>
/Users/zhangxujun/Desktop

> <s_m_entry_id>
2948

> <s_m_entry_name>
wee1_decoys_glide_SP.2673

> <s_m_subgroup_title>
wee1_decoys_glide_SP

> <s_m_subgroupid>
wee1_decoys_glide_SP


$$$$
