ZINC20271507_1075
                    3D
 Schrodinger Suite 2024-2.
 74 78  0  0  1  0            999 V2000
    1.7695   61.7176   14.4470 C   0  0  0  0  0  0
    1.6761   60.2203   14.7066 C   0  0  0  0  0  0
    0.7138   59.5882   14.2679 O   0  0  0  0  0  0
    2.7033   59.6966   15.4009 N   0  0  0  0  0  0
    2.8801   58.3800   15.8501 C   0  0  0  0  0  0
    4.1856   57.9922   16.1412 C   0  0  0  0  0  0
    4.4388   56.7290   16.6672 C   0  0  0  0  0  0
    3.3802   55.8644   16.9812 C   0  0  0  0  0  0
    2.0760   56.2414   16.6362 C   0  0  0  0  0  0
    1.8235   57.4911   16.0796 C   0  0  0  0  0  0
    3.5953   54.5243   17.6603 C   0  0  0  0  0  0
    2.9111   53.5760   17.2684 O   0  0  0  0  0  0
    4.4645   54.4006   18.7087 N   0  0  0  0  0  0
    5.2346   55.5010   19.3239 C   0  0  0  0  0  0
    6.7151   55.4288   19.0150 C   0  0  0  0  0  0
    7.5085   54.6324   18.1993 C   0  0  0  0  0  0
    8.8252   55.0617   18.3657 C   0  0  0  0  0  0
    8.7769   56.1006   19.2763 C   0  0  0  0  0  0
    7.4997   56.3195   19.6752 O   0  0  0  0  0  0
    4.6566   53.0870   19.3643 C   0  0  0  0  0  0
    3.8808   52.9228   20.6744 C   0  0  0  0  0  0
    4.4270   53.5069   21.8230 C   0  0  0  0  0  0
    3.7017   53.5319   23.0350 C   0  0  0  0  0  0
    4.2092   54.1060   24.2237 C   0  0  0  0  0  0
    3.4698   54.0291   25.4046 C   0  0  0  0  0  0
    2.2343   53.3823   25.4578 C   0  0  0  0  0  0
    1.6855   52.8473   24.2836 C   0  0  0  0  0  0
    2.4186   52.9238   23.0812 C   0  0  0  0  0  0
    1.9384   52.3803   21.9172 N   0  3  0  0  0  0
    2.5890   52.3532   20.7346 C   0  0  0  0  0  0
    1.9211   51.7351   19.6144 N   0  0  0  0  0  0
    2.5807   50.5446   19.0327 C   0  0  0  0  0  0
    1.6667   49.3707   18.6237 C   0  0  0  0  0  0
    0.7048   48.8606   19.7081 C   0  0  0  0  0  0
   -0.6142   49.6480   19.7818 C   0  0  0  0  0  0
   -0.4892   51.1036   20.2621 C   0  0  0  0  0  0
    0.4727   52.0058   19.4501 C   0  0  0  0  0  0
    1.6343   53.3046   26.6990 O   0  0  0  0  0  0
    0.4556   52.5219   26.8606 C   0  0  0  0  0  0
    2.7709   61.9860   14.1047 H   0  0  0  0  0  0
    1.5623   62.2680   15.3668 H   0  0  0  0  0  0
    1.0489   62.0249   13.6862 H   0  0  0  0  0  0
    3.4228   60.3548   15.7006 H   0  0  0  0  0  0
    5.0088   58.6701   15.9623 H   0  0  0  0  0  0
    5.4626   56.4467   16.8514 H   0  0  0  0  0  0
    1.2405   55.5873   16.8422 H   0  0  0  0  0  0
    0.7995   57.7733   15.8842 H   0  0  0  0  0  0
    4.8311   56.4721   19.0471 H   0  0  0  0  0  0
    5.0984   55.4749   20.3996 H   0  0  0  0  0  0
    7.1703   53.8317   17.5574 H   0  0  0  0  0  0
    9.7051   54.6660   17.8815 H   0  0  0  0  0  0
    9.5305   56.7393   19.7126 H   0  0  0  0  0  0
    4.4095   52.2856   18.6756 H   0  0  0  0  0  0
    5.7153   52.9260   19.5663 H   0  0  0  0  0  0
    5.4107   53.9537   21.8009 H   0  0  0  0  0  0
    5.1796   54.5814   24.2216 H   0  0  0  0  0  0
    3.8774   54.4414   26.3136 H   0  0  0  0  0  0
    0.7283   52.3507   24.2815 H   0  0  0  0  0  0
    3.1042   50.8845   18.1389 H   0  0  0  0  0  0
    3.3372   50.1907   19.7329 H   0  0  0  0  0  0
    1.1079   49.6482   17.7268 H   0  0  0  0  0  0
    2.3053   48.5468   18.3028 H   0  0  0  0  0  0
    0.4646   47.8171   19.4928 H   0  0  0  0  0  0
    1.1988   48.8530   20.6809 H   0  0  0  0  0  0
   -1.2980   49.1212   20.4499 H   0  0  0  0  0  0
   -1.0999   49.6323   18.8030 H   0  0  0  0  0  0
   -0.2341   51.1018   21.3208 H   0  0  0  0  0  0
   -1.4832   51.5492   20.2158 H   0  0  0  0  0  0
    0.3207   53.0511   19.7191 H   0  0  0  0  0  0
    0.2603   51.9447   18.3807 H   0  0  0  0  0  0
    0.1360   52.5589   27.9016 H   0  0  0  0  0  0
   -0.3686   52.8955   26.2550 H   0  0  0  0  0  0
    0.6303   51.4766   26.6078 H   0  0  0  0  0  0
    1.0282   51.9495   21.9407 H   0  0  0  0  0  0
  1  2  1  0  0  0
  1 40  1  0  0  0
  1 41  1  0  0  0
  1 42  1  0  0  0
  2  3  2  0  0  0
  2  4  1  0  0  0
  4  5  1  0  0  0
  4 43  1  0  0  0
  5 10  2  0  0  0
  5  6  1  0  0  0
  6  7  2  0  0  0
  6 44  1  0  0  0
  7  8  1  0  0  0
  7 45  1  0  0  0
  8  9  2  0  0  0
  8 11  1  0  0  0
  9 10  1  0  0  0
  9 46  1  0  0  0
 10 47  1  0  0  0
 11 12  2  0  0  0
 11 13  1  0  0  0
 13 14  1  0  0  0
 13 20  1  0  0  0
 14 15  1  0  0  0
 14 48  1  0  0  0
 14 49  1  0  0  0
 15 19  1  0  0  0
 15 16  2  0  0  0
 16 17  1  0  0  0
 16 50  1  0  0  0
 17 18  2  0  0  0
 17 51  1  0  0  0
 18 19  1  0  0  0
 18 52  1  0  0  0
 20 21  1  0  0  0
 20 53  1  0  0  0
 20 54  1  0  0  0
 21 30  2  0  0  0
 21 22  1  0  0  0
 22 23  2  0  0  0
 22 55  1  0  0  0
 23 28  1  0  0  0
 23 24  1  0  0  0
 24 25  2  0  0  0
 24 56  1  0  0  0
 25 26  1  0  0  0
 25 57  1  0  0  0
 26 27  2  0  0  0
 26 38  1  0  0  0
 27 28  1  0  0  0
 27 58  1  0  0  0
 28 29  2  0  0  0
 29 30  1  0  0  0
 29 74  1  0  0  0
 30 31  1  0  0  0
 31 37  1  0  0  0
 31 32  1  0  0  0
 32 33  1  0  0  0
 32 59  1  0  0  0
 32 60  1  0  0  0
 33 34  1  0  0  0
 33 61  1  0  0  0
 33 62  1  0  0  0
 34 35  1  0  0  0
 34 63  1  0  0  0
 34 64  1  0  0  0
 35 36  1  0  0  0
 35 65  1  0  0  0
 35 66  1  0  0  0
 36 37  1  0  0  0
 36 67  1  0  0  0
 36 68  1  0  0  0
 37 69  1  0  0  0
 37 70  1  0  0  0
 38 39  1  0  0  0
 39 71  1  0  0  0
 39 72  1  0  0  0
 39 73  1  0  0  0
M  CHG  1  29   1
M  END
> <i_i_glide_confnum>
348

> <i_i_glide_lignum>
1076

> <i_i_glide_posenum>
172

> <i_i_glide_rotatable_bonds>
10

> <i_m_Source_File_Index>
5147

> <b_m_subgroup_collapsed>
0

> <r_i_docking_score>
-4.2758

> <r_i_glide_ecoul>
-4.93492

> <r_i_glide_eff_state_penalty>
0

> <r_i_glide_einternal>
12.308

> <r_i_glide_emodel>
-48.4932

> <r_i_glide_energy>
-41.7465

> <r_i_glide_erotb>
0.517875

> <r_i_glide_esite>
-0.169002

> <r_i_glide_evdw>
-36.8115

> <r_i_glide_gscore>
-4.2758

> <r_i_glide_hbond>
-0.173443

> <r_i_glide_ligand_efficiency>
-0.109636

> <r_i_glide_ligand_efficiency_ln>
-0.916854

> <r_i_glide_ligand_efficiency_sa>
-0.371799

> <r_i_glide_lipo>
-1.87866

> <r_i_glide_metal>
0

> <r_i_glide_rewards>
0.00824566

> <s_i_glide_gridfile>
wee1_glide-grid

> <s_m_Source_File>
wee1_decoys_glide_SP.sdf

> <s_m_Source_Path>
/Users/zhangxujun/Desktop

> <s_m_entry_id>
5422

> <s_m_entry_name>
wee1_decoys_glide_SP.5147

> <s_m_subgroup_title>
wee1_decoys_glide_SP

> <s_m_subgroupid>
wee1_decoys_glide_SP


$$$$
