@<TRIPOS>MOLECULE
ZINC37201089_1891
37   39    1
SMALL
USER_CHARGES


@<TRIPOS>ATOM
      1 C1          6.3540   54.4964   24.7414 C.ar      1 UNK         0.0000 
      2 C2          5.0777   54.4966   24.1949 C.ar      1 UNK         0.0000 
      3 C3          3.9672   54.4314   25.0315 C.ar      1 UNK         0.0000 
      4 C4          4.1005   54.3379   26.4244 C.ar      1 UNK         0.0000 
      5 C5          5.4050   54.3199   26.9788 C.ar      1 UNK         0.0000 
      6 C6          6.5078   54.4076   26.1208 C.ar      1 UNK         0.0000 
      7 C7          5.6666   54.2467   28.4816 C.3       1 UNK         0.0000 
      8 S8          4.3040   53.6323   29.5137 S.3       1 UNK         0.0000 
      9 C9          3.0659   54.6786   28.7338 C.3       1 UNK         0.0000 
     10 C10         2.8380   54.2099   27.2861 C.3       1 UNK         0.0000 
     11 H11         2.0777   54.8728   26.8817 H         1 UNK         0.0000 
     12 N12         2.2918   52.8538   27.1997 N.pl3     1 UNK         0.0000 
     13 C13         1.0628   52.5006   27.7705 C.ar      1 UNK         0.0000 
     14 C14         0.8754   52.4214   29.1559 C.ar      1 UNK         0.0000 
     15 C15        -0.3497   52.0186   29.6814 C.ar      1 UNK         0.0000 
     16 C16        -1.3805   51.6507   28.8222 C.ar      1 UNK         0.0000 
     17 C17        -1.1974   51.6967   27.4381 C.ar      1 UNK         0.0000 
     18 C18         0.0259   52.1215   26.9164 C.ar      1 UNK         0.0000 
     19 S19        -2.5086   51.1733   26.3424 S.o2      1 UNK         0.0000 
     20 O20        -3.7698   51.2891   27.0823 O.2       1 UNK         0.0000 
     21 O21        -2.3196   51.8598   25.0598 O.2       1 UNK         0.0000 
     22 N22        -2.1940   49.4785   26.0817 N.pl3     1 UNK         0.0000 
     23 H23         7.2216   54.5535   24.0989 H         1 UNK         0.0000 
     24 H24         4.9466   54.5532   23.1240 H         1 UNK         0.0000 
     25 H25         2.9825   54.4355   24.5863 H         1 UNK         0.0000 
     26 H26         7.5043   54.3966   26.5369 H         1 UNK         0.0000 
     27 H27         6.5300   53.6152   28.6949 H         1 UNK         0.0000 
     28 H28         5.9044   55.2460   28.8458 H         1 UNK         0.0000 
     29 H29         2.1545   54.6902   29.3266 H         1 UNK         0.0000 
     30 H30         3.4368   55.6995   28.7573 H         1 UNK         0.0000 
     31 H31         2.4170   52.4780   26.2713 H         1 UNK         0.0000 
     32 H32         1.6808   52.6327   29.8393 H         1 UNK         0.0000 
     33 H33        -0.4924   51.9481   30.7517 H         1 UNK         0.0000 
     34 H34        -2.3117   51.2910   29.2383 H         1 UNK         0.0000 
     35 H35         0.1708   52.1466   25.8459 H         1 UNK         0.0000 
     36 H36        -1.3570   49.3116   25.5215 H         1 UNK         0.0000 
     37 H37        -2.0958   48.9758   26.9882 H         1 UNK         0.0000 
@<TRIPOS>BOND
     1    1    6 ar   
     2    1    2 ar   
     3    1   23 1    
     4    2    3 ar   
     5    2   24 1    
     6    3    4 ar   
     7    3   25 1    
     8    4   10 1    
     9    4    5 ar   
    10    5    6 ar   
    11    5    7 1    
    12    6   26 1    
    13    7    8 1    
    14    7   27 1    
    15    7   28 1    
    16    8    9 1    
    17    9   10 1    
    18    9   29 1    
    19    9   30 1    
    20   10   11 1    
    21   10   12 1    
    22   12   13 1    
    23   12   31 1    
    24   13   18 ar   
    25   13   14 ar   
    26   14   15 ar   
    27   14   32 1    
    28   15   16 ar   
    29   15   33 1    
    30   16   17 ar   
    31   16   34 1    
    32   17   18 ar   
    33   17   19 1    
    34   18   35 1    
    35   19   20 2    
    36   19   21 2    
    37   19   22 1    
    38   22   36 1    
    39   22   37 1    
@<TRIPOS>SUBSTRUCTURE
     1 UNK         1 GROUP             0       ****    0 ROOT    
