ZINC29827803_1377
                    3D
 Schrodinger Suite 2024-2.
 48 51  0  0  1  0            999 V2000
    1.2534   54.9222   30.0819 C   0  0  0  0  0  0
    0.4708   54.1221   30.9250 C   0  0  0  0  0  0
   -0.0955   52.9235   30.4816 C   0  0  0  0  0  0
    0.1413   52.5892   29.1459 C   0  0  0  0  0  0
    0.9381   53.3642   28.2902 C   0  0  0  0  0  0
    1.5181   54.5500   28.7604 C   0  0  0  0  0  0
    0.9898   52.7744   27.0649 N   0  0  0  0  0  0
    0.1854   51.7372   27.1785 C   0  0  0  0  0  0
   -0.3380   51.5395   28.4272 O   0  0  0  0  0  0
   -0.2610   50.7854   26.0729 C   0  0  1  0  0  0
   -0.0002   49.7701   26.3777 H   0  0  0  0  0  0
   -1.7911   50.8196   25.8588 C   0  0  0  0  0  0
   -2.2253   52.0949   25.1102 C   0  0  0  0  0  0
   -1.4251   52.3181   23.8066 C   0  0  0  0  0  0
    0.0204   52.2961   24.0546 N   0  0  0  0  0  0
    0.4365   51.0392   24.7046 C   0  0  0  0  0  0
    0.8068   52.5639   22.8376 C   0  0  0  0  0  0
    2.2273   53.1244   23.0623 C   0  0  0  0  0  0
    2.5048   53.7778   24.2711 C   0  0  0  0  0  0
    3.7781   54.2359   24.5841 C   0  0  0  0  0  0
    4.8236   54.0966   23.6714 C   0  0  0  0  0  0
    4.5364   53.5196   22.4253 C   0  0  0  0  0  0
    3.2552   53.0428   22.0846 C   0  0  0  0  0  0
    3.0577   52.5004   20.7050 N   0  3  0  0  0  0
    1.9584   52.0972   20.3439 O   0  0  0  0  0  0
    4.0220   52.4953   19.9457 O   0  5  0  0  0  0
    6.2189   54.5514   24.0454 C   0  0  0  0  0  0
    6.5390   54.7989   25.2069 O   0  0  0  0  0  0
    7.1043   54.6671   23.0571 N   0  0  0  0  0  0
    1.6672   55.8446   30.4662 H   0  0  0  0  0  0
    0.3034   54.4370   31.9461 H   0  0  0  0  0  0
   -0.7031   52.3019   31.1269 H   0  0  0  0  0  0
    2.1278   55.1637   28.1145 H   0  0  0  0  0  0
   -2.3477   50.6186   26.7759 H   0  0  0  0  0  0
   -2.0452   50.0104   25.1709 H   0  0  0  0  0  0
   -2.1362   52.9728   25.7510 H   0  0  0  0  0  0
   -3.2867   52.0263   24.8710 H   0  0  0  0  0  0
   -1.6936   53.2880   23.3861 H   0  0  0  0  0  0
   -1.6839   51.5715   23.0527 H   0  0  0  0  0  0
    0.3218   50.1842   24.0346 H   0  0  0  0  0  0
    1.5045   51.1149   24.8833 H   0  0  0  0  0  0
    0.3048   53.2948   22.2078 H   0  0  0  0  0  0
    0.8429   51.6303   22.2786 H   0  0  0  0  0  0
    1.7225   53.9268   24.9956 H   0  0  0  0  0  0
    3.9435   54.6955   25.5493 H   0  0  0  0  0  0
    5.3301   53.4239   21.6991 H   0  0  0  0  0  0
    8.0720   54.8984   23.2821 H   0  0  0  0  0  0
    6.8234   54.5660   22.0952 H   0  0  0  0  0  0
  1  6  2  0  0  0
  1  2  1  0  0  0
  1 30  1  0  0  0
  2  3  2  0  0  0
  2 31  1  0  0  0
  3  4  1  0  0  0
  3 32  1  0  0  0
  4  9  1  0  0  0
  4  5  2  0  0  0
  5  6  1  0  0  0
  5  7  1  0  0  0
  6 33  1  0  0  0
  7  8  2  0  0  0
  8  9  1  0  0  0
  8 10  1  0  0  0
 10 11  1  0  0  0
 10 16  1  0  0  0
 10 12  1  0  0  0
 12 13  1  0  0  0
 12 34  1  0  0  0
 12 35  1  0  0  0
 13 14  1  0  0  0
 13 36  1  0  0  0
 13 37  1  0  0  0
 14 15  1  0  0  0
 14 38  1  0  0  0
 14 39  1  0  0  0
 15 16  1  0  0  0
 15 17  1  0  0  0
 16 40  1  0  0  0
 16 41  1  0  0  0
 17 18  1  0  0  0
 17 42  1  0  0  0
 17 43  1  0  0  0
 18 23  2  0  0  0
 18 19  1  0  0  0
 19 20  2  0  0  0
 19 44  1  0  0  0
 20 21  1  0  0  0
 20 45  1  0  0  0
 21 22  2  0  0  0
 21 27  1  0  0  0
 22 23  1  0  0  0
 22 46  1  0  0  0
 23 24  1  0  0  0
 24 25  2  0  0  0
 24 26  1  0  0  0
 27 28  2  0  0  0
 27 29  1  0  0  0
 29 47  1  0  0  0
 29 48  1  0  0  0
M  CHG  2  24   1  26  -1
M  END
> <i_i_glide_confnum>
26

> <i_i_glide_lignum>
1378

> <i_i_glide_posenum>
373

> <i_i_glide_rotatable_bonds>
5

> <i_m_Source_File_Index>
2621

> <b_m_subgroup_collapsed>
0

> <r_i_docking_score>
-6.76539

> <r_i_glide_ecoul>
-6.47525

> <r_i_glide_eff_state_penalty>
0

> <r_i_glide_einternal>
11.51

> <r_i_glide_emodel>
-62.4467

> <r_i_glide_energy>
-48.4582

> <r_i_glide_erotb>
0.402207

> <r_i_glide_esite>
-0.0720949

> <r_i_glide_evdw>
-41.9829

> <r_i_glide_gscore>
-6.76539

> <r_i_glide_hbond>
-0.32

> <r_i_glide_ligand_efficiency>
-0.241621

> <r_i_glide_ligand_efficiency_ln>
-1.56165

> <r_i_glide_ligand_efficiency_sa>
-0.733704

> <r_i_glide_lipo>
-2.4396

> <r_i_glide_metal>
0

> <r_i_glide_rewards>
-1.26547

> <s_i_glide_gridfile>
wee1_glide-grid

> <s_m_Source_File>
wee1_decoys_glide_SP.sdf

> <s_m_Source_Path>
/Users/zhangxujun/Desktop

> <s_m_entry_id>
2896

> <s_m_entry_name>
wee1_decoys_glide_SP.2621

> <s_m_subgroup_title>
wee1_decoys_glide_SP

> <s_m_subgroupid>
wee1_decoys_glide_SP


$$$$
