@<TRIPOS>MOLECULE
ZINC28198341_2629
48   50    1
SMALL
USER_CHARGES


@<TRIPOS>ATOM
      1 C1          3.5787   53.3053   19.5540 C.3       1 UNK         0.0000 
      2 C2          4.3176   53.7258   20.8112 C.ar      1 UNK         0.0000 
      3 C3          3.8557   53.3362   22.0671 C.ar      1 UNK         0.0000 
      4 C4          4.5532   53.7057   23.2151 C.ar      1 UNK         0.0000 
      5 C5          5.7200   54.4775   23.1353 C.ar      1 UNK         0.0000 
      6 C6          6.1901   54.8584   21.8627 C.ar      1 UNK         0.0000 
      7 C7          5.4763   54.4959   20.7156 C.ar      1 UNK         0.0000 
      8 C8          7.5051   55.5934   21.6856 C.3       1 UNK         0.0000 
      9 S9          6.6336   54.9452   24.6086 S.3       1 UNK         0.0000 
     10 C10         5.6569   54.4763   26.0107 C.ar      1 UNK         0.0000 
     11 C11         6.2349   53.7047   27.0127 C.ar      1 UNK         0.0000 
     12 C12         5.4602   53.2970   28.0946 C.ar      1 UNK         0.0000 
     13 C13         4.1142   53.6484   28.2124 C.ar      1 UNK         0.0000 
     14 C14         3.5792   54.4968   27.2325 C.ar      1 UNK         0.0000 
     15 C15         4.3361   54.8968   26.1367 C.ar      1 UNK         0.0000 
     16 N16         3.4208   53.0935   29.2599 N.2       1 UNK         0.0000 
     17 S17         1.9563   53.4613   29.6818 S.o2      1 UNK         0.0000 
     18 O18         1.6214   54.8772   29.4925 O.2       1 UNK         0.0000 
     19 O19         1.6039   52.8717   30.9756 O.2       1 UNK         0.0000 
     20 C20         0.8441   52.5977   28.5290 C.ar      1 UNK         0.0000 
     21 C21         0.9751   52.4396   27.1461 C.ar      1 UNK         0.0000 
     22 C22        -0.1567   51.8015   26.6321 C.ar      1 UNK         0.0000 
     23 N23        -1.0005   51.5697   27.7098 N.pl3     1 UNK         0.0000 
     24 C24        -0.3719   52.0178   28.8486 C.ar      1 UNK         0.0000 
     25 C25        -2.3110   50.9307   27.7008 C.3       1 UNK         0.0000 
     26 C26        -0.4803   51.5564   25.2443 C.2       1 UNK         0.0000 
     27 O27        -1.6287   51.4259   24.8317 O.2       1 UNK         0.0000 
     28 N28         0.5683   51.4902   24.4254 N.am      1 UNK         0.0000 
     29 H29         3.4373   54.1636   18.8958 H         1 UNK         0.0000 
     30 H30         4.1559   52.5592   19.0053 H         1 UNK         0.0000 
     31 H31         2.5907   52.8998   19.7757 H         1 UNK         0.0000 
     32 H32         2.9635   52.7344   22.1562 H         1 UNK         0.0000 
     33 H33         4.1808   53.3453   24.1588 H         1 UNK         0.0000 
     34 H34         5.8406   54.7801   19.7388 H         1 UNK         0.0000 
     35 H35         7.7127   55.8597   20.6488 H         1 UNK         0.0000 
     36 H36         7.5226   56.4967   22.2844 H         1 UNK         0.0000 
     37 H37         8.3038   54.9528   22.0502 H         1 UNK         0.0000 
     38 H38         7.2655   53.3897   26.9414 H         1 UNK         0.0000 
     39 H39         5.9044   52.6707   28.8500 H         1 UNK         0.0000 
     40 H40         2.5552   54.8284   27.2802 H         1 UNK         0.0000 
     41 H41         3.8852   55.5193   25.3811 H         1 UNK         0.0000 
     42 H42         1.8076   52.7826   26.5551 H         1 UNK         0.0000 
     43 H43        -0.8572   51.9138   29.8095 H         1 UNK         0.0000 
     44 H44        -2.5537   50.5525   28.6945 H         1 UNK         0.0000 
     45 H45        -3.0614   51.6620   27.4044 H         1 UNK         0.0000 
     46 H46        -2.3149   50.0954   27.0009 H         1 UNK         0.0000 
     47 H47         1.5048   51.5376   24.7933 H         1 UNK         0.0000 
     48 H48         0.4118   51.3164   23.4454 H         1 UNK         0.0000 
@<TRIPOS>BOND
     1    1    2 1    
     2    1   29 1    
     3    1   30 1    
     4    1   31 1    
     5    2    7 ar   
     6    2    3 ar   
     7    3    4 ar   
     8    3   32 1    
     9    4    5 ar   
    10    4   33 1    
    11    5    6 ar   
    12    5    9 1    
    13    6    7 ar   
    14    6    8 1    
    15    7   34 1    
    16    8   35 1    
    17    8   36 1    
    18    8   37 1    
    19    9   10 1    
    20   10   15 ar   
    21   10   11 ar   
    22   11   12 ar   
    23   11   38 1    
    24   12   13 ar   
    25   12   39 1    
    26   13   14 ar   
    27   13   16 1    
    28   14   15 ar   
    29   14   40 1    
    30   15   41 1    
    31   16   17 1    
    32   17   18 2    
    33   17   19 2    
    34   17   20 1    
    35   20   24 ar   
    36   20   21 ar   
    37   21   22 ar   
    38   21   42 1    
    39   22   23 ar   
    40   22   26 1    
    41   23   24 ar   
    42   23   25 1    
    43   24   43 1    
    44   25   44 1    
    45   25   45 1    
    46   25   46 1    
    47   26   27 2    
    48   26   28 am   BACKBONE|DICT|INTERRES
    49   28   47 1    
    50   28   48 1    
@<TRIPOS>SUBSTRUCTURE
     1 UNK         1 GROUP             0       ****    0 ROOT    
