@<TRIPOS>MOLECULE
ZINC09851026_5878
50   53    1
SMALL
USER_CHARGES


@<TRIPOS>ATOM
      1 C1          9.0967   54.4344   17.6817 C.2       1 UNK         0.0000 
      2 C2          8.2999   55.2584   18.4804 C.2       1 UNK         0.0000 
      3 C3          6.9842   54.8173   18.6288 C.2       1 UNK         0.0000 
      4 S4          6.7399   53.3735   17.6817 S.3       1 UNK         0.0000 
      5 C5          8.3932   53.3593   17.1696 C.2       1 UNK         0.0000 
      6 C6          5.8422   55.4363   19.4143 C.3       1 UNK         0.0000 
      7 N7          5.7491   54.9004   20.7902 N.am      1 UNK         0.0000 
      8 C8          6.6486   55.2967   21.7236 C.2       1 UNK         0.0000 
      9 O9          7.5619   56.0967   21.5461 O.2       1 UNK         0.0000 
     10 C10         6.4493   54.5663   23.0439 C.3       1 UNK         0.0000 
     11 H11         7.2425   53.8173   23.0889 H         1 UNK         0.0000 
     12 S12         4.8956   53.6967   22.8817 S.3       1 UNK         0.0000 
     13 C13         4.7719   54.0065   21.1144 C.2       1 UNK         0.0000 
     14 N14         3.9045   53.4430   20.3578 N.2       1 UNK         0.0000 
     15 C15         2.9564   52.4967   20.7846 C.ar      1 UNK         0.0000 
     16 C16         2.0459   52.7277   21.8296 C.ar      1 UNK         0.0000 
     17 C17         1.1211   51.7560   22.2049 C.ar      1 UNK         0.0000 
     18 C18         1.0763   50.5475   21.5167 C.ar      1 UNK         0.0000 
     19 C19         1.9359   50.3150   20.4483 C.ar      1 UNK         0.0000 
     20 C20         2.8563   51.2927   20.0799 C.ar      1 UNK         0.0000 
     21 F21         0.1822   49.5998   21.8777 F         1 UNK         0.0000 
     22 C22         6.5526   55.4777   24.3026 C.3       1 UNK         0.0000 
     23 C23         6.2558   54.7186   25.5997 C.2       1 UNK         0.0000 
     24 O24         7.1044   53.9623   26.0375 O.2       1 UNK         0.0000 
     25 N25         5.0505   54.8967   26.1621 N.am      1 UNK         0.0000 
     26 C26         4.5040   54.2523   27.2868 C.ar      1 UNK         0.0000 
     27 C27         3.1856   54.5825   27.5590 C.ar      1 UNK         0.0000 
     28 C28         2.5106   54.0192   28.6336 C.ar      1 UNK         0.0000 
     29 C29         3.1610   53.0974   29.4619 C.ar      1 UNK         0.0000 
     30 C30         4.4909   52.7582   29.1839 C.ar      1 UNK         0.0000 
     31 C31         5.1644   53.3310   28.1117 C.ar      1 UNK         0.0000 
     32 C32         2.4571   52.4967   30.6362 C.2       1 UNK         0.0000 
     33 O33         1.2852   52.8645   30.8703 O.co2     1 UNK         0.0000 
     34 H34        10.1437   54.6179   17.4876 H         1 UNK         0.0000 
     35 H35         8.6795   56.1461   18.9653 H         1 UNK         0.0000 
     36 H36         8.7576   52.5704   16.5281 H         1 UNK         0.0000 
     37 H37         4.8967   55.3120   18.8823 H         1 UNK         0.0000 
     38 H38         5.9804   56.5173   19.4711 H         1 UNK         0.0000 
     39 H39         2.0615   53.6714   22.3539 H         1 UNK         0.0000 
     40 H40         0.4403   51.9379   23.0229 H         1 UNK         0.0000 
     41 H41         1.8883   49.3844   19.9026 H         1 UNK         0.0000 
     42 H42         3.5044   51.1067   19.2360 H         1 UNK         0.0000 
     43 H43         5.9044   56.3435   24.2443 H         1 UNK         0.0000 
     44 H44         7.5546   55.8922   24.3875 H         1 UNK         0.0000 
     45 H45         4.4198   55.5236   25.6890 H         1 UNK         0.0000 
     46 H46         2.7043   55.2967   26.9242 H         1 UNK         0.0000 
     47 H47         1.4844   54.3051   28.8200 H         1 UNK         0.0000 
     48 H48         5.0207   52.0490   29.8037 H         1 UNK         0.0000 
     49 H49         6.1871   53.0304   27.9557 H         1 UNK         0.0000 
     50 O50         3.1045   51.6968   31.3485 O.co2     1 UNK         0.0000 
@<TRIPOS>BOND
     1    1    5 2    
     2    1    2 1    
     3    1   34 1    
     4    2    3 2    
     5    2   35 1    
     6    3    4 1    
     7    3    6 1    
     8    4    5 1    
     9    5   36 1    
    10    6    7 1    
    11    6   37 1    
    12    6   38 1    
    13    7   13 am   BACKBONE|DICT|INTERRES
    14    7    8 am   BACKBONE|DICT|INTERRES
    15    8    9 2    
    16    8   10 1    
    17   10   11 1    
    18   10   12 1    
    19   10   22 1    
    20   12   13 1    
    21   13   14 2    
    22   14   15 1    
    23   15   20 ar   
    24   15   16 ar   
    25   16   17 ar   
    26   16   39 1    
    27   17   18 ar   
    28   17   40 1    
    29   18   19 ar   
    30   18   21 1    
    31   19   20 ar   
    32   19   41 1    
    33   20   42 1    
    34   22   23 1    
    35   22   43 1    
    36   22   44 1    
    37   23   24 2    
    38   23   25 am   BACKBONE|DICT|INTERRES
    39   25   26 1    
    40   25   45 1    
    41   26   31 ar   
    42   26   27 ar   
    43   27   28 ar   
    44   27   46 1    
    45   28   29 ar   
    46   28   47 1    
    47   29   30 ar   
    48   29   32 1    
    49   30   31 ar   
    50   30   48 1    
    51   31   49 1    
    52   32   33 2    
    53   32   50 1    
@<TRIPOS>SUBSTRUCTURE
     1 UNK         1 GROUP             0       ****    0 ROOT    
