ZINC06771089_2649
                    3D
 Schrodinger Suite 2024-2.
 56 58  0  0  1  0            999 V2000
   -0.5218   48.6673   21.4472 C   0  0  0  0  0  0
   -1.1157   49.8308   20.6880 C   0  0  0  0  0  0
   -0.9816   50.3075   19.3892 C   0  0  0  0  0  0
   -1.7776   51.4670   19.3215 C   0  0  0  0  0  0
   -2.3824   51.6966   20.4648 N   0  0  0  0  0  0
   -1.9773   50.7164   21.2735 N   0  0  0  0  0  0
   -2.2878   50.6536   22.2325 H   0  0  0  0  0  0
   -1.9908   52.4274   18.1734 C   0  0  0  0  0  0
    0.0701   49.6402   18.0715 S   0  0  0  0  0  0
   -0.6990   49.7149   16.8239 O   0  0  0  0  0  0
    0.6405   48.3790   18.5588 O   0  0  0  0  0  0
    1.3196   50.8883   18.0802 N   0  0  0  0  0  0
    1.8461   51.4290   16.8012 C   0  0  0  0  0  0
    2.3798   52.8702   17.0076 C   0  0  0  0  0  0
    3.3097   53.0086   18.2452 C   0  0  0  0  0  0
    2.6218   52.3676   19.4782 C   0  0  1  0  0  0
    1.6936   52.8967   19.7032 H   0  0  0  0  0  0
    2.2874   50.8905   19.1955 C   0  0  0  0  0  0
    3.5095   52.4871   20.7303 C   0  0  0  0  0  0
    4.4937   51.7580   20.8819 O   0  0  0  0  0  0
    3.1043   53.4067   21.6282 N   0  0  0  0  0  0
    3.6994   53.6992   22.8543 C   0  0  0  0  0  0
    2.8526   53.9135   23.9402 C   0  0  0  0  0  0
    3.3952   54.1853   25.1907 C   0  0  0  0  0  0
    4.7798   54.2807   25.3525 C   0  0  0  0  0  0
    5.6227   54.0974   24.2481 C   0  0  0  0  0  0
    5.0857   53.8047   23.0007 C   0  0  0  0  0  0
    5.3356   54.5848   26.7431 C   0  0  0  0  0  0
    5.3544   53.3391   27.6472 C   0  0  0  0  0  0
    6.7060   55.2775   26.7090 C   0  0  0  0  0  0
   -0.4209   47.7838   20.8187 H   0  0  0  0  0  0
    0.4716   48.9077   21.8261 H   0  0  0  0  0  0
   -1.1317   48.3724   22.3005 H   0  0  0  0  0  0
   -1.3999   52.1647   17.2970 H   0  0  0  0  0  0
   -3.0331   52.4529   17.8553 H   0  0  0  0  0  0
   -1.7058   53.4447   18.4392 H   0  0  0  0  0  0
    1.0824   51.3819   16.0249 H   0  0  0  0  0  0
    2.7038   50.8249   16.5048 H   0  0  0  0  0  0
    1.5302   53.5463   17.1178 H   0  0  0  0  0  0
    2.9045   53.1986   16.1095 H   0  0  0  0  0  0
    3.4755   54.0775   18.3925 H   0  0  0  0  0  0
    4.2419   52.4970   17.9972 H   0  0  0  0  0  0
    3.1721   50.3606   18.8398 H   0  0  0  0  0  0
    1.8480   50.3768   20.0515 H   0  0  0  0  0  0
    2.2510   53.9058   21.4170 H   0  0  0  0  0  0
    1.7801   53.8432   23.8287 H   0  0  0  0  0  0
    2.7368   54.3244   26.0356 H   0  0  0  0  0  0
    6.6960   54.1577   24.3421 H   0  0  0  0  0  0
    5.7456   53.6585   22.1580 H   0  0  0  0  0  0
    4.6456   55.2966   27.1976 H   0  0  0  0  0  0
    4.3718   52.8699   27.7017 H   0  0  0  0  0  0
    5.6510   53.5952   28.6647 H   0  0  0  0  0  0
    6.0566   52.5911   27.2816 H   0  0  0  0  0  0
    6.7191   56.0965   25.9900 H   0  0  0  0  0  0
    6.9462   55.6944   27.6795 H   0  0  0  0  0  0
    7.4983   54.5751   26.4470 H   0  0  0  0  0  0
  1  2  1  0  0  0
  1 31  1  0  0  0
  1 32  1  0  0  0
  1 33  1  0  0  0
  2  6  1  0  0  0
  2  3  2  0  0  0
  3  4  1  0  0  0
  3  9  1  0  0  0
  4  5  2  0  0  0
  4  8  1  0  0  0
  5  6  1  0  0  0
  6  7  1  0  0  0
  8 34  1  0  0  0
  8 35  1  0  0  0
  8 36  1  0  0  0
  9 10  2  0  0  0
  9 11  2  0  0  0
  9 12  1  0  0  0
 12 18  1  0  0  0
 12 13  1  0  0  0
 13 14  1  0  0  0
 13 37  1  0  0  0
 13 38  1  0  0  0
 14 15  1  0  0  0
 14 39  1  0  0  0
 14 40  1  0  0  0
 15 16  1  0  0  0
 15 41  1  0  0  0
 15 42  1  0  0  0
 16 17  1  0  0  0
 16 18  1  0  0  0
 16 19  1  0  0  0
 18 43  1  0  0  0
 18 44  1  0  0  0
 19 20  2  0  0  0
 19 21  1  0  0  0
 21 22  1  0  0  0
 21 45  1  0  0  0
 22 27  2  0  0  0
 22 23  1  0  0  0
 23 24  2  0  0  0
 23 46  1  0  0  0
 24 25  1  0  0  0
 24 47  1  0  0  0
 25 26  2  0  0  0
 25 28  1  0  0  0
 26 27  1  0  0  0
 26 48  1  0  0  0
 27 49  1  0  0  0
 28 29  1  0  0  0
 28 30  1  0  0  0
 28 50  1  0  0  0
 29 51  1  0  0  0
 29 52  1  0  0  0
 29 53  1  0  0  0
 30 54  1  0  0  0
 30 55  1  0  0  0
 30 56  1  0  0  0
M  END
> <i_i_glide_confnum>
6

> <i_i_glide_lignum>
2650

> <i_i_glide_posenum>
343

> <i_i_glide_rotatable_bonds>
6

> <i_m_Source_File_Index>
3138

> <b_m_subgroup_collapsed>
0

> <r_i_docking_score>
-4.40384

> <r_i_glide_ecoul>
-4.22504

> <r_i_glide_eff_state_penalty>
0

> <r_i_glide_einternal>
2.10861

> <r_i_glide_emodel>
-44.3237

> <r_i_glide_energy>
-35.3072

> <r_i_glide_erotb>
0.60021

> <r_i_glide_esite>
-0.0813886

> <r_i_glide_evdw>
-31.0821

> <r_i_glide_gscore>
-4.40384

> <r_i_glide_hbond>
-0.402293

> <r_i_glide_ligand_efficiency>
-0.15728

> <r_i_glide_ligand_efficiency_ln>
-1.01654

> <r_i_glide_ligand_efficiency_sa>
-0.477595

> <r_i_glide_lipo>
-2.20569

> <r_i_glide_metal>
0

> <r_i_glide_rewards>
-0.126821

> <s_i_glide_gridfile>
wee1_glide-grid

> <s_m_Source_File>
wee1_decoys_glide_SP.sdf

> <s_m_Source_Path>
/Users/zhangxujun/Desktop

> <s_m_entry_id>
3413

> <s_m_entry_name>
wee1_decoys_glide_SP.3138

> <s_m_subgroup_title>
wee1_decoys_glide_SP

> <s_m_subgroupid>
wee1_decoys_glide_SP


$$$$
