ZINC31043992_4838
                    3D
 Schrodinger Suite 2024-2.
 65 68  0  0  1  0            999 V2000
    6.4808   55.7000   16.1558 C   0  0  0  0  0  0
    7.8470   56.2228   16.6411 C   0  0  0  0  0  0
    8.5229   55.4133   17.7865 C   0  0  2  0  0  0
    9.3934   55.9846   18.1188 H   0  0  0  0  0  0
    9.0440   54.0652   17.2807 C   0  0  0  0  0  0
    8.1925   52.9596   17.1728 C   0  0  0  0  0  0
    8.6825   51.7289   16.7484 C   0  0  0  0  0  0
   10.0324   51.5700   16.4308 C   0  0  0  0  0  0
   10.8971   52.6735   16.5275 C   0  0  0  0  0  0
   10.3960   53.9109   16.9518 C   0  0  0  0  0  0
   12.3775   52.5469   16.1973 C   0  0  0  0  0  0
   10.5282   50.2019   15.9828 C   0  0  0  0  0  0
    7.6957   55.2198   18.9839 N   0  0  0  0  0  0
    7.0913   56.1673   19.7201 C   0  0  0  0  0  0
    7.1044   57.3632   19.4381 O   0  0  0  0  0  0
    6.3756   55.7100   21.0011 C   0  0  2  0  0  0
    5.8938   56.6238   21.3401 H   0  0  0  0  0  0
    7.4041   55.2873   22.0774 C   0  0  0  0  0  0
    6.7022   54.6991   23.3174 C   0  0  0  0  0  0
    5.6683   53.6118   22.9717 C   0  0  0  0  0  0
    4.6122   54.2231   22.0138 N   0  3  1  0  0  0
    5.2789   54.6580   20.6846 C   0  0  0  0  0  0
    3.4509   53.2372   21.7079 C   0  0  0  0  0  0
    2.5862   52.9494   22.9269 C   0  0  0  0  0  0
    2.6229   53.4738   24.1253 N   0  0  0  0  0  0
    1.7341   52.7477   24.7838 C   0  0  0  0  0  0
    1.0851   51.8544   24.0620 N   0  0  0  0  0  0
    1.6568   51.9736   22.7992 O   0  0  0  0  0  0
    1.5040   52.8955   26.2670 C   0  0  0  0  0  0
    0.5118   52.1415   26.9165 C   0  0  0  0  0  0
    0.2831   52.2941   28.2815 C   0  0  0  0  0  0
    1.0435   53.2029   29.0124 C   0  0  0  0  0  0
    2.0430   53.9460   28.3890 C   0  0  0  0  0  0
    2.2762   53.7865   27.0252 C   0  0  0  0  0  0
    0.7073   53.4355   30.8727 Br  0  0  0  0  0  0
    6.0583   56.3686   15.4035 H   0  0  0  0  0  0
    6.5651   54.7150   15.6971 H   0  0  0  0  0  0
    5.7607   55.6312   16.9728 H   0  0  0  0  0  0
    7.7198   57.2572   16.9600 H   0  0  0  0  0  0
    8.5282   56.2837   15.7916 H   0  0  0  0  0  0
    7.1434   53.0435   17.4206 H   0  0  0  0  0  0
    7.9989   50.8971   16.6773 H   0  0  0  0  0  0
   11.0664   54.7546   17.0381 H   0  0  0  0  0  0
   12.9265   53.4697   16.3878 H   0  0  0  0  0  0
   12.8282   51.7607   16.8031 H   0  0  0  0  0  0
   12.5115   52.2736   15.1502 H   0  0  0  0  0  0
   11.2670   49.8184   16.6880 H   0  0  0  0  0  0
    9.7195   49.4722   15.9018 H   0  0  0  0  0  0
   11.0091   50.2758   15.0063 H   0  0  0  0  0  0
    7.7275   54.2854   19.3601 H   0  0  0  0  0  0
    8.0592   54.4969   21.7163 H   0  0  0  0  0  0
    8.0003   56.1350   22.4177 H   0  0  0  0  0  0
    7.4520   54.2841   23.9929 H   0  0  0  0  0  0
    6.2185   55.4994   23.8783 H   0  0  0  0  0  0
    6.1028   52.7384   22.4840 H   0  0  0  0  0  0
    5.1665   53.2986   23.8849 H   0  0  0  0  0  0
    4.4861   55.0855   20.0681 H   0  0  0  0  0  0
    5.6631   53.7421   20.2272 H   0  0  0  0  0  0
    2.8561   53.6962   20.9170 H   0  0  0  0  0  0
    3.9195   52.3370   21.3053 H   0  0  0  0  0  0
   -0.0966   51.4358   26.3670 H   0  0  0  0  0  0
   -0.4839   51.7082   28.7701 H   0  0  0  0  0  0
    2.6323   54.6495   28.9573 H   0  0  0  0  0  0
    3.0532   54.3752   26.5606 H   0  0  0  0  0  0
    4.2024   55.0350   22.4565 H   0  0  0  0  0  0
  1  2  1  0  0  0
  1 36  1  0  0  0
  1 37  1  0  0  0
  1 38  1  0  0  0
  2  3  1  0  0  0
  2 39  1  0  0  0
  2 40  1  0  0  0
  3  4  1  0  0  0
  3  5  1  0  0  0
  3 13  1  0  0  0
  5 10  2  0  0  0
  5  6  1  0  0  0
  6  7  2  0  0  0
  6 41  1  0  0  0
  7  8  1  0  0  0
  7 42  1  0  0  0
  8  9  2  0  0  0
  8 12  1  0  0  0
  9 10  1  0  0  0
  9 11  1  0  0  0
 10 43  1  0  0  0
 11 44  1  0  0  0
 11 45  1  0  0  0
 11 46  1  0  0  0
 12 47  1  0  0  0
 12 48  1  0  0  0
 12 49  1  0  0  0
 13 14  1  0  0  0
 13 50  1  0  0  0
 14 15  2  0  0  0
 14 16  1  0  0  0
 16 17  1  0  0  0
 16 22  1  0  0  0
 16 18  1  0  0  0
 18 19  1  0  0  0
 18 51  1  0  0  0
 18 52  1  0  0  0
 19 20  1  0  0  0
 19 53  1  0  0  0
 19 54  1  0  0  0
 20 21  1  0  0  0
 20 55  1  0  0  0
 20 56  1  0  0  0
 21 22  1  0  0  0
 21 23  1  0  0  0
 21 65  1  0  0  0
 22 57  1  0  0  0
 22 58  1  0  0  0
 23 24  1  0  0  0
 23 59  1  0  0  0
 23 60  1  0  0  0
 24 28  1  0  0  0
 24 25  2  0  0  0
 25 26  1  0  0  0
 26 27  2  0  0  0
 26 29  1  0  0  0
 27 28  1  0  0  0
 29 34  2  0  0  0
 29 30  1  0  0  0
 30 31  2  0  0  0
 30 61  1  0  0  0
 31 32  1  0  0  0
 31 62  1  0  0  0
 32 33  2  0  0  0
 32 35  1  0  0  0
 33 34  1  0  0  0
 33 63  1  0  0  0
 34 64  1  0  0  0
M  CHG  1  21   1
M  END
> <i_i_glide_confnum>
18

> <i_i_glide_lignum>
4839

> <i_i_glide_posenum>
182

> <i_i_glide_rotatable_bonds>
8

> <i_m_Source_File_Index>
709

> <b_m_subgroup_collapsed>
0

> <r_i_docking_score>
-4.83948

> <r_i_glide_ecoul>
-2.27818

> <r_i_glide_eff_state_penalty>
0

> <r_i_glide_einternal>
7.02872

> <r_i_glide_emodel>
-52.8783

> <r_i_glide_energy>
-41.9437

> <r_i_glide_erotb>
0.546416

> <r_i_glide_esite>
0

> <r_i_glide_evdw>
-39.6655

> <r_i_glide_gscore>
-4.83948

> <r_i_glide_hbond>
-0.253015

> <r_i_glide_ligand_efficiency>
-0.146651

> <r_i_glide_ligand_efficiency_ln>
-1.07628

> <r_i_glide_ligand_efficiency_sa>
-0.470388

> <r_i_glide_lipo>
-2.51552

> <r_i_glide_metal>
0

> <r_i_glide_rewards>
-0.292355

> <s_i_glide_gridfile>
wee1_glide-grid

> <s_m_Source_File>
wee1_decoys_glide_SP.sdf

> <s_m_Source_Path>
/Users/zhangxujun/Desktop

> <s_m_entry_id>
984

> <s_m_entry_name>
wee1_decoys_glide_SP.709

> <s_m_subgroup_title>
wee1_decoys_glide_SP

> <s_m_subgroupid>
wee1_decoys_glide_SP


$$$$
