@<TRIPOS>MOLECULE
ZINC39836294_4144
62   66    1
SMALL
USER_CHARGES


@<TRIPOS>ATOM
      1 C1          1.0772   47.2319   17.3241 C.3       1 UNK         0.0000 
      2 C2          0.7463   48.1843   18.4883 C.3       1 UNK         0.0000 
      3 H3          0.0026   48.8953   18.1188 H         1 UNK         0.0000 
      4 C4          0.2025   47.4074   19.6995 C.3       1 UNK         0.0000 
      5 C5         -0.3130   48.3377   20.8212 C.3       1 UNK         0.0000 
      6 C6          0.7003   49.4638   21.0997 C.2       1 UNK         0.0000 
      7 C7          1.7372   49.7278   20.1818 C.2       1 UNK         0.0000 
      8 S8          2.7402   51.0354   20.6721 S.3       1 UNK         0.0000 
      9 C9          1.7653   51.3109   22.0919 C.2       1 UNK         0.0000 
     10 C10         0.7477   50.3399   22.2328 C.2       1 UNK         0.0000 
     11 C11        -0.1872   50.3602   23.3590 C.2       1 UNK         0.0000 
     12 O12        -0.4291   51.3970   23.9836 O.2       1 UNK         0.0000 
     13 N13        -0.7163   49.1763   23.7085 N.am      1 UNK         0.0000 
     14 C14        -1.6055   48.9460   24.8507 C.3       1 UNK         0.0000 
     15 H15        -1.2221   49.5553   25.6779 H         1 UNK         0.0000 
     16 C16        -3.0779   49.3087   24.5515 C.3       1 UNK         0.0000 
     17 C17        -3.6725   48.2220   23.6327 C.3       1 UNK         0.0000 
     18 S18        -2.8018   46.6391   24.1476 S.o2      1 UNK         0.0000 
     19 O19        -3.6950   45.7815   24.9371 O.2       1 UNK         0.0000 
     20 O20        -2.0963   46.0821   22.9907 O.2       1 UNK         0.0000 
     21 C21        -1.5741   47.4761   25.2833 C.3       1 UNK         0.0000 
     22 N22         2.0155   52.3577   22.9826 N.am      1 UNK         0.0000 
     23 C23         2.9788   53.3005   22.9414 C.2       1 UNK         0.0000 
     24 O24         3.8534   53.3902   22.0785 O.2       1 UNK         0.0000 
     25 C25         2.9434   54.3314   24.0780 C.3       1 UNK         0.0000 
     26 C26         4.2111   54.3445   24.9490 C.ar      1 UNK         0.0000 
     27 C27         5.4301   54.6841   24.3571 C.ar      1 UNK         0.0000 
     28 C28         6.5999   54.7651   25.0885 C.ar      1 UNK         0.0000 
     29 C29         6.5946   54.4975   26.4481 C.ar      1 UNK         0.0000 
     30 C30         5.3944   54.1417   27.0992 C.ar      1 UNK         0.0000 
     31 C31         4.1711   54.0628   26.3559 C.ar      1 UNK         0.0000 
     32 C32         2.9920   53.6903   27.0723 C.ar      1 UNK         0.0000 
     33 C33         3.0346   53.4147   28.4366 C.ar      1 UNK         0.0000 
     34 C34         4.2297   53.5005   29.1362 C.ar      1 UNK         0.0000 
     35 C35         5.4007   53.8633   28.4829 C.ar      1 UNK         0.0000 
     36 C36         2.0171   48.9593   18.8971 C.3       1 UNK         0.0000 
     37 H37         1.8279   46.4921   17.6129 H         1 UNK         0.0000 
     38 H38         0.1931   46.6908   16.9865 H         1 UNK         0.0000 
     39 H39         1.4731   47.7799   16.4670 H         1 UNK         0.0000 
     40 H40        -0.6132   46.7555   19.3834 H         1 UNK         0.0000 
     41 H41         0.9664   46.7256   20.0708 H         1 UNK         0.0000 
     42 H42        -0.4969   47.7119   21.6901 H         1 UNK         0.0000 
     43 H43        -1.2737   48.7701   20.5356 H         1 UNK         0.0000 
     44 H44        -0.4293   48.3614   23.1923 H         1 UNK         0.0000 
     45 H45        -3.6292   49.3613   25.4911 H         1 UNK         0.0000 
     46 H46        -3.1621   50.3054   24.1089 H         1 UNK         0.0000 
     47 H47        -4.7544   48.0916   23.6717 H         1 UNK         0.0000 
     48 H48        -3.3863   48.4271   22.6001 H         1 UNK         0.0000 
     49 H49        -0.6231   46.9492   25.2802 H         1 UNK         0.0000 
     50 H50        -2.0048   47.4157   26.2846 H         1 UNK         0.0000 
     51 H51         1.3615   52.3953   23.7539 H         1 UNK         0.0000 
     52 H52         2.0177   54.2651   24.6405 H         1 UNK         0.0000 
     53 H53         2.8839   55.2967   23.5825 H         1 UNK         0.0000 
     54 H54         5.4778   54.8967   23.3002 H         1 UNK         0.0000 
     55 H55         7.5106   55.0377   24.5829 H         1 UNK         0.0000 
     56 H56         7.5069   54.5491   27.0237 H         1 UNK         0.0000 
     57 H57         2.0431   53.5881   26.5730 H         1 UNK         0.0000 
     58 H58         2.1308   53.1222   28.9530 H         1 UNK         0.0000 
     59 H59         4.2596   53.2817   30.1938 H         1 UNK         0.0000 
     60 H60         6.3288   53.9341   29.0267 H         1 UNK         0.0000 
     61 H61         2.3154   49.6382   18.0940 H         1 UNK         0.0000 
     62 H62         2.8511   48.2723   19.0580 H         1 UNK         0.0000 
@<TRIPOS>BOND
     1    1    2 1    
     2    1   37 1    
     3    1   38 1    
     4    1   39 1    
     5    2    3 1    
     6    2   36 1    
     7    2    4 1    
     8    4    5 1    
     9    4   40 1    
    10    4   41 1    
    11    5    6 1    
    12    5   42 1    
    13    5   43 1    
    14    6   10 1    
    15    6    7 2    
    16    7    8 1    
    17    7   36 1    
    18    8    9 1    
    19    9   10 2    
    20    9   22 am   BACKBONE|DICT|INTERRES
    21   10   11 1    
    22   11   12 2    
    23   11   13 am   BACKBONE|DICT|INTERRES
    24   13   14 1    
    25   13   44 1    
    26   14   15 1    
    27   14   21 1    
    28   14   16 1    
    29   16   17 1    
    30   16   45 1    
    31   16   46 1    
    32   17   18 1    
    33   17   47 1    
    34   17   48 1    
    35   18   19 2    
    36   18   20 2    
    37   18   21 1    
    38   21   49 1    
    39   21   50 1    
    40   22   23 am   BACKBONE|DICT|INTERRES
    41   22   51 1    
    42   23   24 2    
    43   23   25 1    
    44   25   26 1    
    45   25   52 1    
    46   25   53 1    
    47   26   31 ar   
    48   26   27 ar   
    49   27   28 ar   
    50   27   54 1    
    51   28   29 ar   
    52   28   55 1    
    53   29   30 ar   
    54   29   56 1    
    55   30   35 ar   
    56   30   31 ar   
    57   31   32 ar   
    58   32   33 ar   
    59   32   57 1    
    60   33   34 ar   
    61   33   58 1    
    62   34   35 ar   
    63   34   59 1    
    64   35   60 1    
    65   36   61 1    
    66   36   62 1    
@<TRIPOS>SUBSTRUCTURE
     1 UNK         1 GROUP             0       ****    0 ROOT    
