@<TRIPOS>MOLECULE
ZINC58836520_1447
44   47    1
SMALL
USER_CHARGES


@<TRIPOS>ATOM
      1 C1          2.3048   51.0832   18.8211 C.ar      1 UNK         0.0000 
      2 C2          1.4020   52.0579   19.2370 C.ar      1 UNK         0.0000 
      3 C3          0.3732   51.7164   20.1111 C.ar      1 UNK         0.0000 
      4 C4          0.2454   50.3939   20.5636 C.ar      1 UNK         0.0000 
      5 C5          1.1665   49.4287   20.1471 C.ar      1 UNK         0.0000 
      6 C6          2.1950   49.7728   19.2752 C.ar      1 UNK         0.0000 
      7 N7         -0.7444   49.9492   21.4576 N.am      1 UNK         0.0000 
      8 C8         -1.8368   50.5814   21.9428 C.2       1 UNK         0.0000 
      9 O9         -2.2107   51.6952   21.5707 O.2       1 UNK         0.0000 
     10 C10        -2.6944   49.8188   23.0017 C.3       1 UNK         0.0000 
     11 H11        -3.4586   49.3215   22.4030 H         1 UNK         0.0000 
     12 C12        -3.3551   50.7366   24.0544 C.3       1 UNK         0.0000 
     13 C13        -2.3633   51.4841   24.9824 C.2       1 UNK         0.0000 
     14 O14        -2.6959   52.5985   25.4024 O.2       1 UNK         0.0000 
     15 N15        -1.1803   50.8355   25.3059 N.am      1 UNK         0.0000 
     16 C16        -0.7536   49.5562   24.9514 C.2       1 UNK         0.0000 
     17 N17         0.3046   48.9755   25.3337 N.2       1 UNK         0.0000 
     18 S18        -1.7539   48.5267   23.8642 S.3       1 UNK         0.0000 
     19 N19        -0.2646   51.6544   25.9550 N.2       1 UNK         0.0000 
     20 C20        -0.2010   51.5723   27.2354 C.2       1 UNK         0.0000 
     21 C21         0.8230   52.2626   28.0245 C.ar      1 UNK         0.0000 
     22 C22         0.8002   52.1649   29.4325 C.ar      1 UNK         0.0000 
     23 C23         1.8018   52.7493   30.2210 C.ar      1 UNK         0.0000 
     24 C24         2.8242   53.4243   29.5630 C.ar      1 UNK         0.0000 
     25 C25         2.8458   53.5492   28.2040 C.ar      1 UNK         0.0000 
     26 C26         1.8596   52.9910   27.4035 C.ar      1 UNK         0.0000 
     27 O27         3.9290   54.2802   27.8327 O.3       1 UNK         0.0000 
     28 C28         4.7293   54.3358   28.9791 C.3       1 UNK         0.0000 
     29 O29         3.9033   54.0669   30.0817 O.3       1 UNK         0.0000 
     30 H30         3.1049   51.3382   18.1401 H         1 UNK         0.0000 
     31 H31         1.5047   53.0752   18.8866 H         1 UNK         0.0000 
     32 H32        -0.2972   52.4965   20.4287 H         1 UNK         0.0000 
     33 H33         1.0937   48.4074   20.4904 H         1 UNK         0.0000 
     34 H34         2.9088   49.0323   18.9413 H         1 UNK         0.0000 
     35 H35        -0.5995   49.0145   21.8075 H         1 UNK         0.0000 
     36 H36        -3.9905   51.4788   23.5673 H         1 UNK         0.0000 
     37 H37        -4.0056   50.1455   24.7004 H         1 UNK         0.0000 
     38 H38         0.4051   48.0304   24.9950 H         1 UNK         0.0000 
     39 H39        -0.8955   50.9580   27.8070 H         1 UNK         0.0000 
     40 H40         0.0063   51.6220   29.9287 H         1 UNK         0.0000 
     41 H41         1.7720   52.6598   31.2976 H         1 UNK         0.0000 
     42 H42         1.9095   53.0935   26.3287 H         1 UNK         0.0000 
     43 H43         5.2325   55.2967   29.0790 H         1 UNK         0.0000 
     44 H44         5.5043   53.5692   28.9036 H         1 UNK         0.0000 
@<TRIPOS>BOND
     1    1    6 ar   
     2    1    2 ar   
     3    1   30 1    
     4    2    3 ar   
     5    2   31 1    
     6    3    4 ar   
     7    3   32 1    
     8    4    5 ar   
     9    4    7 1    
    10    5    6 ar   
    11    5   33 1    
    12    6   34 1    
    13    7    8 am   BACKBONE|DICT|INTERRES
    14    7   35 1    
    15    8    9 2    
    16    8   10 1    
    17   10   11 1    
    18   10   18 1    
    19   10   12 1    
    20   12   13 1    
    21   12   36 1    
    22   12   37 1    
    23   13   14 2    
    24   13   15 am   BACKBONE|DICT|INTERRES
    25   15   16 am   BACKBONE|DICT|INTERRES
    26   15   19 1    
    27   16   17 2    
    28   16   18 1    
    29   17   38 1    
    30   19   20 2    
    31   20   21 1    
    32   20   39 1    
    33   21   26 ar   
    34   21   22 ar   
    35   22   23 ar   
    36   22   40 1    
    37   23   24 ar   
    38   23   41 1    
    39   24   29 1    
    40   24   25 ar   
    41   25   26 ar   
    42   25   27 1    
    43   26   42 1    
    44   27   28 1    
    45   28   29 1    
    46   28   43 1    
    47   28   44 1    
@<TRIPOS>SUBSTRUCTURE
     1 UNK         1 GROUP             0       ****    0 ROOT    
