@<TRIPOS>MOLECULE
ZINC42026690_4732
34   36    1
SMALL
USER_CHARGES


@<TRIPOS>ATOM
      1 C1          6.6318   54.0141   25.3638 C.3       1 UNK         0.0000 
      2 C2          5.2173   54.0967   24.7960 C.ar      1 UNK         0.0000 
      3 C3          5.1089   54.0912   23.3988 C.ar      1 UNK         0.0000 
      4 C4          3.8647   54.1167   22.7777 C.ar      1 UNK         0.0000 
      5 C5          2.7151   54.2087   23.5495 C.ar      1 UNK         0.0000 
      6 C6          2.8095   54.2507   24.9361 C.ar      1 UNK         0.0000 
      7 C7          4.0402   54.1384   25.5970 C.ar      1 UNK         0.0000 
      8 N8          4.0557   54.0969   27.0327 N.pl3     1 UNK         0.0000 
      9 C9          3.1926   53.5521   28.0013 C.ar      1 UNK         0.0000 
     10 N10         3.6900   53.7909   29.1979 N.2       1 UNK         0.0000 
     11 N11         4.8599   54.4973   29.0219 N.2       1 UNK         0.0000 
     12 N12         5.0655   54.7021   27.6826 N.2       1 UNK         0.0000 
     13 C13         1.8885   52.7883   27.8711 C.ar      1 UNK         0.0000 
     14 C14         1.0420   52.6733   28.9920 C.ar      1 UNK         0.0000 
     15 C15        -0.1237   51.9073   28.9433 C.ar      1 UNK         0.0000 
     16 C16        -0.5032   51.2969   27.7552 C.ar      1 UNK         0.0000 
     17 C17         0.3161   51.3872   26.6391 C.ar      1 UNK         0.0000 
     18 C18         1.5038   52.1124   26.7080 C.ar      1 UNK         0.0000 
     19 N19        -0.0284   50.7078   25.4745 N.pl3     1 UNK         0.0000 
     20 N20        -0.8955   51.6969   30.0816 N.pl3     1 UNK         0.0000 
     21 F21         1.5044   54.2652   22.9559 F         1 UNK         0.0000 
     22 H22         6.6829   53.2961   26.1810 H         1 UNK         0.0000 
     23 H23         7.3552   53.6820   24.6178 H         1 UNK         0.0000 
     24 H24         6.9480   54.9855   25.7425 H         1 UNK         0.0000 
     25 H25         5.9952   54.0456   22.7822 H         1 UNK         0.0000 
     26 H26         3.7876   54.0944   21.7002 H         1 UNK         0.0000 
     27 H27         1.8922   54.3517   25.4939 H         1 UNK         0.0000 
     28 H28         1.3061   53.1462   29.9260 H         1 UNK         0.0000 
     29 H29        -1.4018   50.6966   27.7170 H         1 UNK         0.0000 
     30 H30         2.1496   52.0968   25.8493 H         1 UNK         0.0000 
     31 H31         0.6804   50.6074   24.7638 H         1 UNK         0.0000 
     32 H32        -0.7316   49.9875   25.5679 H         1 UNK         0.0000 
     33 H33        -1.4814   50.8670   30.0895 H         1 UNK         0.0000 
     34 H34        -0.5650   52.0297   30.9792 H         1 UNK         0.0000 
@<TRIPOS>BOND
     1    1    2 1    
     2    1   22 1    
     3    1   23 1    
     4    1   24 1    
     5    2    7 ar   
     6    2    3 ar   
     7    3    4 ar   
     8    3   25 1    
     9    4    5 ar   
    10    4   26 1    
    11    5    6 ar   
    12    5   21 1    
    13    6    7 ar   
    14    6   27 1    
    15    7    8 1    
    16    8   12 ar   
    17    8    9 ar   
    18    9   10 ar   
    19    9   13 1    
    20   10   11 ar   
    21   11   12 ar   
    22   13   18 ar   
    23   13   14 ar   
    24   14   15 ar   
    25   14   28 1    
    26   15   16 ar   
    27   15   20 1    
    28   16   17 ar   
    29   16   29 1    
    30   17   18 ar   
    31   17   19 1    
    32   18   30 1    
    33   19   31 1    
    34   19   32 1    
    35   20   33 1    
    36   20   34 1    
@<TRIPOS>SUBSTRUCTURE
     1 UNK         1 GROUP             0       ****    0 ROOT    
