ZINC62716108_4708
                    3D
 Schrodinger Suite 2024-2.
 41 44  0  0  1  0            999 V2000
    6.4865   54.2249   26.0540 C   0  0  0  0  0  0
    6.2211   54.0969   27.4253 C   0  0  0  0  0  0
    4.9023   54.2341   27.8372 C   0  0  0  0  0  0
    3.8988   54.4960   26.9504 C   0  0  0  0  0  0
    4.1408   54.6477   25.5880 C   0  0  0  0  0  0
    5.4620   54.4954   25.1208 C   0  0  0  0  0  0
    5.8414   54.6159   23.6902 C   0  0  0  0  0  0
    5.1476   54.2929   22.5640 C   0  0  0  0  0  0
    3.7672   53.6277   22.5966 C   0  0  0  0  0  0
    3.6985   52.5363   21.5161 C   0  0  0  0  0  0
    3.9611   53.1059   20.1139 C   0  0  0  0  0  0
    5.1995   54.0059   20.0946 C   0  0  0  0  0  0
    5.7347   54.5319   21.2295 C   0  0  0  0  0  0
    6.8553   55.2972   21.1163 O   0  0  0  0  0  0
    5.7716   54.2538   18.8623 C   0  0  0  0  0  0
    6.0269   55.4595   18.3570 N   0  3  0  0  0  0
    6.8248   55.3224   17.1456 C   0  0  0  0  0  0
    6.4924   53.8893   16.7242 C   0  0  0  0  0  0
    6.0900   53.2967   17.9946 N   0  0  0  0  0  0
    2.7274   54.6332   27.6248 O   0  0  0  0  0  0
    2.9991   54.2389   28.9427 C   0  0  0  0  0  0
    4.3928   54.1974   29.0975 O   0  0  0  0  0  0
    7.5037   54.1090   25.7128 H   0  0  0  0  0  0
    7.0179   53.9042   28.1302 H   0  0  0  0  0  0
    3.3304   54.8990   24.9219 H   0  0  0  0  0  0
    6.8216   55.0560   23.5600 H   0  0  0  0  0  0
    3.5755   53.1333   23.5468 H   0  0  0  0  0  0
    2.9751   54.3645   22.4506 H   0  0  0  0  0  0
    4.4322   51.7560   21.7290 H   0  0  0  0  0  0
    2.7231   52.0474   21.5368 H   0  0  0  0  0  0
    3.1043   53.6840   19.7675 H   0  0  0  0  0  0
    4.0623   52.2793   19.4089 H   0  0  0  0  0  0
    7.2203   55.1953   20.2348 H   0  0  0  0  0  0
    6.5296   56.0612   16.3995 H   0  0  0  0  0  0
    7.8772   55.4522   17.4009 H   0  0  0  0  0  0
    7.3408   53.3474   16.2999 H   0  0  0  0  0  0
    5.6422   53.8409   16.0378 H   0  0  0  0  0  0
    5.9042   52.3018   18.1133 H   0  0  0  0  0  0
    2.5506   54.9436   29.6445 H   0  0  0  0  0  0
    2.5895   53.2390   29.1069 H   0  0  0  0  0  0
    5.7846   56.3424   18.7852 H   0  0  0  0  0  0
  1  6  2  0  0  0
  1  2  1  0  0  0
  1 23  1  0  0  0
  2  3  2  0  0  0
  2 24  1  0  0  0
  3 22  1  0  0  0
  3  4  1  0  0  0
  4  5  2  0  0  0
  4 20  1  0  0  0
  5  6  1  0  0  0
  5 25  1  0  0  0
  6  7  1  0  0  0
  7  8  2  0  0  0
  7 26  1  0  0  0
  8 13  1  0  0  0
  8  9  1  0  0  0
  9 10  1  0  0  0
  9 27  1  0  0  0
  9 28  1  0  0  0
 10 11  1  0  0  0
 10 29  1  0  0  0
 10 30  1  0  0  0
 11 12  1  0  0  0
 11 31  1  0  0  0
 11 32  1  0  0  0
 12 13  2  0  0  0
 12 15  1  0  0  0
 13 14  1  0  0  0
 14 33  1  0  0  0
 15 19  1  0  0  0
 15 16  2  0  0  0
 16 17  1  0  0  0
 16 41  1  0  0  0
 17 18  1  0  0  0
 17 34  1  0  0  0
 17 35  1  0  0  0
 18 19  1  0  0  0
 18 36  1  0  0  0
 18 37  1  0  0  0
 19 38  1  0  0  0
 20 21  1  0  0  0
 21 22  1  0  0  0
 21 39  1  0  0  0
 21 40  1  0  0  0
M  CHG  1  16   1
M  END
> <i_i_glide_confnum>
4

> <i_i_glide_lignum>
4709

> <i_i_glide_posenum>
341

> <i_i_glide_rotatable_bonds>
3

> <i_m_Source_File_Index>
5202

> <b_m_subgroup_collapsed>
0

> <r_i_docking_score>
-6.18505

> <r_i_glide_ecoul>
-1.96537

> <r_i_glide_eff_state_penalty>
0

> <r_i_glide_einternal>
0.96539

> <r_i_glide_emodel>
-47.307

> <r_i_glide_energy>
-32.2716

> <r_i_glide_erotb>
0.20495

> <r_i_glide_esite>
-0.0876867

> <r_i_glide_evdw>
-30.3062

> <r_i_glide_gscore>
-6.18505

> <r_i_glide_hbond>
-0.2

> <r_i_glide_ligand_efficiency>
-0.281139

> <r_i_glide_ligand_efficiency_ln>
-1.51185

> <r_i_glide_ligand_efficiency_sa>
-0.787761

> <r_i_glide_lipo>
-2.52583

> <r_i_glide_metal>
0

> <r_i_glide_rewards>
-1.76637

> <s_i_glide_gridfile>
wee1_glide-grid

> <s_m_Source_File>
wee1_decoys_glide_SP.sdf

> <s_m_Source_Path>
/Users/zhangxujun/Desktop

> <s_m_entry_id>
5477

> <s_m_entry_name>
wee1_decoys_glide_SP.5202

> <s_m_subgroup_title>
wee1_decoys_glide_SP

> <s_m_subgroupid>
wee1_decoys_glide_SP


$$$$
