ZINC12716786_3135
                    3D
 Schrodinger Suite 2024-2.
 66 69  0  0  1  0            999 V2000
    3.5337   54.5447   27.5002 C   0  0  0  0  0  0
    4.2500   54.7472   26.2863 O   0  0  0  0  0  0
    3.7451   54.2359   25.1036 C   0  0  0  0  0  0
    2.4570   53.6973   24.9810 C   0  0  0  0  0  0
    2.0195   53.1760   23.7679 C   0  0  0  0  0  0
    2.8614   53.1231   22.6470 C   0  0  0  0  0  0
    4.1286   53.7213   22.7664 C   0  0  0  0  0  0
    4.5782   54.2785   23.9772 C   0  0  0  0  0  0
    5.8131   54.8854   24.1365 O   0  0  0  0  0  0
    6.6906   55.0157   23.0249 C   0  0  0  0  0  0
    2.3964   52.4703   21.3304 C   0  0  1  0  0  0
    1.9699   53.2757   20.7408 H   0  0  0  0  0  0
    3.5600   51.8939   20.4616 C   0  0  0  0  0  0
    4.1998   50.9343   20.8817 O   0  0  0  0  0  0
    3.9476   52.4967   19.3237 N   0  0  0  0  0  0
    3.4817   53.7394   18.7179 C   0  0  0  0  0  0
    4.6115   54.4447   17.9617 C   0  0  0  0  0  0
    3.8915   55.3647   16.9761 C   0  0  0  0  0  0
    2.6458   54.5807   16.5505 C   0  0  0  0  0  0
    2.3983   53.5314   17.6488 C   0  0  0  0  0  0
    1.2803   51.4722   21.5229 N   0  0  0  0  0  0
    0.0099   51.9034   20.9092 C   0  0  0  0  0  0
   -0.0884   51.5445   19.4399 C   0  0  0  0  0  0
    0.6581   50.7555   18.5719 C   0  0  0  0  0  0
    0.0478   50.8320   17.3209 C   0  0  0  0  0  0
   -1.0457   51.6654   17.4762 C   0  0  0  0  0  0
   -1.1282   52.0975   18.7611 O   0  0  0  0  0  0
    1.3936   50.3504   22.3103 C   0  0  0  0  0  0
    2.4367   50.0520   22.8819 O   0  0  0  0  0  0
    0.2455   49.4979   22.5575 C   0  0  0  0  0  0
   -0.1953   48.9599   23.7688 C   0  0  0  0  0  0
   -1.2826   48.0772   23.5782 C   0  0  0  0  0  0
   -1.6723   47.8710   22.3336 N   0  0  0  0  0  0
   -0.6834   48.7783   21.2764 S   0  0  0  0  0  0
   -1.9524   47.3039   24.6010 C   0  0  0  0  0  0
   -2.1543   46.0964   24.4932 O   0  0  0  0  0  0
   -2.3216   47.9929   25.6816 N   0  0  0  0  0  0
    0.3776   49.2526   24.9827 N   0  0  0  0  0  0
    4.1314   54.9155   28.3334 H   0  0  0  0  0  0
    2.5885   55.0887   27.5055 H   0  0  0  0  0  0
    3.3408   53.4861   27.6813 H   0  0  0  0  0  0
    1.7772   53.6753   25.8182 H   0  0  0  0  0  0
    1.0188   52.7755   23.7263 H   0  0  0  0  0  0
    4.7786   53.7356   21.9066 H   0  0  0  0  0  0
    7.5047   55.6834   23.3019 H   0  0  0  0  0  0
    7.1242   54.0541   22.7531 H   0  0  0  0  0  0
    6.2055   55.4511   22.1508 H   0  0  0  0  0  0
    4.6219   51.9614   18.7790 H   0  0  0  0  0  0
    3.1062   54.4622   19.4355 H   0  0  0  0  0  0
    5.2205   53.7169   17.4208 H   0  0  0  0  0  0
    5.2921   54.9715   18.6324 H   0  0  0  0  0  0
    4.5190   55.6385   16.1283 H   0  0  0  0  0  0
    3.5987   56.2890   17.4775 H   0  0  0  0  0  0
    2.8157   54.0858   15.5917 H   0  0  0  0  0  0
    1.7880   55.2431   16.4245 H   0  0  0  0  0  0
    1.3994   53.6000   18.0778 H   0  0  0  0  0  0
    2.4814   52.5356   17.2083 H   0  0  0  0  0  0
   -0.8420   51.4834   21.4433 H   0  0  0  0  0  0
   -0.0824   52.9742   21.0558 H   0  0  0  0  0  0
    1.5513   50.1957   18.8143 H   0  0  0  0  0  0
    0.3739   50.3443   16.4130 H   0  0  0  0  0  0
   -1.8054   52.0253   16.7987 H   0  0  0  0  0  0
   -2.0756   48.9657   25.7780 H   0  0  0  0  0  0
   -2.6505   47.5113   26.5081 H   0  0  0  0  0  0
    0.1288   48.7539   25.8296 H   0  0  0  0  0  0
    1.2530   49.7570   25.0066 H   0  0  0  0  0  0
  1  2  1  0  0  0
  1 39  1  0  0  0
  1 40  1  0  0  0
  1 41  1  0  0  0
  2  3  1  0  0  0
  3  8  2  0  0  0
  3  4  1  0  0  0
  4  5  2  0  0  0
  4 42  1  0  0  0
  5  6  1  0  0  0
  5 43  1  0  0  0
  6  7  2  0  0  0
  6 11  1  0  0  0
  7  8  1  0  0  0
  7 44  1  0  0  0
  8  9  1  0  0  0
  9 10  1  0  0  0
 10 45  1  0  0  0
 10 46  1  0  0  0
 10 47  1  0  0  0
 11 12  1  0  0  0
 11 13  1  0  0  0
 11 21  1  0  0  0
 13 14  2  0  0  0
 13 15  1  0  0  0
 15 16  1  0  0  0
 15 48  1  0  0  0
 16 20  1  0  0  0
 16 17  1  0  0  0
 16 49  1  0  0  0
 17 18  1  0  0  0
 17 50  1  0  0  0
 17 51  1  0  0  0
 18 19  1  0  0  0
 18 52  1  0  0  0
 18 53  1  0  0  0
 19 20  1  0  0  0
 19 54  1  0  0  0
 19 55  1  0  0  0
 20 56  1  0  0  0
 20 57  1  0  0  0
 21 22  1  0  0  0
 21 28  1  0  0  0
 22 23  1  0  0  0
 22 58  1  0  0  0
 22 59  1  0  0  0
 23 27  1  0  0  0
 23 24  2  0  0  0
 24 25  1  0  0  0
 24 60  1  0  0  0
 25 26  2  0  0  0
 25 61  1  0  0  0
 26 27  1  0  0  0
 26 62  1  0  0  0
 28 29  2  0  0  0
 28 30  1  0  0  0
 30 34  1  0  0  0
 30 31  2  0  0  0
 31 32  1  0  0  0
 31 38  1  0  0  0
 32 33  2  0  0  0
 32 35  1  0  0  0
 33 34  1  0  0  0
 35 36  2  0  0  0
 35 37  1  0  0  0
 37 63  1  0  0  0
 37 64  1  0  0  0
 38 65  1  0  0  0
 38 66  1  0  0  0
M  END
> <i_i_glide_confnum>
63

> <i_i_glide_lignum>
3136

> <i_i_glide_posenum>
240

> <i_i_glide_rotatable_bonds>
12

> <i_m_Source_File_Index>
2672

> <b_m_subgroup_collapsed>
0

> <r_i_docking_score>
-3.26077

> <r_i_glide_ecoul>
-9.26605

> <r_i_glide_eff_state_penalty>
0

> <r_i_glide_einternal>
31.1513

> <r_i_glide_emodel>
-35.3485

> <r_i_glide_energy>
-47.2145

> <r_i_glide_erotb>
0.362563

> <r_i_glide_esite>
-0.301244

> <r_i_glide_evdw>
-37.9484

> <r_i_glide_gscore>
-3.26077

> <r_i_glide_hbond>
-0.259719

> <r_i_glide_ligand_efficiency>
-0.0881288

> <r_i_glide_ligand_efficiency_ln>
-0.707184

> <r_i_glide_ligand_efficiency_sa>
-0.293665

> <r_i_glide_lipo>
-1.65526

> <r_i_glide_metal>
0

> <r_i_glide_rewards>
1.88022

> <s_i_glide_gridfile>
wee1_glide-grid

> <s_m_Source_File>
wee1_decoys_glide_SP.sdf

> <s_m_Source_Path>
/Users/zhangxujun/Desktop

> <s_m_entry_id>
2947

> <s_m_entry_name>
wee1_decoys_glide_SP.2672

> <s_m_subgroup_title>
wee1_decoys_glide_SP

> <s_m_subgroupid>
wee1_decoys_glide_SP


$$$$
