@<TRIPOS>MOLECULE
ZINC12329549_2138
62   65    1
SMALL
USER_CHARGES


@<TRIPOS>ATOM
      1 C1         -5.0029   46.6226   20.7664 C.3       1 UNK         0.0000 
      2 C2         -4.2880   45.3954   21.3545 C.3       1 UNK         0.0000 
      3 O3         -4.1606   45.4815   22.7739 O.3       1 UNK         0.0000 
      4 C4         -3.2561   46.3572   23.3467 C.ar      1 UNK         0.0000 
      5 C5         -3.3283   46.4962   24.7311 C.ar      1 UNK         0.0000 
      6 C6         -2.4339   47.3205   25.4050 C.ar      1 UNK         0.0000 
      7 C7         -1.4571   48.0272   24.7009 C.ar      1 UNK         0.0000 
      8 C8         -1.3906   47.9033   23.3093 C.ar      1 UNK         0.0000 
      9 C9         -2.2773   47.0673   22.6372 C.ar      1 UNK         0.0000 
     10 C10        -0.4785   48.9067   25.4811 C.3       1 UNK         0.0000 
     11 H11        -0.1893   48.3370   26.3644 H         1 UNK         0.0000 
     12 C12        -1.1179   50.2474   25.9336 C.3       1 UNK         0.0000 
     13 C13        -0.8968   52.3734   27.3153 C.3       1 UNK         0.0000 
     14 C14        -0.2498   53.0036   28.5737 C.3       1 UNK         0.0000 
     15 C15         1.2923   52.9370   28.5669 C.3       1 UNK         0.0000 
     16 C16         1.6448   51.4361   28.4702 C.3       1 UNK         0.0000 
     17 C17         1.1041   50.8124   27.1783 C.3       1 UNK         0.0000 
     18 C18         1.8885   53.6835   29.7913 C.3       1 UNK         0.0000 
     19 C19         3.4270   53.6655   29.7964 C.3       1 UNK         0.0000 
     20 H20         3.7909   54.4342   30.4790 H         1 UNK         0.0000 
     21 C21         3.9501   53.9754   28.3974 C.ar      1 UNK         0.0000 
     22 C22         5.2919   54.3029   28.1696 C.ar      1 UNK         0.0000 
     23 C23         5.7743   54.4966   26.8764 C.ar      1 UNK         0.0000 
     24 C24         4.9349   54.3664   25.7705 C.ar      1 UNK         0.0000 
     25 C25         3.5843   54.0473   25.9844 C.ar      1 UNK         0.0000 
     26 C26         3.1036   53.8425   27.2780 C.ar      1 UNK         0.0000 
     27 O27         1.7395   53.6166   27.3827 O.3       1 UNK         0.0000 
     28 O28         5.5081   54.5686   24.5309 O.3       1 UNK         0.0000 
     29 C29         4.7462   54.2915   23.3606 C.3       1 UNK         0.0000 
     30 O30         3.9046   52.4424   30.3198 O.3       1 UNK         0.0000 
     31 O31         0.7043   49.1888   24.7518 O.3       1 UNK         0.0000 
     32 H32        -5.1343   46.5174   19.6876 H         1 UNK         0.0000 
     33 H33        -4.4510   47.5460   20.9403 H         1 UNK         0.0000 
     34 H34        -5.9925   46.7459   21.2098 H         1 UNK         0.0000 
     35 H35        -4.8850   44.5086   21.1406 H         1 UNK         0.0000 
     36 H36        -3.3228   45.2231   20.8737 H         1 UNK         0.0000 
     37 H37        -4.0847   45.9647   25.2900 H         1 UNK         0.0000 
     38 H38        -2.4966   47.4077   26.4810 H         1 UNK         0.0000 
     39 H39        -0.6459   48.4414   22.7410 H         1 UNK         0.0000 
     40 H40        -2.1798   46.9783   21.5671 H         1 UNK         0.0000 
     41 H41        -1.1056   50.9831   25.1295 H         1 UNK         0.0000 
     42 H42        -2.1421   50.0984   26.2767 H         1 UNK         0.0000 
     43 H43        -0.6103   52.8913   26.3981 H         1 UNK         0.0000 
     44 H44        -1.9847   52.3451   27.4027 H         1 UNK         0.0000 
     45 H45        -0.5297   54.0546   28.6334 H         1 UNK         0.0000 
     46 H46        -0.6507   52.5360   29.4743 H         1 UNK         0.0000 
     47 H47         1.2637   50.8975   29.3347 H         1 UNK         0.0000 
     48 H48         2.7221   51.2947   28.4716 H         1 UNK         0.0000 
     49 H49         1.3880   49.7621   27.1559 H         1 UNK         0.0000 
     50 H50         1.4474   51.3161   26.2754 H         1 UNK         0.0000 
     51 H51         1.5747   54.7281   29.7433 H         1 UNK         0.0000 
     52 H52         1.4816   53.3182   30.7365 H         1 UNK         0.0000 
     53 H53         5.9764   54.4059   28.9989 H         1 UNK         0.0000 
     54 H54         6.8161   54.7415   26.7302 H         1 UNK         0.0000 
     55 H55         2.8950   53.9536   25.1605 H         1 UNK         0.0000 
     56 H56         5.3476   54.5064   22.4769 H         1 UNK         0.0000 
     57 H57         4.4619   53.2412   23.3122 H         1 UNK         0.0000 
     58 H58         3.8414   54.8976   23.2983 H         1 UNK         0.0000 
     59 H59         4.8519   52.4039   30.1645 H         1 UNK         0.0000 
     60 H60         1.2797   48.4139   24.7658 H         1 UNK         0.0000 
     61 N61        -0.4380   50.8981   27.1776 N.4       1 UNK         0.0000 
     62 H62        -0.7628   50.3718   27.9852 H         1 UNK         0.0000 
@<TRIPOS>BOND
     1    1    2 1    
     2    1   32 1    
     3    1   33 1    
     4    1   34 1    
     5    2    3 1    
     6    2   35 1    
     7    2   36 1    
     8    3    4 1    
     9    4    9 ar   
    10    4    5 ar   
    11    5    6 ar   
    12    5   37 1    
    13    6    7 ar   
    14    6   38 1    
    15    7    8 ar   
    16    7   10 1    
    17    8    9 ar   
    18    8   39 1    
    19    9   40 1    
    20   10   11 1    
    21   10   12 1    
    22   10   31 1    
    23   12   41 1    
    24   12   42 1    
    25   12   61 1    
    26   13   14 1    
    27   13   43 1    
    28   13   44 1    
    29   13   61 1    
    30   14   15 1    
    31   14   45 1    
    32   14   46 1    
    33   15   27 1    
    34   15   16 1    
    35   15   18 1    
    36   16   17 1    
    37   16   47 1    
    38   16   48 1    
    39   17   49 1    
    40   17   50 1    
    41   17   61 1    
    42   18   19 1    
    43   18   51 1    
    44   18   52 1    
    45   19   20 1    
    46   19   21 1    
    47   19   30 1    
    48   21   26 ar   
    49   21   22 ar   
    50   22   23 ar   
    51   22   53 1    
    52   23   24 ar   
    53   23   54 1    
    54   24   25 ar   
    55   24   28 1    
    56   25   26 ar   
    57   25   55 1    
    58   26   27 1    
    59   28   29 1    
    60   29   56 1    
    61   29   57 1    
    62   29   58 1    
    63   30   59 1    
    64   31   60 1    
    65   61   62 1    
@<TRIPOS>SUBSTRUCTURE
     1 UNK         1 GROUP             0       ****    0 ROOT    
