@<TRIPOS>MOLECULE
ZINC22620725_4064
64   66    1
SMALL
USER_CHARGES


@<TRIPOS>ATOM
      1 C1          0.6747   52.4438   18.4148 C.3       1 UNK         0.0000 
      2 C2          1.3179   51.4183   19.3731 C.3       1 UNK         0.0000 
      3 H3          0.5376   50.8875   19.9219 H         1 UNK         0.0000 
      4 C4          2.3283   52.1152   20.2805 C.ar      1 UNK         0.0000 
      5 N5          3.4337   52.6549   19.8320 N.2       1 UNK         0.0000 
      6 N6          4.0387   53.2886   20.9019 N.2       1 UNK         0.0000 
      7 C7          3.3107   53.0755   21.9691 C.ar      1 UNK         0.0000 
      8 N8          2.2084   52.3041   21.6490 N.pl3     1 UNK         0.0000 
      9 C9          1.1605   51.9094   22.5093 C.ar      1 UNK         0.0000 
     10 C10         0.8255   50.5555   22.6174 C.ar      1 UNK         0.0000 
     11 C11        -0.1966   50.1644   23.4770 C.ar      1 UNK         0.0000 
     12 C12        -0.8807   51.1239   24.2207 C.ar      1 UNK         0.0000 
     13 C13        -0.5427   52.4719   24.1241 C.ar      1 UNK         0.0000 
     14 C14         0.4901   52.8668   23.2811 C.ar      1 UNK         0.0000 
     15 Cl15       -2.1537   50.6382   25.2781 Cl        1 UNK         0.0000 
     16 S16         3.6818   53.6607   23.6004 S.3       1 UNK         0.0000 
     17 C17         5.3757   54.3587   23.4988 C.3       1 UNK         0.0000 
     18 H18         5.2155   55.2967   23.0103 H         1 UNK         0.0000 
     19 C19         6.4207   53.6948   22.6079 C.3       1 UNK         0.0000 
     20 C20         5.9650   54.7126   24.8688 C.2       1 UNK         0.0000 
     21 O21         6.7046   55.6967   24.9664 O.2       1 UNK         0.0000 
     22 N22         5.6612   53.8626   25.8696 N.am      1 UNK         0.0000 
     23 C23         5.7782   54.0903   27.1827 C.2       1 UNK         0.0000 
     24 O24         6.3037   55.0769   27.6817 O.2       1 UNK         0.0000 
     25 N25         5.1671   53.1275   27.8860 N.am      1 UNK         0.0000 
     26 C26         4.3022   53.3481   29.0403 C.3       1 UNK         0.0000 
     27 C27         2.9285   53.9667   28.6760 C.3       1 UNK         0.0000 
     28 C28         1.9879   54.1446   29.8822 C.3       1 UNK         0.0000 
     29 C29         1.8599   52.8643   30.7356 C.3       1 UNK         0.0000 
     30 C30         3.2272   52.2662   31.1216 C.3       1 UNK         0.0000 
     31 C31         4.1352   52.0715   29.8993 C.3       1 UNK         0.0000 
     32 N32         2.0590   50.3024   18.5793 N.4       1 UNK         0.0000 
     33 C33         2.5238   49.1415   19.4862 C.3       1 UNK         0.0000 
     34 C34         1.2978   49.7297   17.3601 C.3       1 UNK         0.0000 
     35 H35         0.2792   53.2959   18.9679 H         1 UNK         0.0000 
     36 H36         1.4017   52.8421   17.7057 H         1 UNK         0.0000 
     37 H37        -0.1538   52.0154   17.8506 H         1 UNK         0.0000 
     38 H38         1.3606   49.8037   22.0571 H         1 UNK         0.0000 
     39 H39        -0.4565   49.1200   23.5706 H         1 UNK         0.0000 
     40 H40        -1.0737   53.2087   24.7093 H         1 UNK         0.0000 
     41 H41         0.7668   53.9109   23.2469 H         1 UNK         0.0000 
     42 H42         7.4516   53.9234   22.8900 H         1 UNK         0.0000 
     43 H43         6.3042   52.6106   22.5950 H         1 UNK         0.0000 
     44 H44         6.3044   54.0736   21.5917 H         1 UNK         0.0000 
     45 H45         5.1545   53.0317   25.6049 H         1 UNK         0.0000 
     46 H46         5.0934   52.2134   27.4635 H         1 UNK         0.0000 
     47 H47         4.8133   54.0691   29.6817 H         1 UNK         0.0000 
     48 H48         2.4324   53.3191   27.9515 H         1 UNK         0.0000 
     49 H49         3.0689   54.9313   28.1851 H         1 UNK         0.0000 
     50 H50         1.0003   54.4483   29.5314 H         1 UNK         0.0000 
     51 H51         2.3514   54.9772   30.4816 H         1 UNK         0.0000 
     52 H52         1.2927   52.1196   30.1734 H         1 UNK         0.0000 
     53 H53         1.2692   53.0668   31.6310 H         1 UNK         0.0000 
     54 H54         3.0835   51.3257   31.6538 H         1 UNK         0.0000 
     55 H55         3.7555   52.8966   31.8315 H         1 UNK         0.0000 
     56 H56         5.1043   51.6970   30.2268 H         1 UNK         0.0000 
     57 H57         3.6923   51.2920   29.2813 H         1 UNK         0.0000 
     58 H58         1.6372   48.6191   19.8499 H         1 UNK         0.0000 
     59 H59         3.1515   48.4860   18.8781 H         1 UNK         0.0000 
     60 H60         3.1043   49.5638   20.3067 H         1 UNK         0.0000 
     61 H61         0.3326   49.3578   17.7056 H         1 UNK         0.0000 
     62 H62         1.1878   50.5295   16.6273 H         1 UNK         0.0000 
     63 H63         1.9043   48.9295   16.9300 H         1 UNK         0.0000 
     64 H64         2.9113   50.7170   18.2080 H         1 UNK         0.0000 
@<TRIPOS>BOND
     1    1    2 1    
     2    1   35 1    
     3    1   36 1    
     4    1   37 1    
     5    2    3 1    
     6    2    4 1    
     7    2   32 1    
     8    4    8 ar   
     9    4    5 ar   
    10    5    6 ar   
    11    6    7 ar   
    12    7    8 ar   
    13    7   16 1    
    14    8    9 1    
    15    9   14 ar   
    16    9   10 ar   
    17   10   11 ar   
    18   10   38 1    
    19   11   12 ar   
    20   11   39 1    
    21   12   13 ar   
    22   12   15 1    
    23   13   14 ar   
    24   13   40 1    
    25   14   41 1    
    26   16   17 1    
    27   17   18 1    
    28   17   19 1    
    29   17   20 1    
    30   19   42 1    
    31   19   43 1    
    32   19   44 1    
    33   20   21 2    
    34   20   22 am   BACKBONE|DICT|INTERRES
    35   22   23 am   BACKBONE|DICT|INTERRES
    36   22   45 1    
    37   23   24 2    
    38   23   25 am   BACKBONE|DICT|INTERRES
    39   25   26 1    
    40   25   46 1    
    41   26   31 1    
    42   26   27 1    
    43   26   47 1    
    44   27   28 1    
    45   27   48 1    
    46   27   49 1    
    47   28   29 1    
    48   28   50 1    
    49   28   51 1    
    50   29   30 1    
    51   29   52 1    
    52   29   53 1    
    53   30   31 1    
    54   30   54 1    
    55   30   55 1    
    56   31   56 1    
    57   31   57 1    
    58   32   33 1    
    59   32   34 1    
    60   32   64 1    
    61   33   58 1    
    62   33   59 1    
    63   33   60 1    
    64   34   61 1    
    65   34   62 1    
    66   34   63 1    
@<TRIPOS>SUBSTRUCTURE
     1 UNK         1 GROUP             0       ****    0 ROOT    
