ZINC01215191_2482
                    3D
 Schrodinger Suite 2024-2.
 44 47  0  0  1  0            999 V2000
    5.1996   53.5538   16.1389 C   0  0  0  0  0  0
    4.8228   53.6103   17.5958 C   0  0  0  0  0  0
    3.9619   52.8969   18.3945 C   0  0  0  0  0  0
    4.1333   53.4223   19.6769 C   0  0  0  0  0  0
    4.9836   54.4251   19.6726 N   0  0  0  0  0  0
    5.4412   54.5449   18.3594 O   0  0  0  0  0  0
    3.5047   53.0764   20.8546 N   0  0  0  0  0  0
    2.8278   51.9394   21.1131 C   0  0  0  0  0  0
    2.7216   50.9939   20.3276 O   0  0  0  0  0  0
    2.2081   51.8870   22.4284 C   0  0  0  0  0  0
    2.1581   52.9079   23.4170 C   0  0  0  0  0  0
    1.4321   52.3675   24.4571 C   0  0  0  0  0  0
    1.0999   51.0876   24.0813 N   0  0  0  0  0  0
    1.5655   50.8134   22.8559 N   0  0  0  0  0  0
    0.2013   50.1778   24.7972 C   0  0  1  0  0  0
    0.6037   49.1669   24.6979 H   0  0  0  0  0  0
    0.2266   50.5913   26.2944 C   0  0  0  0  0  0
    0.1562   52.1268   26.5537 C   0  0  2  0  0  0
   -0.8295   52.4919   26.2611 H   0  0  0  0  0  0
    1.1044   52.8585   25.7002 N   0  0  0  0  0  0
    0.2310   52.5179   28.0436 C   0  0  0  0  0  0
   -0.4552   51.7578   28.9971 C   0  0  0  0  0  0
   -0.3998   52.0966   30.3431 C   0  0  0  0  0  0
    0.3005   53.2257   30.7510 C   0  0  0  0  0  0
    0.9668   54.0121   29.8184 C   0  0  0  0  0  0
    0.9371   53.6563   28.4721 C   0  0  0  0  0  0
    0.3043   53.7071   32.5904 Br  0  0  0  0  0  0
   -1.2264   50.1510   24.1964 C   0  0  0  0  0  0
   -1.8016   51.3553   24.2168 F   0  0  0  0  0  0
   -1.2208   49.7327   22.9304 F   0  0  0  0  0  0
   -2.0233   49.3266   24.8746 F   0  0  0  0  0  0
    2.8287   54.4964   23.4116 Cl  0  0  0  0  0  0
    4.6353   52.7823   15.6141 H   0  0  0  0  0  0
    6.2572   53.3217   16.0101 H   0  0  0  0  0  0
    5.0052   54.5013   15.6356 H   0  0  0  0  0  0
    3.3370   52.0692   18.0898 H   0  0  0  0  0  0
    3.5987   53.7382   21.6070 H   0  0  0  0  0  0
   -0.5938   50.0819   26.7982 H   0  0  0  0  0  0
    1.1045   50.1670   26.7762 H   0  0  0  0  0  0
    1.0585   53.8574   25.8285 H   0  0  0  0  0  0
   -1.0401   50.8966   28.7171 H   0  0  0  0  0  0
   -0.9023   51.4774   31.0702 H   0  0  0  0  0  0
    1.4985   54.8988   30.1335 H   0  0  0  0  0  0
    1.4629   54.2876   27.7711 H   0  0  0  0  0  0
  1  2  1  0  0  0
  1 33  1  0  0  0
  1 34  1  0  0  0
  1 35  1  0  0  0
  2  6  1  0  0  0
  2  3  2  0  0  0
  3  4  1  0  0  0
  3 36  1  0  0  0
  4  5  2  0  0  0
  4  7  1  0  0  0
  5  6  1  0  0  0
  7  8  1  0  0  0
  7 37  1  0  0  0
  8  9  2  0  0  0
  8 10  1  0  0  0
 10 14  2  0  0  0
 10 11  1  0  0  0
 11 12  2  0  0  0
 11 32  1  0  0  0
 12 20  1  0  0  0
 12 13  1  0  0  0
 13 14  1  0  0  0
 13 15  1  0  0  0
 15 16  1  0  0  0
 15 17  1  0  0  0
 15 28  1  0  0  0
 17 18  1  0  0  0
 17 38  1  0  0  0
 17 39  1  0  0  0
 18 19  1  0  0  0
 18 20  1  0  0  0
 18 21  1  0  0  0
 20 40  1  0  0  0
 21 26  2  0  0  0
 21 22  1  0  0  0
 22 23  2  0  0  0
 22 41  1  0  0  0
 23 24  1  0  0  0
 23 42  1  0  0  0
 24 25  2  0  0  0
 24 27  1  0  0  0
 25 26  1  0  0  0
 25 43  1  0  0  0
 26 44  1  0  0  0
 28 29  1  0  0  0
 28 30  1  0  0  0
 28 31  1  0  0  0
M  END
> <i_i_glide_confnum>
47

> <i_i_glide_lignum>
2483

> <i_i_glide_posenum>
284

> <i_i_glide_rotatable_bonds>
5

> <i_m_Source_File_Index>
4210

> <b_m_subgroup_collapsed>
0

> <r_i_docking_score>
-2.99894

> <r_i_glide_ecoul>
-1.62227

> <r_i_glide_eff_state_penalty>
0

> <r_i_glide_einternal>
7.58999

> <r_i_glide_emodel>
-43.2703

> <r_i_glide_energy>
-39.5613

> <r_i_glide_erotb>
0.321123

> <r_i_glide_esite>
-0.0480698

> <r_i_glide_evdw>
-37.939

> <r_i_glide_gscore>
-2.99894

> <r_i_glide_hbond>
0

> <r_i_glide_ligand_efficiency>
-0.0999647

> <r_i_glide_ligand_efficiency_ln>
-0.681392

> <r_i_glide_ligand_efficiency_sa>
-0.310613

> <r_i_glide_lipo>
-1.03075

> <r_i_glide_metal>
0

> <r_i_glide_rewards>
-0.100953

> <s_i_glide_gridfile>
wee1_glide-grid

> <s_m_Source_File>
wee1_decoys_glide_SP.sdf

> <s_m_Source_Path>
/Users/zhangxujun/Desktop

> <s_m_entry_id>
4485

> <s_m_entry_name>
wee1_decoys_glide_SP.4210

> <s_m_subgroup_title>
wee1_decoys_glide_SP

> <s_m_subgroupid>
wee1_decoys_glide_SP


$$$$
