@<TRIPOS>MOLECULE
ZINC39608931_630
79   83    1
SMALL
USER_CHARGES


@<TRIPOS>ATOM
      1 C1          0.3051   53.5300   30.6356 C.ar      1 UNK         0.0000 
      2 C2          1.0130   54.5144   29.9485 C.ar      1 UNK         0.0000 
      3 C3          1.3248   54.3281   28.6029 C.ar      1 UNK         0.0000 
      4 C4          0.9325   53.1560   27.9455 C.ar      1 UNK         0.0000 
      5 C5          0.2169   52.1770   28.6447 C.ar      1 UNK         0.0000 
      6 C6         -0.0959   52.3649   29.9896 C.ar      1 UNK         0.0000 
      7 C7          1.2540   52.9312   26.4680 C.3       1 UNK         0.0000 
      8 O8          2.3212   53.7720   26.0346 O.3       1 UNK         0.0000 
      9 C9          2.9182   53.4368   24.7821 C.3       1 UNK         0.0000 
     10 H10         3.0366   52.3598   24.7519 H         1 UNK         0.0000 
     11 C11         4.2886   54.1108   24.7066 C.3       1 UNK         0.0000 
     12 C12         4.6146   54.1218   23.2123 C.3       1 UNK         0.0000 
     13 C13         3.2683   54.2937   22.4935 C.3       1 UNK         0.0000 
     14 C14         2.1647   53.9681   23.5341 C.3       1 UNK         0.0000 
     15 H15         1.7319   54.9129   23.8623 H         1 UNK         0.0000 
     16 N16         1.1083   53.0651   23.0451 N.am      1 UNK         0.0000 
     17 C17         1.2913   51.8533   22.4887 C.2       1 UNK         0.0000 
     18 O18         2.4100   51.3883   22.2656 O.2       1 UNK         0.0000 
     19 C19         0.0108   51.0578   22.1236 C.3       1 UNK         0.0000 
     20 H20        -0.7753   51.7626   21.8453 H         1 UNK         0.0000 
     21 C21         0.3145   50.1343   20.9194 C.3       1 UNK         0.0000 
     22 N22        -0.5468   48.9717   21.1450 N.am      1 UNK         0.0000 
     23 C23        -1.2565   49.0311   22.4234 C.3       1 UNK         0.0000 
     24 C24        -0.4813   50.0892   23.2397 C.3       1 UNK         0.0000 
     25 C25        -1.3521   50.8117   24.3017 C.3       1 UNK         0.0000 
     26 C26        -1.8756   49.8561   25.3918 C.3       1 UNK         0.0000 
     27 N27        -0.6517   49.2236   26.0817 N.4       1 UNK         0.0000 
     28 C28         0.2519   48.4442   25.1082 C.3       1 UNK         0.0000 
     29 C29         0.7038   49.4217   24.0163 C.3       1 UNK         0.0000 
     30 C30        -0.6152   47.9010   20.3192 C.2       1 UNK         0.0000 
     31 O31        -1.3326   46.9298   20.5700 O.2       1 UNK         0.0000 
     32 C32         0.2510   47.9047   19.0423 C.3       1 UNK         0.0000 
     33 C33         0.2260   46.5937   18.2186 C.3       1 UNK         0.0000 
     34 C34         1.4397   46.4502   17.2786 C.3       1 UNK         0.0000 
     35 C35         1.4647   45.1394   16.4826 C.3       1 UNK         0.0000 
     36 C36         2.4714   45.3805   15.3537 C.3       1 UNK         0.0000 
     37 C37         2.4532   46.8947   15.0933 C.3       1 UNK         0.0000 
     38 C38         1.5543   47.5107   16.1755 C.3       1 UNK         0.0000 
     39 H39         0.0572   53.6668   31.6787 H         1 UNK         0.0000 
     40 H40         1.3094   55.4221   30.4542 H         1 UNK         0.0000 
     41 H41         1.8676   55.0990   28.0769 H         1 UNK         0.0000 
     42 H42        -0.1011   51.2694   28.1554 H         1 UNK         0.0000 
     43 H43        -0.6516   51.6126   30.5340 H         1 UNK         0.0000 
     44 H44         0.3682   53.1454   25.8716 H         1 UNK         0.0000 
     45 H45         1.5048   51.8794   26.3271 H         1 UNK         0.0000 
     46 H46         4.2558   55.1210   25.1201 H         1 UNK         0.0000 
     47 H47         5.0446   53.5466   25.2541 H         1 UNK         0.0000 
     48 H48         5.3344   54.8966   22.9484 H         1 UNK         0.0000 
     49 H49         5.0619   53.1666   22.9273 H         1 UNK         0.0000 
     50 H50         3.2476   53.6469   21.6169 H         1 UNK         0.0000 
     51 H51         3.1437   55.2967   22.1034 H         1 UNK         0.0000 
     52 H52         0.1617   53.3639   23.2161 H         1 UNK         0.0000 
     53 H53         1.3321   49.7393   20.9617 H         1 UNK         0.0000 
     54 H54         0.1180   50.6321   19.9688 H         1 UNK         0.0000 
     55 H55        -2.2514   49.4297   22.2208 H         1 UNK         0.0000 
     56 H56        -1.3788   48.0840   22.9493 H         1 UNK         0.0000 
     57 H57        -0.8027   51.6348   24.7530 H         1 UNK         0.0000 
     58 H58        -2.2083   51.2784   23.8136 H         1 UNK         0.0000 
     59 H59        -2.4275   50.3751   26.1771 H         1 UNK         0.0000 
     60 H60        -2.4862   49.0359   25.0080 H         1 UNK         0.0000 
     61 H61        -0.1031   49.9639   26.4930 H         1 UNK         0.0000 
     62 H62         1.1042   48.0977   25.6871 H         1 UNK         0.0000 
     63 H63        -0.3113   47.5815   24.7522 H         1 UNK         0.0000 
     64 H64         1.3550   48.8955   23.3169 H         1 UNK         0.0000 
     65 H65         1.3517   50.1626   24.4826 H         1 UNK         0.0000 
     66 H66         1.2802   48.0917   19.3530 H         1 UNK         0.0000 
     67 H67        -0.0487   48.7383   18.4062 H         1 UNK         0.0000 
     68 H68        -0.7028   46.5396   17.6464 H         1 UNK         0.0000 
     69 H69         0.2224   45.7294   18.8860 H         1 UNK         0.0000 
     70 H70         2.3648   46.4972   17.8556 H         1 UNK         0.0000 
     71 H71         0.4822   44.9714   16.0367 H         1 UNK         0.0000 
     72 H72         1.6647   44.2610   17.0948 H         1 UNK         0.0000 
     73 H73         2.2302   44.8022   14.4610 H         1 UNK         0.0000 
     74 H74         3.4674   45.0765   15.6817 H         1 UNK         0.0000 
     75 H75         2.0867   47.1321   14.0938 H         1 UNK         0.0000 
     76 H76         3.4653   47.2969   15.1704 H         1 UNK         0.0000 
     77 H77         1.9013   48.4771   16.5477 H         1 UNK         0.0000 
     78 H78         0.5692   47.6805   15.7356 H         1 UNK         0.0000 
     79 H79        -0.9410   48.6598   26.8977 H         1 UNK         0.0000 
@<TRIPOS>BOND
     1    1    6 ar   
     2    1    2 ar   
     3    1   39 1    
     4    2    3 ar   
     5    2   40 1    
     6    3    4 ar   
     7    3   41 1    
     8    4    5 ar   
     9    4    7 1    
    10    5    6 ar   
    11    5   42 1    
    12    6   43 1    
    13    7    8 1    
    14    7   44 1    
    15    7   45 1    
    16    8    9 1    
    17    9   10 1    
    18    9   14 1    
    19    9   11 1    
    20   11   12 1    
    21   11   46 1    
    22   11   47 1    
    23   12   13 1    
    24   12   48 1    
    25   12   49 1    
    26   13   14 1    
    27   13   50 1    
    28   13   51 1    
    29   14   15 1    
    30   14   16 1    
    31   16   17 am   BACKBONE|DICT|INTERRES
    32   16   52 1    
    33   17   18 2    
    34   17   19 1    
    35   19   20 1    
    36   19   24 1    
    37   19   21 1    
    38   21   22 1    
    39   21   53 1    
    40   21   54 1    
    41   22   23 1    
    42   22   30 am   BACKBONE|DICT|INTERRES
    43   23   24 1    
    44   23   55 1    
    45   23   56 1    
    46   24   29 1    
    47   24   25 1    
    48   25   26 1    
    49   25   57 1    
    50   25   58 1    
    51   26   27 1    
    52   26   59 1    
    53   26   60 1    
    54   27   28 1    
    55   27   61 1    
    56   27   79 1    
    57   28   29 1    
    58   28   62 1    
    59   28   63 1    
    60   29   64 1    
    61   29   65 1    
    62   30   31 2    
    63   30   32 1    
    64   32   33 1    
    65   32   66 1    
    66   32   67 1    
    67   33   34 1    
    68   33   68 1    
    69   33   69 1    
    70   34   38 1    
    71   34   35 1    
    72   34   70 1    
    73   35   36 1    
    74   35   71 1    
    75   35   72 1    
    76   36   37 1    
    77   36   73 1    
    78   36   74 1    
    79   37   38 1    
    80   37   75 1    
    81   37   76 1    
    82   38   77 1    
    83   38   78 1    
@<TRIPOS>SUBSTRUCTURE
     1 UNK         1 GROUP             0       ****    0 ROOT    
