@<TRIPOS>MOLECULE
ZINC08909065_920
56   59    1
SMALL
USER_CHARGES


@<TRIPOS>ATOM
      1 C1         -2.7967   50.9160   27.8589 C.3       1 UNK         0.0000 
      2 C2         -1.4230   51.5522   28.0177 C.ar      1 UNK         0.0000 
      3 C3         -0.8941   51.6957   29.3038 C.ar      1 UNK         0.0000 
      4 C4          0.3786   52.2257   29.4887 C.ar      1 UNK         0.0000 
      5 C5          1.1355   52.6256   28.3830 C.ar      1 UNK         0.0000 
      6 C6          0.6085   52.4963   27.0964 C.ar      1 UNK         0.0000 
      7 C7         -0.6673   51.9568   26.9047 C.ar      1 UNK         0.0000 
      8 C8         -1.2053   51.8166   25.4888 C.3       1 UNK         0.0000 
      9 N9          2.4022   53.1954   28.5439 N.am      1 UNK         0.0000 
     10 C10         2.6853   54.5771   28.1764 C.3       1 UNK         0.0000 
     11 C11         4.1918   54.7203   28.3147 C.3       1 UNK         0.0000 
     12 H12         4.4572   55.6916   28.7061 H         1 UNK         0.0000 
     13 C13         4.5112   53.6845   29.3706 C.3       1 UNK         0.0000 
     14 C14         3.4169   52.6338   29.2532 C.2       1 UNK         0.0000 
     15 O15         3.4899   51.5116   29.7381 O.2       1 UNK         0.0000 
     16 C16         5.0305   54.4997   27.0223 C.2       1 UNK         0.0000 
     17 O17         6.2553   54.6044   27.0982 O.2       1 UNK         0.0000 
     18 N18         4.3590   54.2375   25.8791 N.am      1 UNK         0.0000 
     19 C19         4.8572   54.2482   24.5848 C.2       1 UNK         0.0000 
     20 N20         4.1228   53.8841   23.5629 N.2       1 UNK         0.0000 
     21 N21         4.7542   54.1139   22.3436 N.2       1 UNK         0.0000 
     22 C22         5.9340   54.6804   22.4641 C.2       1 UNK         0.0000 
     23 S23         6.4117   54.8960   24.1207 S.3       1 UNK         0.0000 
     24 S24         6.9634   55.2989   21.1655 S.3       1 UNK         0.0000 
     25 C25         6.0551   54.8237   19.6453 C.3       1 UNK         0.0000 
     26 C26         5.5253   56.0105   18.8328 C.2       1 UNK         0.0000 
     27 O27         6.1015   57.0974   18.8916 O.2       1 UNK         0.0000 
     28 N28         4.4349   55.7569   18.0807 N.am      1 UNK         0.0000 
     29 C29         3.7143   56.5969   17.2041 C.ar      1 UNK         0.0000 
     30 C30         4.0824   57.9134   16.8693 C.ar      1 UNK         0.0000 
     31 C31         3.2894   58.6638   16.0006 C.ar      1 UNK         0.0000 
     32 C32         2.1307   58.1234   15.4559 C.ar      1 UNK         0.0000 
     33 C33         1.7622   56.8200   15.7739 C.ar      1 UNK         0.0000 
     34 C34         2.5491   56.0602   16.6391 C.ar      1 UNK         0.0000 
     35 F35         2.1642   54.7935   16.9230 F         1 UNK         0.0000 
     36 F36         1.3607   58.8575   14.6208 F         1 UNK         0.0000 
     37 H37        -2.7530   50.0973   27.1407 H         1 UNK         0.0000 
     38 H38        -3.1633   50.4927   28.7959 H         1 UNK         0.0000 
     39 H39        -3.5195   51.6444   27.4928 H         1 UNK         0.0000 
     40 H40        -1.4547   51.3623   30.1672 H         1 UNK         0.0000 
     41 H41         0.7711   52.3170   30.4914 H         1 UNK         0.0000 
     42 H42         1.1935   52.8100   26.2433 H         1 UNK         0.0000 
     43 H43        -2.1848   52.2886   25.4050 H         1 UNK         0.0000 
     44 H44        -0.5532   52.2814   24.7503 H         1 UNK         0.0000 
     45 H45        -1.3209   50.7638   25.2294 H         1 UNK         0.0000 
     46 H46         2.1784   55.2332   28.8852 H         1 UNK         0.0000 
     47 H47         2.2826   54.8865   27.2139 H         1 UNK         0.0000 
     48 H48         5.4604   53.1738   29.2037 H         1 UNK         0.0000 
     49 H49         4.5305   54.1252   30.3696 H         1 UNK         0.0000 
     50 H50         3.3853   53.9923   25.9663 H         1 UNK         0.0000 
     51 H51         5.2605   54.1115   19.8527 H         1 UNK         0.0000 
     52 H52         6.7653   54.3024   19.0074 H         1 UNK         0.0000 
     53 H53         4.0385   54.8321   18.1663 H         1 UNK         0.0000 
     54 H54         4.9660   58.3863   17.2649 H         1 UNK         0.0000 
     55 H55         3.5698   59.6766   15.7592 H         1 UNK         0.0000 
     56 H56         0.8665   56.3977   15.3465 H         1 UNK         0.0000 
@<TRIPOS>BOND
     1    1    2 1    
     2    1   37 1    
     3    1   38 1    
     4    1   39 1    
     5    2    7 ar   
     6    2    3 ar   
     7    3    4 ar   
     8    3   40 1    
     9    4    5 ar   
    10    4   41 1    
    11    5    6 ar   
    12    5    9 1    
    13    6    7 ar   
    14    6   42 1    
    15    7    8 1    
    16    8   43 1    
    17    8   44 1    
    18    8   45 1    
    19    9   14 am   BACKBONE|DICT|INTERRES
    20    9   10 1    
    21   10   11 1    
    22   10   46 1    
    23   10   47 1    
    24   11   12 1    
    25   11   13 1    
    26   11   16 1    
    27   13   14 1    
    28   13   48 1    
    29   13   49 1    
    30   14   15 2    
    31   16   17 2    
    32   16   18 am   BACKBONE|DICT|INTERRES
    33   18   19 am   BACKBONE|DICT|INTERRES
    34   18   50 1    
    35   19   23 1    
    36   19   20 2    
    37   20   21 1    
    38   21   22 2    
    39   22   23 1    
    40   22   24 1    
    41   24   25 1    
    42   25   26 1    
    43   25   51 1    
    44   25   52 1    
    45   26   27 2    
    46   26   28 am   BACKBONE|DICT|INTERRES
    47   28   29 1    
    48   28   53 1    
    49   29   34 ar   
    50   29   30 ar   
    51   30   31 ar   
    52   30   54 1    
    53   31   32 ar   
    54   31   55 1    
    55   32   33 ar   
    56   32   36 1    
    57   33   34 ar   
    58   33   56 1    
    59   34   35 1    
@<TRIPOS>SUBSTRUCTURE
     1 UNK         1 GROUP             0       ****    0 ROOT    
