ZINC24143723_3124
                    3D
 Schrodinger Suite 2024-2.
 64 67  0  0  1  0            999 V2000
    7.2003   55.6693   21.6766 C   0  0  0  0  0  0
    5.8870   55.1805   21.0246 C   0  0  0  0  0  0
    6.1322   54.9850   19.5070 C   0  0  0  0  0  0
    5.2001   53.9402   21.7002 C   0  0  1  0  0  0
    5.9013   53.1156   21.6380 H   0  0  0  0  0  0
    4.9285   54.0968   23.2097 C   0  0  0  0  0  0
    3.6252   54.1806   23.7287 C   0  0  0  0  0  0
    3.4053   54.2717   25.1051 C   0  0  0  0  0  0
    4.4886   54.2810   25.9813 C   0  0  0  0  0  0
    5.7953   54.2077   25.4776 C   0  0  0  0  0  0
    6.0090   54.0967   24.1068 C   0  0  0  0  0  0
    6.9028   54.1388   26.2989 O   0  0  0  0  0  0
    6.6563   54.5435   27.6464 C   0  0  0  0  0  0
    5.3116   53.9772   28.1655 C   0  0  0  0  0  0
    4.2314   54.4104   27.3311 O   0  0  0  0  0  0
    4.0552   53.4901   20.8920 N   0  0  0  0  0  0
    3.4885   52.2739   20.9008 C   0  0  0  0  0  0
    3.8211   51.3810   21.6798 O   0  0  0  0  0  0
    2.3921   52.0658   19.8517 C   0  0  0  0  0  0
    1.4779   50.4916   19.9393 S   0  0  0  0  0  0
    0.1775   51.0541   20.9829 C   0  0  0  0  0  0
   -1.0095   51.3862   20.5432 N   0  0  0  0  0  0
   -1.7879   51.6966   21.6509 N   0  0  0  0  0  0
   -1.0666   51.4745   22.7277 C   0  0  0  0  0  0
    0.2078   51.0761   22.3610 N   0  0  0  0  0  0
    1.2845   50.7482   23.1724 N   0  0  0  0  0  0
   -1.6271   51.5784   24.1173 C   0  0  0  0  0  0
   -1.1697   50.7582   25.1522 C   0  0  0  0  0  0
   -1.7710   50.7943   26.4058 C   0  0  0  0  0  0
   -2.8566   51.6447   26.6591 C   0  0  0  0  0  0
   -3.3118   52.4946   25.6384 C   0  0  0  0  0  0
   -2.6873   52.4535   24.3794 C   0  0  0  0  0  0
   -4.3850   53.3185   25.9339 O   0  0  0  0  0  0
   -5.0251   54.0317   24.8834 C   0  0  0  0  0  0
   -3.5349   51.6770   27.8655 O   0  0  0  0  0  0
   -3.1819   50.7563   28.8957 C   0  0  0  0  0  0
    7.9538   54.8854   21.7244 H   0  0  0  0  0  0
    7.6414   56.4919   21.1125 H   0  0  0  0  0  0
    7.0423   56.0507   22.6845 H   0  0  0  0  0  0
    5.1834   56.0055   21.1130 H   0  0  0  0  0  0
    6.7827   54.1299   19.3151 H   0  0  0  0  0  0
    5.2066   54.8161   18.9565 H   0  0  0  0  0  0
    6.5986   55.8628   19.0559 H   0  0  0  0  0  0
    2.7705   54.1813   23.0673 H   0  0  0  0  0  0
    2.3986   54.3313   25.4886 H   0  0  0  0  0  0
    7.0236   53.9816   23.7557 H   0  0  0  0  0  0
    7.4818   54.2025   28.2726 H   0  0  0  0  0  0
    6.6279   55.6338   27.6805 H   0  0  0  0  0  0
    5.3588   52.8858   28.1606 H   0  0  0  0  0  0
    5.1281   54.3003   29.1905 H   0  0  0  0  0  0
    3.6864   54.1682   20.2399 H   0  0  0  0  0  0
    1.6869   52.8964   19.8795 H   0  0  0  0  0  0
    2.8779   52.0937   18.8724 H   0  0  0  0  0  0
    1.5140   49.7664   23.1211 H   0  0  0  0  0  0
    2.0872   51.3299   22.9820 H   0  0  0  0  0  0
   -0.3709   50.0488   24.9896 H   0  0  0  0  0  0
   -1.4040   50.1168   27.1640 H   0  0  0  0  0  0
   -3.0355   53.0886   23.5812 H   0  0  0  0  0  0
   -5.9270   54.4976   25.2762 H   0  0  0  0  0  0
   -4.3855   54.8166   24.4769 H   0  0  0  0  0  0
   -5.3388   53.3622   24.0812 H   0  0  0  0  0  0
   -3.8398   50.8976   29.7504 H   0  0  0  0  0  0
   -3.3006   49.7226   28.5674 H   0  0  0  0  0  0
   -2.1570   50.9029   29.2385 H   0  0  0  0  0  0
  1  2  1  0  0  0
  1 37  1  0  0  0
  1 38  1  0  0  0
  1 39  1  0  0  0
  2  3  1  0  0  0
  2  4  1  0  0  0
  2 40  1  0  0  0
  3 41  1  0  0  0
  3 42  1  0  0  0
  3 43  1  0  0  0
  4  5  1  0  0  0
  4  6  1  0  0  0
  4 16  1  0  0  0
  6 11  2  0  0  0
  6  7  1  0  0  0
  7  8  2  0  0  0
  7 44  1  0  0  0
  8  9  1  0  0  0
  8 45  1  0  0  0
  9 15  1  0  0  0
  9 10  2  0  0  0
 10 11  1  0  0  0
 10 12  1  0  0  0
 11 46  1  0  0  0
 12 13  1  0  0  0
 13 14  1  0  0  0
 13 47  1  0  0  0
 13 48  1  0  0  0
 14 15  1  0  0  0
 14 49  1  0  0  0
 14 50  1  0  0  0
 16 17  1  0  0  0
 16 51  1  0  0  0
 17 18  2  0  0  0
 17 19  1  0  0  0
 19 20  1  0  0  0
 19 52  1  0  0  0
 19 53  1  0  0  0
 20 21  1  0  0  0
 21 25  1  0  0  0
 21 22  2  0  0  0
 22 23  1  0  0  0
 23 24  2  0  0  0
 24 25  1  0  0  0
 24 27  1  0  0  0
 25 26  1  0  0  0
 26 54  1  0  0  0
 26 55  1  0  0  0
 27 32  2  0  0  0
 27 28  1  0  0  0
 28 29  2  0  0  0
 28 56  1  0  0  0
 29 30  1  0  0  0
 29 57  1  0  0  0
 30 31  2  0  0  0
 30 35  1  0  0  0
 31 32  1  0  0  0
 31 33  1  0  0  0
 32 58  1  0  0  0
 33 34  1  0  0  0
 34 59  1  0  0  0
 34 60  1  0  0  0
 34 61  1  0  0  0
 35 36  1  0  0  0
 36 62  1  0  0  0
 36 63  1  0  0  0
 36 64  1  0  0  0
M  END
> <i_i_glide_confnum>
196

> <i_i_glide_lignum>
3125

> <i_i_glide_posenum>
245

> <i_i_glide_rotatable_bonds>
10

> <i_m_Source_File_Index>
2115

> <b_m_subgroup_collapsed>
0

> <r_i_docking_score>
-5.90452

> <r_i_glide_ecoul>
-6.97385

> <r_i_glide_eff_state_penalty>
0

> <r_i_glide_einternal>
4.26772

> <r_i_glide_emodel>
-70.2163

> <r_i_glide_energy>
-53.2658

> <r_i_glide_erotb>
0.490749

> <r_i_glide_esite>
-0.0388744

> <r_i_glide_evdw>
-46.292

> <r_i_glide_gscore>
-5.90452

> <r_i_glide_hbond>
-0.04223

> <r_i_glide_ligand_efficiency>
-0.168701

> <r_i_glide_ligand_efficiency_ln>
-1.29617

> <r_i_glide_ligand_efficiency_sa>
-0.551831

> <r_i_glide_lipo>
-2.82638

> <r_i_glide_metal>
0

> <r_i_glide_rewards>
-0.127115

> <s_i_glide_gridfile>
wee1_glide-grid

> <s_m_Source_File>
wee1_decoys_glide_SP.sdf

> <s_m_Source_Path>
/Users/zhangxujun/Desktop

> <s_m_entry_id>
2390

> <s_m_entry_name>
wee1_decoys_glide_SP.2115

> <s_m_subgroup_title>
wee1_decoys_glide_SP

> <s_m_subgroupid>
wee1_decoys_glide_SP


$$$$
