ZINC36555920_5601
                    3D
 Schrodinger Suite 2024-2.
 70 73  0  0  1  0            999 V2000
    1.9272   51.9502   21.6774 C   0  0  0  0  0  0
    2.1107   52.7245   22.9585 C   0  0  0  0  0  0
    2.9658   53.7503   23.3095 C   0  0  0  0  0  0
    2.6275   54.1140   24.6051 C   0  0  0  0  0  0
    1.5897   53.2947   25.0241 C   0  0  0  0  0  0
    1.2892   52.4342   24.0086 O   0  0  0  0  0  0
    0.7081   53.2780   26.2649 C   0  0  0  0  0  0
    0.8763   52.1745   27.2214 N   0  0  0  0  0  0
   -0.1476   51.0558   27.2488 C   0  0  1  0  0  0
   -0.1666   50.6785   28.2714 H   0  0  0  0  0  0
   -1.6003   51.4443   26.9302 C   0  0  0  0  0  0
   -2.5598   51.2960   27.9346 C   0  0  0  0  0  0
   -3.9074   51.5378   27.6784 C   0  0  0  0  0  0
   -4.3278   51.9819   26.4189 C   0  0  0  0  0  0
   -3.3774   52.0990   25.3956 C   0  0  0  0  0  0
   -2.0393   51.8109   25.6455 C   0  0  0  0  0  0
   -5.7504   52.3199   26.1705 N   0  3  0  0  0  0
   -6.5478   52.2212   27.1013 O   0  0  0  0  0  0
   -6.0726   52.6912   25.0474 O   0  5  0  0  0  0
    0.3476   49.8054   26.4821 C   0  0  0  0  0  0
    1.4020   49.2932   26.8779 O   0  0  0  0  0  0
   -0.4512   49.2865   25.5332 N   0  0  0  0  0  0
   -0.0768   48.3314   24.5041 C   0  0  0  0  0  0
   -1.2604   47.4035   24.1436 C   0  0  0  0  0  0
   -2.4415   48.1447   23.4874 C   0  0  0  0  0  0
   -1.9856   48.8792   22.2171 C   0  0  0  0  0  0
   -0.7911   49.8141   22.4857 C   0  0  0  0  0  0
    0.3676   49.1157   23.2375 C   0  0  0  0  0  0
    1.9372   52.1862   28.0979 C   0  0  0  0  0  0
    2.0788   51.2971   28.9349 O   0  0  0  0  0  0
    3.0098   53.3290   28.1137 C   0  0  0  0  0  0
    3.4881   53.6264   29.5550 C   0  0  0  0  0  0
    4.5326   54.7628   29.5011 C   0  0  0  0  0  0
    5.6960   54.5009   28.5136 C   0  0  0  0  0  0
    5.2130   54.0614   27.1334 C   0  0  0  0  0  0
    4.2258   52.8961   27.2699 C   0  0  0  0  0  0
    2.5917   52.3110   20.8906 H   0  0  0  0  0  0
    2.1451   50.8897   21.7997 H   0  0  0  0  0  0
    0.9147   52.0518   21.2950 H   0  0  0  0  0  0
    3.7245   54.1994   22.6881 H   0  0  0  0  0  0
    3.0797   54.9145   25.1689 H   0  0  0  0  0  0
   -0.3114   53.2967   25.9369 H   0  0  0  0  0  0
    0.8348   54.1521   26.8817 H   0  0  0  0  0  0
   -2.2686   50.9509   28.9201 H   0  0  0  0  0  0
   -4.6210   51.3984   28.4812 H   0  0  0  0  0  0
   -3.6682   52.4005   24.3986 H   0  0  0  0  0  0
   -1.3332   51.8811   24.8340 H   0  0  0  0  0  0
   -1.3397   49.7415   25.3961 H   0  0  0  0  0  0
    0.7141   47.6947   24.8915 H   0  0  0  0  0  0
   -1.6036   46.8933   25.0423 H   0  0  0  0  0  0
   -0.9114   46.6259   23.4646 H   0  0  0  0  0  0
   -2.8836   48.8540   24.1905 H   0  0  0  0  0  0
   -3.2345   47.4369   23.2408 H   0  0  0  0  0  0
   -2.8162   49.4496   21.7970 H   0  0  0  0  0  0
   -1.7077   48.1472   21.4576 H   0  0  0  0  0  0
   -1.1328   50.6805   23.0476 H   0  0  0  0  0  0
   -0.4268   50.2093   21.5368 H   0  0  0  0  0  0
    0.9173   48.4968   22.5413 H   0  0  0  0  0  0
    1.1064   49.8589   23.5416 H   0  0  0  0  0  0
    2.5680   54.2357   27.7155 H   0  0  0  0  0  0
    2.6660   53.9773   30.1789 H   0  0  0  0  0  0
    3.9874   52.7637   30.0036 H   0  0  0  0  0  0
    4.0239   55.6965   29.2494 H   0  0  0  0  0  0
    4.9640   54.8965   30.4807 H   0  0  0  0  0  0
    6.3015   55.3912   28.3955 H   0  0  0  0  0  0
    6.3631   53.7344   28.9099 H   0  0  0  0  0  0
    4.7545   54.9069   26.6247 H   0  0  0  0  0  0
    6.0636   53.7575   26.5159 H   0  0  0  0  0  0
    4.7781   52.0975   27.7606 H   0  0  0  0  0  0
    3.9432   52.6392   26.2575 H   0  0  0  0  0  0
  1  2  1  0  0  0
  1 37  1  0  0  0
  1 38  1  0  0  0
  1 39  1  0  0  0
  2  6  1  0  0  0
  2  3  2  0  0  0
  3  4  1  0  0  0
  3 40  1  0  0  0
  4  5  2  0  0  0
  4 41  1  0  0  0
  5  6  1  0  0  0
  5  7  1  0  0  0
  7  8  1  0  0  0
  7 42  1  0  0  0
  7 43  1  0  0  0
  8  9  1  0  0  0
  8 29  1  0  0  0
  9 10  1  0  0  0
  9 11  1  0  0  0
  9 20  1  0  0  0
 11 16  2  0  0  0
 11 12  1  0  0  0
 12 13  2  0  0  0
 12 44  1  0  0  0
 13 14  1  0  0  0
 13 45  1  0  0  0
 14 15  2  0  0  0
 14 17  1  0  0  0
 15 16  1  0  0  0
 15 46  1  0  0  0
 16 47  1  0  0  0
 17 18  2  0  0  0
 17 19  1  0  0  0
 20 21  2  0  0  0
 20 22  1  0  0  0
 22 23  1  0  0  0
 22 48  1  0  0  0
 23 28  1  0  0  0
 23 24  1  0  0  0
 23 49  1  0  0  0
 24 25  1  0  0  0
 24 50  1  0  0  0
 24 51  1  0  0  0
 25 26  1  0  0  0
 25 52  1  0  0  0
 25 53  1  0  0  0
 26 27  1  0  0  0
 26 54  1  0  0  0
 26 55  1  0  0  0
 27 28  1  0  0  0
 27 56  1  0  0  0
 27 57  1  0  0  0
 28 58  1  0  0  0
 28 59  1  0  0  0
 29 30  2  0  0  0
 29 31  1  0  0  0
 31 36  1  0  0  0
 31 32  1  0  0  0
 31 60  1  0  0  0
 32 33  1  0  0  0
 32 61  1  0  0  0
 32 62  1  0  0  0
 33 34  1  0  0  0
 33 63  1  0  0  0
 33 64  1  0  0  0
 34 35  1  0  0  0
 34 65  1  0  0  0
 34 66  1  0  0  0
 35 36  1  0  0  0
 35 67  1  0  0  0
 35 68  1  0  0  0
 36 69  1  0  0  0
 36 70  1  0  0  0
M  CHG  2  17   1  19  -1
M  END
> <i_i_glide_confnum>
324

> <i_i_glide_lignum>
5602

> <i_i_glide_posenum>
265

> <i_i_glide_rotatable_bonds>
10

> <i_m_Source_File_Index>
311

> <b_m_subgroup_collapsed>
0

> <r_i_docking_score>
-2.49088

> <r_i_glide_ecoul>
-1.32822

> <r_i_glide_eff_state_penalty>
0

> <r_i_glide_einternal>
13.1834

> <r_i_glide_emodel>
-11.2957

> <r_i_glide_energy>
-14.5398

> <r_i_glide_erotb>
0.612322

> <r_i_glide_esite>
-0.15174

> <r_i_glide_evdw>
-13.2116

> <r_i_glide_gscore>
-2.49088

> <r_i_glide_hbond>
-0.0464466

> <r_i_glide_ligand_efficiency>
-0.071168

> <r_i_glide_ligand_efficiency_ln>
-0.546803

> <r_i_glide_ligand_efficiency_sa>
-0.232795

> <r_i_glide_lipo>
-1.75587

> <r_i_glide_metal>
0

> <r_i_glide_rewards>
-0.289331

> <s_i_glide_gridfile>
wee1_glide-grid

> <s_m_Source_File>
wee1_decoys_glide_SP.sdf

> <s_m_Source_Path>
/Users/zhangxujun/Desktop

> <s_m_entry_id>
586

> <s_m_entry_name>
wee1_decoys_glide_SP.311

> <s_m_subgroup_title>
wee1_decoys_glide_SP

> <s_m_subgroupid>
wee1_decoys_glide_SP


$$$$
