ZINC39466763_5347
                    3D
 Schrodinger Suite 2024-2.
 58 62  0  0  1  0            999 V2000
    4.8727   53.9979   28.2688 C   0  0  0  0  0  0
    4.0343   53.6937   27.2045 C   0  0  0  0  0  0
    4.5384   53.6970   25.9060 C   0  0  0  0  0  0
    5.8695   54.0626   25.6486 C   0  0  0  0  0  0
    6.7037   54.3275   26.7387 C   0  0  0  0  0  0
    6.2103   54.2919   28.0393 C   0  0  0  0  0  0
    6.4817   54.1137   24.2345 C   0  0  0  0  0  0
    5.4107   54.3199   22.7303 P   0  0  1  0  0  0
    5.9042   55.2923   21.7174 O   0  0  0  0  0  0
    5.0788   52.7955   22.0817 N   0  0  0  0  0  0
    3.7972   52.5277   21.4129 N   0  3  1  0  0  0
    3.7262   51.0921   20.8821 C   0  0  0  0  0  0
    2.3859   50.7682   20.1768 C   0  0  2  0  0  0
    2.3708   49.6825   20.0524 H   0  0  0  0  0  0
    2.3032   51.2997   18.7400 C   0  0  0  0  0  0
    1.1377   51.6236   18.1422 C   0  0  0  0  0  0
   -0.1211   51.4049   18.8431 C   0  0  0  0  0  0
   -0.1341   51.1323   20.1642 C   0  0  0  0  0  0
    1.1248   51.1499   21.0400 C   0  0  2  0  0  0
    1.0600   50.4057   21.8370 H   0  0  0  0  0  0
    1.2581   52.5545   21.6625 C   0  0  0  0  0  0
    2.6076   52.8820   22.3341 C   0  0  2  0  0  0
    2.7310   52.2707   23.2300 H   0  0  0  0  0  0
    2.7332   54.3813   22.6645 C   0  0  0  0  0  0
    3.9389   54.6941   23.3293 O   0  0  0  0  0  0
   -1.2977   51.4019   18.1798 F   0  0  0  0  0  0
    1.1569   52.2658   16.4403 S   0  0  0  0  0  0
    1.9685   51.3794   15.5992 O   0  0  0  0  0  0
   -0.2103   52.6136   16.0376 O   0  0  0  0  0  0
    1.9810   53.7139   16.6836 O   0  0  0  0  0  0
    3.3367   53.7220   16.9079 C   0  0  0  0  0  0
    4.2378   53.2899   15.9290 C   0  0  0  0  0  0
    5.6064   53.2974   16.1890 C   0  0  0  0  0  0
    6.0714   53.7596   17.4180 C   0  0  0  0  0  0
    5.1794   54.2196   18.3864 C   0  0  0  0  0  0
    3.8123   54.2049   18.1280 C   0  0  0  0  0  0
    4.4909   53.9800   29.2786 H   0  0  0  0  0  0
    3.0056   53.4201   27.3873 H   0  0  0  0  0  0
    3.8766   53.3704   25.1255 H   0  0  0  0  0  0
    7.7502   54.5271   26.5860 H   0  0  0  0  0  0
    6.8609   54.4962   28.8756 H   0  0  0  0  0  0
    7.1133   55.0020   24.2266 H   0  0  0  0  0  0
    7.1833   53.2965   24.0908 H   0  0  0  0  0  0
    5.7462   52.0386   22.2207 H   0  0  0  0  0  0
    4.5823   50.9756   20.2158 H   0  0  0  0  0  0
    3.8801   50.4847   21.7662 H   0  0  0  0  0  0
    3.2213   51.3867   18.1713 H   0  0  0  0  0  0
   -1.0913   50.9485   20.6315 H   0  0  0  0  0  0
    1.0885   53.2961   20.8807 H   0  0  0  0  0  0
    0.4566   52.6920   22.3913 H   0  0  0  0  0  0
    2.7043   54.9768   21.7549 H   0  0  0  0  0  0
    1.9038   54.7125   23.2903 H   0  0  0  0  0  0
    3.8780   52.9342   14.9755 H   0  0  0  0  0  0
    6.3039   52.9473   15.4410 H   0  0  0  0  0  0
    7.1328   53.7681   17.6198 H   0  0  0  0  0  0
    5.5519   54.5932   19.3267 H   0  0  0  0  0  0
    3.1145   54.5622   18.8727 H   0  0  0  0  0  0
    3.7722   53.1513   20.6180 H   0  0  0  0  0  0
  1  6  2  0  0  0
  1  2  1  0  0  0
  1 37  1  0  0  0
  2  3  2  0  0  0
  2 38  1  0  0  0
  3  4  1  0  0  0
  3 39  1  0  0  0
  4  5  2  0  0  0
  4  7  1  0  0  0
  5  6  1  0  0  0
  5 40  1  0  0  0
  6 41  1  0  0  0
  7  8  1  0  0  0
  7 42  1  0  0  0
  7 43  1  0  0  0
  8 25  1  0  0  0
  8  9  2  0  0  0
  8 10  1  0  0  0
 10 11  1  0  0  0
 10 44  1  0  0  0
 11 22  1  0  0  0
 11 12  1  0  0  0
 11 58  1  0  0  0
 12 13  1  0  0  0
 12 45  1  0  0  0
 12 46  1  0  0  0
 13 14  1  0  0  0
 13 19  1  0  0  0
 13 15  1  0  0  0
 15 16  2  0  0  0
 15 47  1  0  0  0
 16 17  1  0  0  0
 16 27  1  0  0  0
 17 18  2  0  0  0
 17 26  1  0  0  0
 18 19  1  0  0  0
 18 48  1  0  0  0
 19 20  1  0  0  0
 19 21  1  0  0  0
 21 22  1  0  0  0
 21 49  1  0  0  0
 21 50  1  0  0  0
 22 23  1  0  0  0
 22 24  1  0  0  0
 24 25  1  0  0  0
 24 51  1  0  0  0
 24 52  1  0  0  0
 27 28  2  0  0  0
 27 29  2  0  0  0
 27 30  1  0  0  0
 30 31  1  0  0  0
 31 36  2  0  0  0
 31 32  1  0  0  0
 32 33  2  0  0  0
 32 53  1  0  0  0
 33 34  1  0  0  0
 33 54  1  0  0  0
 34 35  2  0  0  0
 34 55  1  0  0  0
 35 36  1  0  0  0
 35 56  1  0  0  0
 36 57  1  0  0  0
M  CHG  1  11   1
M  END
> <i_i_glide_confnum>
193

> <i_i_glide_lignum>
5348

> <i_i_glide_posenum>
177

> <i_i_glide_rotatable_bonds>
5

> <i_m_Source_File_Index>
1930

> <b_m_subgroup_collapsed>
0

> <r_i_docking_score>
-3.64219

> <r_i_glide_ecoul>
-2.03209

> <r_i_glide_eff_state_penalty>
0

> <r_i_glide_einternal>
12.6502

> <r_i_glide_emodel>
-36.9673

> <r_i_glide_energy>
-33.9729

> <r_i_glide_erotb>
0.421375

> <r_i_glide_esite>
-0.0737973

> <r_i_glide_evdw>
-31.9408

> <r_i_glide_gscore>
-3.64219

> <r_i_glide_hbond>
0

> <r_i_glide_ligand_efficiency>
-0.110369

> <r_i_glide_ligand_efficiency_ln>
-0.810003

> <r_i_glide_ligand_efficiency_sa>
-0.354013

> <r_i_glide_lipo>
-1.9644

> <r_i_glide_metal>
0

> <r_i_glide_rewards>
-0.123508

> <s_i_glide_gridfile>
wee1_glide-grid

> <s_m_Source_File>
wee1_decoys_glide_SP.sdf

> <s_m_Source_Path>
/Users/zhangxujun/Desktop

> <s_m_entry_id>
2205

> <s_m_entry_name>
wee1_decoys_glide_SP.1930

> <s_m_subgroup_title>
wee1_decoys_glide_SP

> <s_m_subgroupid>
wee1_decoys_glide_SP


$$$$
