@<TRIPOS>MOLECULE
ZINC39485920_126
58   62    1
SMALL
USER_CHARGES


@<TRIPOS>ATOM
      1 C1         -6.6913   50.1801   31.3524 C.ar      1 UNK         0.0000 
      2 C2         -7.3532   50.4321   30.1514 C.ar      1 UNK         0.0000 
      3 C3         -6.6177   50.7237   29.0042 C.ar      1 UNK         0.0000 
      4 C4         -5.2222   50.7580   29.0625 C.ar      1 UNK         0.0000 
      5 C5         -4.5640   50.4886   30.2680 C.ar      1 UNK         0.0000 
      6 C6         -5.2995   50.2072   31.4153 C.ar      1 UNK         0.0000 
      7 C7         -4.4072   51.1199   27.8283 C.3       1 UNK         0.0000 
      8 C8         -3.6287   49.9264   27.2351 C.3       1 UNK         0.0000 
      9 H9         -3.2960   49.2996   28.0657 H         1 UNK         0.0000 
     10 N10        -4.3764   49.0721   26.3358 N.3       1 UNK         0.0000 
     11 N11        -3.3829   48.2464   25.7029 N.3       1 UNK         0.0000 
     12 C12        -2.3303   49.1697   25.3287 C.3       1 UNK         0.0000 
     13 H13        -2.6932   49.7279   24.4619 H         1 UNK         0.0000 
     14 N14        -2.3072   50.1838   26.4816 N.4       1 UNK         0.0000 
     15 C15        -1.9160   51.5812   25.9487 C.3       1 UNK         0.0000 
     16 C16        -0.4259   51.7242   25.5730 C.3       1 UNK         0.0000 
     17 N17         0.1840   50.7873   24.6162 N.3       1 UNK         0.0000 
     18 C18         0.2699   49.3933   25.0855 C.3       1 UNK         0.0000 
     19 C19        -0.9935   48.5161   24.9509 C.3       1 UNK         0.0000 
     20 C20         1.4602   51.2898   24.0804 C.3       1 UNK         0.0000 
     21 C21         1.2908   52.3780   22.9939 C.3       1 UNK         0.0000 
     22 H22         0.6456   53.1904   23.3239 H         1 UNK         0.0000 
     23 C23         0.8316   51.8721   21.6609 C.2       1 UNK         0.0000 
     24 N24         1.6700   52.0964   20.7450 N.2       1 UNK         0.0000 
     25 N25         2.6894   52.7055   21.2021 N.2       1 UNK         0.0000 
     26 C26         2.5858   52.9399   22.4453 C.2       1 UNK         0.0000 
     27 C27         3.5896   53.6355   23.2799 C.ar      1 UNK         0.0000 
     28 C28         4.9086   53.7813   22.8214 C.ar      1 UNK         0.0000 
     29 C29         5.8732   54.3828   23.6274 C.ar      1 UNK         0.0000 
     30 C30         5.5224   54.8431   24.8942 C.ar      1 UNK         0.0000 
     31 C31         4.2183   54.7042   25.3616 C.ar      1 UNK         0.0000 
     32 C32         3.2515   54.1116   24.5538 C.ar      1 UNK         0.0000 
     33 Cl33        6.7043   55.6089   25.8886 Cl        1 UNK         0.0000 
     34 H34        -7.2621   49.9596   32.2434 H         1 UNK         0.0000 
     35 H35        -8.4326   50.4046   30.1117 H         1 UNK         0.0000 
     36 H36        -7.1337   50.9266   28.0765 H         1 UNK         0.0000 
     37 H37        -3.4829   50.4960   30.3248 H         1 UNK         0.0000 
     38 H38        -4.7884   50.0186   32.3493 H         1 UNK         0.0000 
     39 H39        -5.0273   51.6003   27.0699 H         1 UNK         0.0000 
     40 H40        -3.7140   51.8878   28.1648 H         1 UNK         0.0000 
     41 H41        -5.0179   48.4444   26.8050 H         1 UNK         0.0000 
     42 H42        -3.0049   47.6876   26.4622 H         1 UNK         0.0000 
     43 H43        -2.5914   51.7866   25.1176 H         1 UNK         0.0000 
     44 H44        -2.1358   52.2724   26.7588 H         1 UNK         0.0000 
     45 H45        -0.2205   52.7642   25.3172 H         1 UNK         0.0000 
     46 H46         0.1098   51.5300   26.5054 H         1 UNK         0.0000 
     47 H47         0.9771   48.8760   24.4346 H         1 UNK         0.0000 
     48 H48         0.6879   49.3339   26.0927 H         1 UNK         0.0000 
     49 H49        -0.8333   47.6542   25.6001 H         1 UNK         0.0000 
     50 H50        -1.0524   48.0929   23.9474 H         1 UNK         0.0000 
     51 H51         2.0533   51.6967   24.8973 H         1 UNK         0.0000 
     52 H52         2.0549   50.4754   23.6582 H         1 UNK         0.0000 
     53 H53        -0.1147   51.3703   21.4811 H         1 UNK         0.0000 
     54 H54         5.1984   53.4211   21.8437 H         1 UNK         0.0000 
     55 H55         6.8874   54.4940   23.2702 H         1 UNK         0.0000 
     56 H56         3.9536   55.0662   26.3440 H         1 UNK         0.0000 
     57 H57         2.2457   54.0246   24.9373 H         1 UNK         0.0000 
     58 H58        -1.6025   49.8573   27.1381 H         1 UNK         0.0000 
@<TRIPOS>BOND
     1    1    6 ar   
     2    1    2 ar   
     3    1   34 1    
     4    2    3 ar   
     5    2   35 1    
     6    3    4 ar   
     7    3   36 1    
     8    4    5 ar   
     9    4    7 1    
    10    5    6 ar   
    11    5   37 1    
    12    6   38 1    
    13    7    8 1    
    14    7   39 1    
    15    7   40 1    
    16    8    9 1    
    17    8   14 1    
    18    8   10 1    
    19   10   11 1    
    20   10   41 1    
    21   11   12 1    
    22   11   42 1    
    23   12   13 1    
    24   12   19 1    
    25   12   14 1    
    26   14   15 1    
    27   14   58 1    
    28   15   16 1    
    29   15   43 1    
    30   15   44 1    
    31   16   17 1    
    32   16   45 1    
    33   16   46 1    
    34   17   18 1    
    35   17   20 1    
    36   18   19 1    
    37   18   47 1    
    38   18   48 1    
    39   19   49 1    
    40   19   50 1    
    41   20   21 1    
    42   20   51 1    
    43   20   52 1    
    44   21   22 1    
    45   21   26 1    
    46   21   23 1    
    47   23   24 2    
    48   23   53 1    
    49   24   25 1    
    50   25   26 2    
    51   26   27 1    
    52   27   32 ar   
    53   27   28 ar   
    54   28   29 ar   
    55   28   54 1    
    56   29   30 ar   
    57   29   55 1    
    58   30   31 ar   
    59   30   33 1    
    60   31   32 ar   
    61   31   56 1    
    62   32   57 1    
@<TRIPOS>SUBSTRUCTURE
     1 UNK         1 GROUP             0       ****    0 ROOT    
