@<TRIPOS>MOLECULE
ZINC10440979_5027
55   58    1
SMALL
USER_CHARGES


@<TRIPOS>ATOM
      1 C1         -8.1936   51.3840   32.5893 C.3       1 UNK         0.0000 
      2 C2         -7.1282   51.1031   31.5467 C.ar      1 UNK         0.0000 
      3 C3         -5.8375   50.7485   31.9337 C.ar      1 UNK         0.0000 
      4 C4         -4.8600   50.4957   30.9740 C.ar      1 UNK         0.0000 
      5 C5         -5.1579   50.5887   29.6110 C.ar      1 UNK         0.0000 
      6 C6         -6.4787   50.8950   29.2094 C.ar      1 UNK         0.0000 
      7 C7         -7.4437   51.1633   30.1885 C.ar      1 UNK         0.0000 
      8 C8         -6.9368   50.8681   27.7559 C.3       1 UNK         0.0000 
      9 N9         -4.0957   50.3009   28.7404 N.am      1 UNK         0.0000 
     10 C10        -3.6812   51.0372   27.6903 C.2       1 UNK         0.0000 
     11 O11        -4.2351   52.0649   27.2817 O.2       1 UNK         0.0000 
     12 N12        -2.5582   50.4967   27.1811 N.am      1 UNK         0.0000 
     13 C13        -1.8990   50.8526   26.0594 C.2       1 UNK         0.0000 
     14 O14        -2.3002   51.6524   25.2097 O.2       1 UNK         0.0000 
     15 C15        -0.5385   50.1698   25.8751 C.3       1 UNK         0.0000 
     16 S16         0.7552   51.3068   25.2742 S.3       1 UNK         0.0000 
     17 C17         1.1046   52.3815   26.7133 C.ar      1 UNK         0.0000 
     18 N18         0.4847   52.1072   27.8100 N.2       1 UNK         0.0000 
     19 C19         0.5809   52.9352   28.9268 C.ar      1 UNK         0.0000 
     20 C20        -0.1410   52.6184   30.0756 C.ar      1 UNK         0.0000 
     21 C21        -0.0954   53.4814   31.1753 C.ar      1 UNK         0.0000 
     22 C22         0.6675   54.6438   31.1228 C.ar      1 UNK         0.0000 
     23 C23         1.4164   54.9474   29.9955 C.ar      1 UNK         0.0000 
     24 C24         1.3642   54.0827   28.9028 C.ar      1 UNK         0.0000 
     25 C25         2.1972   54.3549   27.6860 C.ar      1 UNK         0.0000 
     26 O26         2.9985   55.2878   27.6810 O.2       1 UNK         0.0000 
     27 N27         1.9844   53.4713   26.6388 N.pl3     1 UNK         0.0000 
     28 C28         2.6962   53.7653   25.4292 C.ar      1 UNK         0.0000 
     29 C29         1.9871   54.0669   24.2519 C.ar      1 UNK         0.0000 
     30 C30         2.6643   54.2811   23.0522 C.ar      1 UNK         0.0000 
     31 C31         4.0560   54.2636   23.0220 C.ar      1 UNK         0.0000 
     32 C32         4.7739   54.0400   24.1916 C.ar      1 UNK         0.0000 
     33 C33         4.1065   53.7622   25.3834 C.ar      1 UNK         0.0000 
     34 F34         4.8401   53.4874   26.4881 F         1 UNK         0.0000 
     35 F35         4.7115   54.4856   21.8599 F         1 UNK         0.0000 
     36 H36        -7.9107   51.0009   33.5716 H         1 UNK         0.0000 
     37 H37        -9.1306   50.8996   32.3142 H         1 UNK         0.0000 
     38 H38        -8.3820   52.4548   32.6639 H         1 UNK         0.0000 
     39 H39        -5.5779   50.6762   32.9810 H         1 UNK         0.0000 
     40 H40        -3.8616   50.2368   31.3029 H         1 UNK         0.0000 
     41 H41        -8.4546   51.4035   29.8916 H         1 UNK         0.0000 
     42 H42        -6.8059   51.8462   27.2908 H         1 UNK         0.0000 
     43 H43        -6.3829   50.1234   27.1817 H         1 UNK         0.0000 
     44 H44        -7.9888   50.5888   27.6779 H         1 UNK         0.0000 
     45 H45        -3.4620   49.5835   29.0724 H         1 UNK         0.0000 
     46 H46        -2.1335   49.7347   27.7078 H         1 UNK         0.0000 
     47 H47        -0.1965   49.7066   26.8020 H         1 UNK         0.0000 
     48 H48        -0.6588   49.3670   25.1463 H         1 UNK         0.0000 
     49 H49        -0.7520   51.7280   30.1107 H         1 UNK         0.0000 
     50 H50        -0.6563   53.2967   32.0774 H         1 UNK         0.0000 
     51 H51         0.7041   55.2967   31.9807 H         1 UNK         0.0000 
     52 H52         2.0243   55.8429   29.9843 H         1 UNK         0.0000 
     53 H53         0.9069   54.0965   24.2548 H         1 UNK         0.0000 
     54 H54         2.1144   54.4768   22.1441 H         1 UNK         0.0000 
     55 H55         5.8528   54.0371   24.1660 H         1 UNK         0.0000 
@<TRIPOS>BOND
     1    1    2 1    
     2    1   36 1    
     3    1   37 1    
     4    1   38 1    
     5    2    7 ar   
     6    2    3 ar   
     7    3    4 ar   
     8    3   39 1    
     9    4    5 ar   
    10    4   40 1    
    11    5    6 ar   
    12    5    9 1    
    13    6    7 ar   
    14    6    8 1    
    15    7   41 1    
    16    8   42 1    
    17    8   43 1    
    18    8   44 1    
    19    9   10 am   BACKBONE|DICT|INTERRES
    20    9   45 1    
    21   10   11 2    
    22   10   12 am   BACKBONE|DICT|INTERRES
    23   12   13 am   BACKBONE|DICT|INTERRES
    24   12   46 1    
    25   13   14 2    
    26   13   15 1    
    27   15   16 1    
    28   15   47 1    
    29   15   48 1    
    30   16   17 1    
    31   17   27 ar   
    32   17   18 ar   
    33   18   19 ar   
    34   19   24 ar   
    35   19   20 ar   
    36   20   21 ar   
    37   20   49 1    
    38   21   22 ar   
    39   21   50 1    
    40   22   23 ar   
    41   22   51 1    
    42   23   24 ar   
    43   23   52 1    
    44   24   25 ar   
    45   25   26 2    
    46   25   27 ar   
    47   27   28 1    
    48   28   33 ar   
    49   28   29 ar   
    50   29   30 ar   
    51   29   53 1    
    52   30   31 ar   
    53   30   54 1    
    54   31   32 ar   
    55   31   35 1    
    56   32   33 ar   
    57   32   55 1    
    58   33   34 1    
@<TRIPOS>SUBSTRUCTURE
     1 UNK         1 GROUP             0       ****    0 ROOT    
