@<TRIPOS>MOLECULE
ZINC40386815_701
58   62    1
SMALL
USER_CHARGES


@<TRIPOS>ATOM
      1 C1          0.6957   52.7953   31.9722 C.3       1 UNK         0.0000 
      2 N2          0.9153   52.8707   30.5381 N.pl3     1 UNK         0.0000 
      3 C3          0.1368   52.3028   29.5528 C.ar      1 UNK         0.0000 
      4 C4          0.7775   52.6109   28.3294 C.ar      1 UNK         0.0000 
      5 C5          0.6212   52.3562   26.9553 C.ar      1 UNK         0.0000 
      6 N6          1.4953   52.8952   26.0719 N.ar      1 UNK         0.0000 
      7 C7          2.5366   53.6310   26.5447 C.ar      1 UNK         0.0000 
      8 N8          2.7983   53.8833   27.8583 N.ar      1 UNK         0.0000 
      9 C9          1.9098   53.3895   28.7267 C.ar      1 UNK         0.0000 
     10 N10         1.9888   53.5474   30.0816 N.2       1 UNK         0.0000 
     11 N11         3.4381   54.0967   25.5902 N.pl3     1 UNK         0.0000 
     12 C12         4.7078   54.7795   25.8847 C.3       1 UNK         0.0000 
     13 C13         5.8366   54.3538   24.9217 C.3       1 UNK         0.0000 
     14 N14         5.4778   54.6218   23.5279 N.3       1 UNK         0.0000 
     15 C15         4.2063   53.9882   23.1672 C.3       1 UNK         0.0000 
     16 C16         3.0756   54.2535   24.1696 C.3       1 UNK         0.0000 
     17 C17         6.5414   54.1897   22.6241 C.3       1 UNK         0.0000 
     18 C18         6.5638   54.8969   21.2647 C.ar      1 UNK         0.0000 
     19 C19         7.6606   55.6972   20.9490 C.ar      1 UNK         0.0000 
     20 C20         7.7782   56.2592   19.6806 C.ar      1 UNK         0.0000 
     21 C21         6.7930   56.0256   18.7261 C.ar      1 UNK         0.0000 
     22 C22         5.7034   55.2126   19.0197 C.ar      1 UNK         0.0000 
     23 C23         5.6004   54.6314   20.2814 C.ar      1 UNK         0.0000 
     24 F24         6.9057   56.5774   17.4972 F         1 UNK         0.0000 
     25 C25        -0.4232   51.4694   26.3783 C.ar      1 UNK         0.0000 
     26 C26        -1.7772   51.6753   26.6538 C.ar      1 UNK         0.0000 
     27 C27        -2.7434   50.8225   26.1249 C.ar      1 UNK         0.0000 
     28 C28        -2.3699   49.7557   25.3001 C.ar      1 UNK         0.0000 
     29 C29        -1.0165   49.5458   25.0207 C.ar      1 UNK         0.0000 
     30 C30        -0.0546   50.3986   25.5518 C.ar      1 UNK         0.0000 
     31 C31        -3.4298   48.8099   24.7328 C.3       1 UNK         0.0000 
     32 F32        -4.4579   48.6690   25.5717 F         1 UNK         0.0000 
     33 F33        -2.9330   47.5938   24.4873 F         1 UNK         0.0000 
     34 F34        -3.8886   49.3132   23.5863 F         1 UNK         0.0000 
     35 N35        -0.9918   51.5708   29.7678 N.pl3     1 UNK         0.0000 
     36 H36        -0.2409   53.2969   32.2161 H         1 UNK         0.0000 
     37 H37         0.6352   51.7482   32.2689 H         1 UNK         0.0000 
     38 H38         1.5032   53.2640   32.5187 H         1 UNK         0.0000 
     39 H39         4.5453   55.8530   25.8095 H         1 UNK         0.0000 
     40 H40         5.0285   54.5925   26.9106 H         1 UNK         0.0000 
     41 H41         6.7337   54.9183   25.1798 H         1 UNK         0.0000 
     42 H42         6.0358   53.2968   25.0776 H         1 UNK         0.0000 
     43 H43         4.3350   52.9062   23.1298 H         1 UNK         0.0000 
     44 H44         3.8445   54.3549   22.2113 H         1 UNK         0.0000 
     45 H45         2.2024   53.6703   23.8788 H         1 UNK         0.0000 
     46 H46         2.7737   55.2966   24.0656 H         1 UNK         0.0000 
     47 H47         7.5049   54.3597   23.1050 H         1 UNK         0.0000 
     48 H48         6.4774   53.1102   22.4824 H         1 UNK         0.0000 
     49 H49         8.4387   55.8756   21.6777 H         1 UNK         0.0000 
     50 H50         8.6308   56.8723   19.4344 H         1 UNK         0.0000 
     51 H51         4.9570   55.0117   18.2654 H         1 UNK         0.0000 
     52 H52         4.7895   53.9433   20.4618 H         1 UNK         0.0000 
     53 H53        -2.0823   52.4966   27.2826 H         1 UNK         0.0000 
     54 H54        -3.7844   50.9930   26.3563 H         1 UNK         0.0000 
     55 H55        -0.7035   48.7193   24.3973 H         1 UNK         0.0000 
     56 H56         0.9853   50.2151   25.3269 H         1 UNK         0.0000 
     57 H57        -1.4040   51.0209   29.0235 H         1 UNK         0.0000 
     58 H58        -1.2917   51.3096   30.7024 H         1 UNK         0.0000 
@<TRIPOS>BOND
     1    1    2 1    
     2    1   36 1    
     3    1   37 1    
     4    1   38 1    
     5    2   10 ar   
     6    2    3 ar   
     7    3    4 ar   
     8    3   35 1    
     9    4    9 ar   
    10    4    5 ar   
    11    5    6 ar   
    12    5   25 1    
    13    6    7 ar   
    14    7    8 ar   
    15    7   11 1    
    16    8    9 ar   
    17    9   10 ar   
    18   11   16 1    
    19   11   12 1    
    20   12   13 1    
    21   12   39 1    
    22   12   40 1    
    23   13   14 1    
    24   13   41 1    
    25   13   42 1    
    26   14   15 1    
    27   14   17 1    
    28   15   16 1    
    29   15   43 1    
    30   15   44 1    
    31   16   45 1    
    32   16   46 1    
    33   17   18 1    
    34   17   47 1    
    35   17   48 1    
    36   18   23 ar   
    37   18   19 ar   
    38   19   20 ar   
    39   19   49 1    
    40   20   21 ar   
    41   20   50 1    
    42   21   22 ar   
    43   21   24 1    
    44   22   23 ar   
    45   22   51 1    
    46   23   52 1    
    47   25   30 ar   
    48   25   26 ar   
    49   26   27 ar   
    50   26   53 1    
    51   27   28 ar   
    52   27   54 1    
    53   28   29 ar   
    54   28   31 1    
    55   29   30 ar   
    56   29   55 1    
    57   30   56 1    
    58   31   32 1    
    59   31   33 1    
    60   31   34 1    
    61   35   57 1    
    62   35   58 1    
@<TRIPOS>SUBSTRUCTURE
     1 UNK         1 GROUP             0       ****    0 ROOT    
