@<TRIPOS>MOLECULE
ZINC08451187_917
63   66    1
SMALL
USER_CHARGES


@<TRIPOS>ATOM
      1 C1         -3.5103   50.8758   24.1863 C.3       1 UNK         0.0000 
      2 C2         -2.4050   51.9495   24.1518 C.3       1 UNK         0.0000 
      3 C3         -1.7736   52.1447   25.5334 C.3       1 UNK         0.0000 
      4 O4         -1.3514   51.5795   23.2607 O.3       1 UNK         0.0000 
      5 C5         -1.4712   51.6788   21.9211 C.2       1 UNK         0.0000 
      6 O6         -2.4955   52.0937   21.3813 O.2       1 UNK         0.0000 
      7 C7         -0.3273   51.1595   21.1372 C.2       1 UNK         0.0000 
      8 C8          0.9509   51.0204   21.6078 C.2       1 UNK         0.0000 
      9 O9          1.9233   50.4165   20.8661 O.3       1 UNK         0.0000 
     10 C10         1.6232   49.8029   19.6939 C.2       1 UNK         0.0000 
     11 C11         0.4186   49.8708   19.0998 C.2       1 UNK         0.0000 
     12 C12        -0.6863   50.7521   19.6789 C.3       1 UNK         0.0000 
     13 H13        -1.6077   50.1641   19.7138 H         1 UNK         0.0000 
     14 C14        -1.0177   51.9365   18.7603 C.ar      1 UNK         0.0000 
     15 C15        -0.0365   52.8874   18.4480 C.ar      1 UNK         0.0000 
     16 C16        -0.3711   53.9542   17.6118 C.ar      1 UNK         0.0000 
     17 N17        -1.6129   54.1199   17.0896 N.ar      1 UNK         0.0000 
     18 C18        -2.5528   53.1881   17.3868 C.ar      1 UNK         0.0000 
     19 C19        -2.2992   52.0900   18.2116 C.ar      1 UNK         0.0000 
     20 C20         0.1512   49.1484   17.8984 C.1       1 UNK         0.0000 
     21 N21        -0.0975   48.5502   16.9400 N.1       1 UNK         0.0000 
     22 N22         2.7043   49.0793   19.2820 N.pl3     1 UNK         0.0000 
     23 C23         1.5849   51.4308   22.9414 C.3       1 UNK         0.0000 
     24 S24         2.6608   52.8968   22.8295 S.3       1 UNK         0.0000 
     25 C25         3.0187   53.4684   24.4848 C.ar      1 UNK         0.0000 
     26 C26         4.2354   54.0972   24.8034 C.ar      1 UNK         0.0000 
     27 C27         4.4542   54.4746   26.1315 C.ar      1 UNK         0.0000 
     28 C28         3.5053   54.2073   27.1259 C.ar      1 UNK         0.0000 
     29 C29         2.3285   53.5444   26.7330 C.ar      1 UNK         0.0000 
     30 N30         2.0901   53.1973   25.4390 N.ar      1 UNK         0.0000 
     31 C31         1.2290   53.1918   27.7301 C.3       1 UNK         0.0000 
     32 C32         1.6314   52.2047   28.8408 C.3       1 UNK         0.0000 
     33 C33         2.4430   52.8299   29.9875 C.3       1 UNK         0.0000 
     34 C34         3.8090   53.4062   29.5828 C.3       1 UNK         0.0000 
     35 C35         3.7703   54.5797   28.5836 C.3       1 UNK         0.0000 
     36 C36         5.3085   54.3211   23.8391 C.1       1 UNK         0.0000 
     37 N37         6.1628   54.4964   23.0789 N.1       1 UNK         0.0000 
     38 H38        -4.3018   51.1484   24.8874 H         1 UNK         0.0000 
     39 H39        -3.9765   50.7480   23.2091 H         1 UNK         0.0000 
     40 H40        -3.1115   49.9079   24.4924 H         1 UNK         0.0000 
     41 H41        -2.8337   52.9034   23.8364 H         1 UNK         0.0000 
     42 H42        -2.5091   52.4747   26.2665 H         1 UNK         0.0000 
     43 H43        -1.3224   51.2212   25.9023 H         1 UNK         0.0000 
     44 H44        -0.9899   52.8968   25.4864 H         1 UNK         0.0000 
     45 H45         0.9642   52.8058   18.8519 H         1 UNK         0.0000 
     46 H46         0.3637   54.7065   17.3664 H         1 UNK         0.0000 
     47 H47        -3.5290   53.3338   16.9468 H         1 UNK         0.0000 
     48 H48        -3.0852   51.3791   18.4208 H         1 UNK         0.0000 
     49 H49         2.8790   48.8992   18.2978 H         1 UNK         0.0000 
     50 H50         3.3950   48.7421   19.9400 H         1 UNK         0.0000 
     51 H51         2.1976   50.5965   23.2835 H         1 UNK         0.0000 
     52 H52         0.8792   51.5901   23.7458 H         1 UNK         0.0000 
     53 H53         5.3846   54.9527   26.4100 H         1 UNK         0.0000 
     54 H54         0.3931   52.7472   27.1914 H         1 UNK         0.0000 
     55 H55         0.8343   54.1132   28.1614 H         1 UNK         0.0000 
     56 H56         2.1732   51.3592   28.4107 H         1 UNK         0.0000 
     57 H57         0.7232   51.7770   29.2689 H         1 UNK         0.0000 
     58 H58         2.5963   52.0741   30.7579 H         1 UNK         0.0000 
     59 H59         1.8453   53.6081   30.4627 H         1 UNK         0.0000 
     60 H60         4.4460   52.6127   29.1910 H         1 UNK         0.0000 
     61 H61         4.3038   53.7517   30.4905 H         1 UNK         0.0000 
     62 H62         3.0527   55.3397   28.8951 H         1 UNK         0.0000 
     63 H63         4.7375   55.0817   28.6362 H         1 UNK         0.0000 
@<TRIPOS>BOND
     1    1    2 1    
     2    1   38 1    
     3    1   39 1    
     4    1   40 1    
     5    2    3 1    
     6    2    4 1    
     7    2   41 1    
     8    3   42 1    
     9    3   43 1    
    10    3   44 1    
    11    4    5 1    
    12    5    6 2    
    13    5    7 1    
    14    7   12 1    
    15    7    8 2    
    16    8    9 1    
    17    8   23 1    
    18    9   10 1    
    19   10   11 2    
    20   10   22 1    
    21   11   12 1    
    22   11   20 1    
    23   12   13 1    
    24   12   14 1    
    25   14   19 ar   
    26   14   15 ar   
    27   15   16 ar   
    28   15   45 1    
    29   16   17 ar   
    30   16   46 1    
    31   17   18 ar   
    32   18   19 ar   
    33   18   47 1    
    34   19   48 1    
    35   20   21 3    
    36   22   49 1    
    37   22   50 1    
    38   23   24 1    
    39   23   51 1    
    40   23   52 1    
    41   24   25 1    
    42   25   30 ar   
    43   25   26 ar   
    44   26   27 ar   
    45   26   36 1    
    46   27   28 ar   
    47   27   53 1    
    48   28   35 1    
    49   28   29 ar   
    50   29   30 ar   
    51   29   31 1    
    52   31   32 1    
    53   31   54 1    
    54   31   55 1    
    55   32   33 1    
    56   32   56 1    
    57   32   57 1    
    58   33   34 1    
    59   33   58 1    
    60   33   59 1    
    61   34   35 1    
    62   34   60 1    
    63   34   61 1    
    64   35   62 1    
    65   35   63 1    
    66   36   37 3    
@<TRIPOS>SUBSTRUCTURE
     1 UNK         1 GROUP             0       ****    0 ROOT    
