@<TRIPOS>MOLECULE
ZINC09318450_3914
56   58    1
SMALL
USER_CHARGES


@<TRIPOS>ATOM
      1 C1          5.8142   54.4854   25.0225 C.3       1 UNK         0.0000 
      2 C2          5.2074   54.2870   26.3993 C.ar      1 UNK         0.0000 
      3 C3          5.9037   54.6772   27.5453 C.ar      1 UNK         0.0000 
      4 C4          5.3375   54.4967   28.8060 C.ar      1 UNK         0.0000 
      5 C5          4.0862   53.8960   28.9366 C.ar      1 UNK         0.0000 
      6 C6          3.3871   53.4780   27.7942 C.ar      1 UNK         0.0000 
      7 C7          3.9476   53.6967   26.5312 C.ar      1 UNK         0.0000 
      8 N8          2.1255   52.8643   27.8154 N.am      1 UNK         0.0000 
      9 C9          1.4780   52.2298   28.8194 C.2       1 UNK         0.0000 
     10 O10         1.9377   52.0968   29.9533 O.2       1 UNK         0.0000 
     11 N11         0.2589   51.7111   28.5272 N.am      1 UNK         0.0000 
     12 C12        -0.4471   51.7356   27.3221 C.2       1 UNK         0.0000 
     13 N13         0.0157   52.0421   26.1317 N.2       1 UNK         0.0000 
     14 C14        -0.9024   51.9763   25.1767 C.2       1 UNK         0.0000 
     15 C15        -2.1716   51.6050   25.6324 C.2       1 UNK         0.0000 
     16 S16        -2.1228   51.2967   27.3451 S.3       1 UNK         0.0000 
     17 C17        -0.5539   52.2544   23.7910 C.2       1 UNK         0.0000 
     18 O18        -1.4109   52.2533   22.9044 O.2       1 UNK         0.0000 
     19 N19         0.7559   52.4697   23.5502 N.am      1 UNK         0.0000 
     20 C20         1.3974   52.5448   22.2408 C.3       1 UNK         0.0000 
     21 H21         0.7686   53.1548   21.5895 H         1 UNK         0.0000 
     22 C22         2.7538   53.3053   22.2960 C.3       1 UNK         0.0000 
     23 C23         3.6087   53.2182   21.0062 C.3       1 UNK         0.0000 
     24 H24         3.1046   53.7739   20.2186 H         1 UNK         0.0000 
     25 C25         3.7032   51.7429   20.5638 C.3       1 UNK         0.0000 
     26 C26         2.3131   51.1390   20.2235 C.3       1 UNK         0.0000 
     27 C27         1.5168   51.1488   21.5556 C.3       1 UNK         0.0000 
     28 C28         1.5688   51.9116   19.1074 C.3       1 UNK         0.0000 
     29 C29         2.5315   49.6681   19.8093 C.3       1 UNK         0.0000 
     30 C30         4.9956   53.8536   21.2062 C.3       1 UNK         0.0000 
     31 H31         6.8837   54.6966   25.0728 H         1 UNK         0.0000 
     32 H32         5.6948   53.5783   24.4292 H         1 UNK         0.0000 
     33 H33         5.3107   55.2950   24.4934 H         1 UNK         0.0000 
     34 H34         6.8756   55.1407   27.4697 H         1 UNK         0.0000 
     35 H35         5.8712   54.8413   29.6813 H         1 UNK         0.0000 
     36 H36         3.6757   53.7732   29.9255 H         1 UNK         0.0000 
     37 H37         3.4145   53.3913   25.6422 H         1 UNK         0.0000 
     38 H38         1.6604   52.8404   26.9220 H         1 UNK         0.0000 
     39 H39        -0.2306   51.2903   29.3041 H         1 UNK         0.0000 
     40 H40        -3.0794   51.4716   25.0628 H         1 UNK         0.0000 
     41 H41         1.3840   52.3965   24.3349 H         1 UNK         0.0000 
     42 H42         3.3500   52.8496   23.0877 H         1 UNK         0.0000 
     43 H43         2.6182   54.3481   22.5884 H         1 UNK         0.0000 
     44 H44         4.2365   51.1511   21.3101 H         1 UNK         0.0000 
     45 H45         4.3413   51.6967   19.6818 H         1 UNK         0.0000 
     46 H46         0.5247   50.7241   21.3907 H         1 UNK         0.0000 
     47 H47         2.0179   50.4782   22.2583 H         1 UNK         0.0000 
     48 H48         1.2354   52.8980   19.4143 H         1 UNK         0.0000 
     49 H49         0.6750   51.3720   18.7883 H         1 UNK         0.0000 
     50 H50         2.2000   52.0343   18.2254 H         1 UNK         0.0000 
     51 H51         3.0606   49.1044   20.5771 H         1 UNK         0.0000 
     52 H52         1.5831   49.1595   19.6370 H         1 UNK         0.0000 
     53 H53         3.1043   49.5925   18.8842 H         1 UNK         0.0000 
     54 H54         5.5717   53.3220   21.9639 H         1 UNK         0.0000 
     55 H55         5.5718   53.8379   20.2799 H         1 UNK         0.0000 
     56 H56         4.9110   54.8942   21.5225 H         1 UNK         0.0000 
@<TRIPOS>BOND
     1    1    2 1    
     2    1   31 1    
     3    1   32 1    
     4    1   33 1    
     5    2    7 ar   
     6    2    3 ar   
     7    3    4 ar   
     8    3   34 1    
     9    4    5 ar   
    10    4   35 1    
    11    5    6 ar   
    12    5   36 1    
    13    6    7 ar   
    14    6    8 1    
    15    7   37 1    
    16    8    9 am   BACKBONE|DICT|INTERRES
    17    8   38 1    
    18    9   10 2    
    19    9   11 am   BACKBONE|DICT|INTERRES
    20   11   12 am   BACKBONE|DICT|INTERRES
    21   11   39 1    
    22   12   16 1    
    23   12   13 2    
    24   13   14 1    
    25   14   15 2    
    26   14   17 1    
    27   15   16 1    
    28   15   40 1    
    29   17   18 2    
    30   17   19 am   BACKBONE|DICT|INTERRES
    31   19   20 1    
    32   19   41 1    
    33   20   21 1    
    34   20   27 1    
    35   20   22 1    
    36   22   23 1    
    37   22   42 1    
    38   22   43 1    
    39   23   24 1    
    40   23   25 1    
    41   23   30 1    
    42   25   26 1    
    43   25   44 1    
    44   25   45 1    
    45   26   27 1    
    46   26   28 1    
    47   26   29 1    
    48   27   46 1    
    49   27   47 1    
    50   28   48 1    
    51   28   49 1    
    52   28   50 1    
    53   29   51 1    
    54   29   52 1    
    55   29   53 1    
    56   30   54 1    
    57   30   55 1    
    58   30   56 1    
@<TRIPOS>SUBSTRUCTURE
     1 UNK         1 GROUP             0       ****    0 ROOT    
