@<TRIPOS>MOLECULE
ZINC39326135_1794
37   39    1
SMALL
USER_CHARGES


@<TRIPOS>ATOM
      1 C1          1.1115   56.4996   30.8602 C.3       1 UNK         0.0000 
      2 C2          1.5503   55.7652   29.5750 C.3       1 UNK         0.0000 
      3 C3          3.0643   55.8257   29.3798 C.3       1 UNK         0.0000 
      4 C4          1.0526   54.3326   29.4611 C.ar      1 UNK         0.0000 
      5 C5          1.0725   53.4019   28.4215 C.ar      1 UNK         0.0000 
      6 C6          0.4490   52.2752   28.9776 C.ar      1 UNK         0.0000 
      7 N7          0.0811   52.4165   30.2224 N.2       1 UNK         0.0000 
      8 N8          0.4500   53.6637   30.5025 N.pl3     1 UNK         0.0000 
      9 H9          0.2935   54.0592   31.4181 H         1 UNK         0.0000 
     10 O10         0.1838   51.1075   28.3164 O.3       1 UNK         0.0000 
     11 C11         0.4115   51.1343   26.9785 C.2       1 UNK         0.0000 
     12 C12         1.0131   52.1330   26.2843 C.2       1 UNK         0.0000 
     13 C13         1.5712   53.3944   26.9660 C.3       1 UNK         0.0000 
     14 H14         1.1078   54.2356   26.4676 H         1 UNK         0.0000 
     15 C15         3.0726   53.6504   26.7444 C.ar      1 UNK         0.0000 
     16 C16         3.5034   54.3057   25.5808 C.ar      1 UNK         0.0000 
     17 C17         4.8450   54.6457   25.4040 C.ar      1 UNK         0.0000 
     18 C18         5.7809   54.3168   26.3823 C.ar      1 UNK         0.0000 
     19 C19         5.3747   53.6347   27.5295 C.ar      1 UNK         0.0000 
     20 C20         4.0306   53.2949   27.7043 C.ar      1 UNK         0.0000 
     21 F21         6.2793   53.3104   28.4792 F         1 UNK         0.0000 
     22 F22         7.0777   54.6658   26.2173 F         1 UNK         0.0000 
     23 C23         1.1063   52.0517   24.8621 C.1       1 UNK         0.0000 
     24 N24         1.1729   52.0153   23.7079 N.1       1 UNK         0.0000 
     25 N25        -0.0996   49.9702   26.4787 N.pl3     1 UNK         0.0000 
     26 H26         0.1090   56.8946   30.7528 H         1 UNK         0.0000 
     27 H27         1.1047   55.8672   31.7450 H         1 UNK         0.0000 
     28 H28         1.7532   57.3533   31.0785 H         1 UNK         0.0000 
     29 H29         1.1100   56.3168   28.7426 H         1 UNK         0.0000 
     30 H30         3.3265   55.6967   28.3362 H         1 UNK         0.0000 
     31 H31         3.4589   56.7929   29.6812 H         1 UNK         0.0000 
     32 H32         3.5841   55.0600   29.9582 H         1 UNK         0.0000 
     33 H33         2.7894   54.5809   24.8173 H         1 UNK         0.0000 
     34 H34         5.1554   55.1828   24.5186 H         1 UNK         0.0000 
     35 H35         3.7336   52.7757   28.6033 H         1 UNK         0.0000 
     36 H36         0.0273   49.6976   25.5166 H         1 UNK         0.0000 
     37 H37        -0.6259   49.3464   27.0908 H         1 UNK         0.0000 
@<TRIPOS>BOND
     1    1    2 1    
     2    1   26 1    
     3    1   27 1    
     4    1   28 1    
     5    2    3 1    
     6    2    4 1    
     7    2   29 1    
     8    3   30 1    
     9    3   31 1    
    10    3   32 1    
    11    4    8 ar   
    12    4    5 ar   
    13    5   13 1    
    14    5    6 ar   
    15    6    7 ar   
    16    6   10 1    
    17    7    8 ar   
    18    8    9 1    
    19   10   11 1    
    20   11   12 2    
    21   11   25 1    
    22   12   13 1    
    23   12   23 1    
    24   13   14 1    
    25   13   15 1    
    26   15   20 ar   
    27   15   16 ar   
    28   16   17 ar   
    29   16   33 1    
    30   17   18 ar   
    31   17   34 1    
    32   18   19 ar   
    33   18   22 1    
    34   19   20 ar   
    35   19   21 1    
    36   20   35 1    
    37   23   24 3    
    38   25   36 1    
    39   25   37 1    
@<TRIPOS>SUBSTRUCTURE
     1 UNK         1 GROUP             0       ****    0 ROOT    
