@<TRIPOS>MOLECULE
ZINC50973445_1703
41   42    1
SMALL
USER_CHARGES


@<TRIPOS>ATOM
      1 C1          0.2849   51.7446   23.5115 C.3       1 UNK         0.0000 
      2 C2         -0.2487   51.8531   24.9349 C.ar      1 UNK         0.0000 
      3 C3         -1.5218   51.3396   25.2039 C.ar      1 UNK         0.0000 
      4 C4         -2.0582   51.4008   26.4894 C.ar      1 UNK         0.0000 
      5 C5         -1.3069   51.9530   27.5240 C.ar      1 UNK         0.0000 
      6 C6         -0.0384   52.4767   27.2761 C.ar      1 UNK         0.0000 
      7 C7          0.5051   52.4411   25.9718 C.ar      1 UNK         0.0000 
      8 C8          1.8692   53.0770   25.6876 C.3       1 UNK         0.0000 
      9 N9          0.6540   53.0068   28.3757 N.am      1 UNK         0.0000 
     10 C10         1.7109   52.3947   28.9430 C.2       1 UNK         0.0000 
     11 O11         2.1154   51.2960   28.5663 O.2       1 UNK         0.0000 
     12 C12         2.4065   53.0823   30.1484 C.3       1 UNK         0.0000 
     13 H13         1.8704   52.6964   31.0172 H         1 UNK         0.0000 
     14 C14         3.9073   52.7042   30.2447 C.3       1 UNK         0.0000 
     15 C15         4.7229   53.3436   29.1061 C.3       1 UNK         0.0000 
     16 C16         4.4907   54.8593   29.0803 C.3       1 UNK         0.0000 
     17 C17         2.9884   55.2155   29.0614 C.3       1 UNK         0.0000 
     18 O18         2.2623   54.5146   30.0817 O.3       1 UNK         0.0000 
     19 S19        -3.7084   50.7785   26.7981 S.o2      1 UNK         0.0000 
     20 O20        -4.6014   51.9414   26.8341 O.2       1 UNK         0.0000 
     21 O21        -3.9551   49.6805   25.8580 O.2       1 UNK         0.0000 
     22 N22        -3.6956   50.0968   28.4019 N.pl3     1 UNK         0.0000 
     23 H23         0.3746   52.7319   23.0577 H         1 UNK         0.0000 
     24 H24         1.2752   51.2871   23.5160 H         1 UNK         0.0000 
     25 H25        -0.3501   51.1253   22.8766 H         1 UNK         0.0000 
     26 H26        -2.1046   50.8953   24.4093 H         1 UNK         0.0000 
     27 H27        -1.7085   51.9658   28.5273 H         1 UNK         0.0000 
     28 H28         2.0916   53.1998   24.6307 H         1 UNK         0.0000 
     29 H29         1.9031   54.0777   26.1165 H         1 UNK         0.0000 
     30 H30         2.6692   52.4969   26.1461 H         1 UNK         0.0000 
     31 H31         0.2868   53.8352   28.8191 H         1 UNK         0.0000 
     32 H32         4.0516   51.6238   30.2410 H         1 UNK         0.0000 
     33 H33         4.3042   53.0422   31.2026 H         1 UNK         0.0000 
     34 H34         4.4409   52.9083   28.1459 H         1 UNK         0.0000 
     35 H35         5.7830   53.1266   29.2274 H         1 UNK         0.0000 
     36 H36         4.9922   55.2956   28.2162 H         1 UNK         0.0000 
     37 H37         4.9678   55.2968   29.9555 H         1 UNK         0.0000 
     38 H38         2.5784   54.9818   28.0808 H         1 UNK         0.0000 
     39 H39         2.8513   56.2867   29.2139 H         1 UNK         0.0000 
     40 H40        -4.6040   49.6970   28.6414 H         1 UNK         0.0000 
     41 H41        -2.9989   49.3350   28.4816 H         1 UNK         0.0000 
@<TRIPOS>BOND
     1    1    2 1    
     2    1   23 1    
     3    1   24 1    
     4    1   25 1    
     5    2    7 ar   
     6    2    3 ar   
     7    3    4 ar   
     8    3   26 1    
     9    4    5 ar   
    10    4   19 1    
    11    5    6 ar   
    12    5   27 1    
    13    6    7 ar   
    14    6    9 1    
    15    7    8 1    
    16    8   28 1    
    17    8   29 1    
    18    8   30 1    
    19    9   10 am   BACKBONE|DICT|INTERRES
    20    9   31 1    
    21   10   11 2    
    22   10   12 1    
    23   12   13 1    
    24   12   18 1    
    25   12   14 1    
    26   14   15 1    
    27   14   32 1    
    28   14   33 1    
    29   15   16 1    
    30   15   34 1    
    31   15   35 1    
    32   16   17 1    
    33   16   36 1    
    34   16   37 1    
    35   17   18 1    
    36   17   38 1    
    37   17   39 1    
    38   19   20 2    
    39   19   21 2    
    40   19   22 1    
    41   22   40 1    
    42   22   41 1    
@<TRIPOS>SUBSTRUCTURE
     1 UNK         1 GROUP             0       ****    0 ROOT    
