@<TRIPOS>MOLECULE
ZINC16609132_6102
55   57    1
SMALL
USER_CHARGES


@<TRIPOS>ATOM
      1 C1          0.5949   55.2794   17.1679 C.3       1 UNK         0.0000 
      2 C2          1.8419   54.7494   16.4389 C.3       1 UNK         0.0000 
      3 N3          2.9264   54.2710   17.3543 N.pl3     1 UNK         0.0000 
      4 C4          3.9556   55.1115   17.8060 C.2       1 UNK         0.0000 
      5 C5          4.8541   54.6981   18.7585 C.2       1 UNK         0.0000 
      6 C6          4.6836   53.3185   19.4596 C.3       1 UNK         0.0000 
      7 H7          5.6582   52.8442   19.5890 H         1 UNK         0.0000 
      8 N8          3.9044   52.4969   18.5227 N.pl3     1 UNK         0.0000 
      9 C9          2.8853   52.9249   17.7218 C.2       1 UNK         0.0000 
     10 S10         1.7624   51.7508   17.3090 S.2       1 UNK         0.0000 
     11 C11         4.1262   53.3545   20.9027 C.ar      1 UNK         0.0000 
     12 C12         2.8209   52.9450   21.2173 C.ar      1 UNK         0.0000 
     13 C13         2.3487   53.0072   22.5280 C.ar      1 UNK         0.0000 
     14 C14         3.1842   53.4414   23.5589 C.ar      1 UNK         0.0000 
     15 C15         4.5160   53.7655   23.2623 C.ar      1 UNK         0.0000 
     16 C16         4.9721   53.7215   21.9500 C.ar      1 UNK         0.0000 
     17 N17         2.6322   53.4705   24.8569 N.am      1 UNK         0.0000 
     18 C18         3.1415   53.9976   25.9954 C.2       1 UNK         0.0000 
     19 O19         4.2051   54.6150   26.0702 O.2       1 UNK         0.0000 
     20 C20         2.2734   53.8583   27.2259 C.ar      1 UNK         0.0000 
     21 C21         2.3137   54.8526   28.2140 C.ar      1 UNK         0.0000 
     22 C22         1.4869   54.7886   29.3334 C.ar      1 UNK         0.0000 
     23 C23         0.6361   53.6980   29.5060 C.ar      1 UNK         0.0000 
     24 C24         0.6031   52.6853   28.5485 C.ar      1 UNK         0.0000 
     25 C25         1.4124   52.7634   27.4133 C.ar      1 UNK         0.0000 
     26 Cl26       -0.4506   51.3389   28.7628 Cl        1 UNK         0.0000 
     27 Cl27        1.5007   56.0761   30.4832 Cl        1 UNK         0.0000 
     28 C28         5.9390   55.5624   19.2850 C.2       1 UNK         0.0000 
     29 O29         5.8416   56.7813   19.4446 O.2       1 UNK         0.0000 
     30 O30         7.0667   54.8780   19.6037 O.3       1 UNK         0.0000 
     31 C31         8.1840   55.5417   20.1937 C.3       1 UNK         0.0000 
     32 C32         7.9247   55.8562   21.6781 C.3       1 UNK         0.0000 
     33 C33         4.0460   56.4639   17.0686 C.3       1 UNK         0.0000 
     34 H34        -0.2021   55.4946   16.4559 H         1 UNK         0.0000 
     35 H35         0.2071   54.5625   17.8926 H         1 UNK         0.0000 
     36 H36         0.8154   56.2137   17.6813 H         1 UNK         0.0000 
     37 H37         2.1933   55.5286   15.7688 H         1 UNK         0.0000 
     38 H38         1.5436   53.9811   15.7251 H         1 UNK         0.0000 
     39 H39         4.0978   51.4966   18.4814 H         1 UNK         0.0000 
     40 H40         2.1399   52.6249   20.4439 H         1 UNK         0.0000 
     41 H41         1.3267   52.7197   22.7280 H         1 UNK         0.0000 
     42 H42         5.2210   54.0544   24.0245 H         1 UNK         0.0000 
     43 H43         5.9953   53.9789   21.7479 H         1 UNK         0.0000 
     44 H44         1.7157   53.0591   24.9329 H         1 UNK         0.0000 
     45 H45         2.9761   55.6969   28.1059 H         1 UNK         0.0000 
     46 H46        -0.0016   53.6368   30.3765 H         1 UNK         0.0000 
     47 H47         1.3629   51.9613   26.6907 H         1 UNK         0.0000 
     48 H48         9.0614   54.9018   20.1005 H         1 UNK         0.0000 
     49 H49         8.4153   56.4553   19.6427 H         1 UNK         0.0000 
     50 H50         8.7070   56.4953   22.0815 H         1 UNK         0.0000 
     51 H51         6.9806   56.3784   21.8291 H         1 UNK         0.0000 
     52 H52         7.9041   54.9464   22.2744 H         1 UNK         0.0000 
     53 H53         4.9176   57.0680   17.2987 H         1 UNK         0.0000 
     54 H54         4.1182   56.3065   15.9926 H         1 UNK         0.0000 
     55 H55         3.1718   57.0801   17.2793 H         1 UNK         0.0000 
@<TRIPOS>BOND
     1    1    2 1    
     2    1   34 1    
     3    1   35 1    
     4    1   36 1    
     5    2    3 1    
     6    2   37 1    
     7    2   38 1    
     8    3    9 1    
     9    3    4 1    
    10    4    5 2    
    11    4   33 1    
    12    5    6 1    
    13    5   28 1    
    14    6    7 1    
    15    6    8 1    
    16    6   11 1    
    17    8    9 1    
    18    8   39 1    
    19    9   10 2    
    20   11   16 ar   
    21   11   12 ar   
    22   12   13 ar   
    23   12   40 1    
    24   13   14 ar   
    25   13   41 1    
    26   14   15 ar   
    27   14   17 1    
    28   15   16 ar   
    29   15   42 1    
    30   16   43 1    
    31   17   18 am   BACKBONE|DICT|INTERRES
    32   17   44 1    
    33   18   19 2    
    34   18   20 1    
    35   20   25 ar   
    36   20   21 ar   
    37   21   22 ar   
    38   21   45 1    
    39   22   23 ar   
    40   22   27 1    
    41   23   24 ar   
    42   23   46 1    
    43   24   25 ar   
    44   24   26 1    
    45   25   47 1    
    46   28   29 2    
    47   28   30 1    
    48   30   31 1    
    49   31   32 1    
    50   31   48 1    
    51   31   49 1    
    52   32   50 1    
    53   32   51 1    
    54   32   52 1    
    55   33   53 1    
    56   33   54 1    
    57   33   55 1    
@<TRIPOS>SUBSTRUCTURE
     1 UNK         1 GROUP             0       ****    0 ROOT    
