@<TRIPOS>MOLECULE
ZINC32678540_2767
47   50    1
SMALL
USER_CHARGES


@<TRIPOS>ATOM
      1 C1          9.4779   55.5993   15.9625 C.ar      1 UNK         0.0000 
      2 C2          9.9213   55.7272   17.2822 C.ar      1 UNK         0.0000 
      3 C3          9.0957   55.3474   18.3429 C.ar      1 UNK         0.0000 
      4 C4          7.8276   54.8297   18.0758 C.ar      1 UNK         0.0000 
      5 C5          7.3765   54.7088   16.7492 C.ar      1 UNK         0.0000 
      6 C6          8.2047   55.0868   15.6930 C.ar      1 UNK         0.0000 
      7 O7          6.1494   54.1475   16.4387 O.3       1 UNK         0.0000 
      8 C8          5.2400   54.0761   17.5462 C.3       1 UNK         0.0000 
      9 C9          5.9957   53.5557   18.7962 C.3       1 UNK         0.0000 
     10 H10         6.4134   52.5604   18.6193 H         1 UNK         0.0000 
     11 O11         7.0274   54.4940   19.1471 O.3       1 UNK         0.0000 
     12 C12         5.0373   53.4459   19.9991 C.2       1 UNK         0.0000 
     13 O13         5.0147   54.3368   20.8507 O.2       1 UNK         0.0000 
     14 N14         4.3078   52.3073   20.0702 N.am      1 UNK         0.0000 
     15 C15         3.3360   51.9627   21.0325 C.ar      1 UNK         0.0000 
     16 C16         3.0166   50.6120   21.1654 C.ar      1 UNK         0.0000 
     17 C17         2.0697   50.1990   22.1037 C.ar      1 UNK         0.0000 
     18 C18         1.4055   51.1372   22.8987 C.ar      1 UNK         0.0000 
     19 C19         1.7051   52.4927   22.7419 C.ar      1 UNK         0.0000 
     20 C20         2.6585   52.9027   21.8191 C.ar      1 UNK         0.0000 
     21 N21         0.4443   50.6553   23.8046 N.pl3     1 UNK         0.0000 
     22 S22        -0.6424   51.6291   24.8244 S.o2      1 UNK         0.0000 
     23 O23        -0.9274   52.8940   24.1373 O.2       1 UNK         0.0000 
     24 O24        -1.7441   50.7340   25.1926 O.2       1 UNK         0.0000 
     25 C25         0.2737   51.9975   26.3233 C.ar      1 UNK         0.0000 
     26 C26        -0.0961   51.3917   27.5285 C.ar      1 UNK         0.0000 
     27 C27         0.5962   51.6976   28.6976 C.ar      1 UNK         0.0000 
     28 C28         1.6644   52.5874   28.6601 C.ar      1 UNK         0.0000 
     29 C29         2.0421   53.1883   27.4618 C.ar      1 UNK         0.0000 
     30 C30         1.3437   52.8962   26.2910 C.ar      1 UNK         0.0000 
     31 F31         2.3400   52.8753   29.7965 F         1 UNK         0.0000 
     32 H32        10.1247   55.8907   15.1479 H         1 UNK         0.0000 
     33 H33        10.9071   56.1186   17.4896 H         1 UNK         0.0000 
     34 H34         9.4394   55.4462   19.3627 H         1 UNK         0.0000 
     35 H35         7.8680   54.9777   14.6724 H         1 UNK         0.0000 
     36 H36         4.8297   55.0710   17.7362 H         1 UNK         0.0000 
     37 H37         4.4277   53.4050   17.2633 H         1 UNK         0.0000 
     38 H38         4.5272   51.5857   19.3872 H         1 UNK         0.0000 
     39 H39         3.5019   49.8721   20.5502 H         1 UNK         0.0000 
     40 H40         1.8489   49.1471   22.2000 H         1 UNK         0.0000 
     41 H41         1.2091   53.2615   23.3052 H         1 UNK         0.0000 
     42 H42         2.8325   53.9614   21.7153 H         1 UNK         0.0000 
     43 H43         0.3580   49.6563   23.9072 H         1 UNK         0.0000 
     44 H44        -0.9186   50.6888   27.5732 H         1 UNK         0.0000 
     45 H45         0.2987   51.2505   29.6343 H         1 UNK         0.0000 
     46 H46         2.8752   53.8772   27.4377 H         1 UNK         0.0000 
     47 H47         1.6372   53.3747   25.3717 H         1 UNK         0.0000 
@<TRIPOS>BOND
     1    1    6 ar   
     2    1    2 ar   
     3    1   32 1    
     4    2    3 ar   
     5    2   33 1    
     6    3    4 ar   
     7    3   34 1    
     8    4   11 1    
     9    4    5 ar   
    10    5    6 ar   
    11    5    7 1    
    12    6   35 1    
    13    7    8 1    
    14    8    9 1    
    15    8   36 1    
    16    8   37 1    
    17    9   10 1    
    18    9   11 1    
    19    9   12 1    
    20   12   13 2    
    21   12   14 am   BACKBONE|DICT|INTERRES
    22   14   15 1    
    23   14   38 1    
    24   15   20 ar   
    25   15   16 ar   
    26   16   17 ar   
    27   16   39 1    
    28   17   18 ar   
    29   17   40 1    
    30   18   19 ar   
    31   18   21 1    
    32   19   20 ar   
    33   19   41 1    
    34   20   42 1    
    35   21   22 1    
    36   21   43 1    
    37   22   23 2    
    38   22   24 2    
    39   22   25 1    
    40   25   30 ar   
    41   25   26 ar   
    42   26   27 ar   
    43   26   44 1    
    44   27   28 ar   
    45   27   45 1    
    46   28   29 ar   
    47   28   31 1    
    48   29   30 ar   
    49   29   46 1    
    50   30   47 1    
@<TRIPOS>SUBSTRUCTURE
     1 UNK         1 GROUP             0       ****    0 ROOT    
