@<TRIPOS>MOLECULE
ZINC39937073_4248
76   78    1
SMALL
USER_CHARGES


@<TRIPOS>ATOM
      1 C1          1.8327   52.3401   27.6285 C.3       1 UNK         0.0000 
      2 C2          0.8546   52.3393   26.4769 C.2       1 UNK         0.0000 
      3 N3         -0.4237   52.0963   26.6389 N.2       1 UNK         0.0000 
      4 C4         -1.1036   52.1350   25.5080 C.2       1 UNK         0.0000 
      5 C5         -0.3435   52.3836   24.3683 C.2       1 UNK         0.0000 
      6 S6          1.3121   52.6329   24.8281 S.3       1 UNK         0.0000 
      7 C7         -2.5268   51.8640   25.6040 C.2       1 UNK         0.0000 
      8 C8         -3.5722   52.4815   25.0140 C.2       1 UNK         0.0000 
      9 C9         -3.4277   53.7016   24.1255 C.3       1 UNK         0.0000 
     10 C10        -5.0194   51.9942   25.2009 C.3       1 UNK         0.0000 
     11 H11        -5.6655   52.4923   24.4734 H         1 UNK         0.0000 
     12 C12        -5.5295   52.3288   26.6217 C.3       1 UNK         0.0000 
     13 C13        -6.9489   51.8207   26.9624 C.3       1 UNK         0.0000 
     14 H14        -7.6350   51.8049   26.1147 H         1 UNK         0.0000 
     15 C15        -7.2348   50.9713   28.1878 C.3       1 UNK         0.0000 
     16 O16        -7.4911   52.3463   28.1491 O.3       1 UNK         0.0000 
     17 C17        -8.4982   50.0759   28.2126 C.3       1 UNK         0.0000 
     18 C18        -8.2721   48.5482   28.1483 C.3       1 UNK         0.0000 
     19 C19        -7.7185   48.0523   26.7974 C.3       1 UNK         0.0000 
     20 C20        -7.5745   46.5067   26.6181 C.3       1 UNK         0.0000 
     21 H21        -7.1862   46.3775   25.6070 H         1 UNK         0.0000 
     22 C22        -6.5481   45.7870   27.5542 C.3       1 UNK         0.0000 
     23 H23        -6.4881   44.7428   27.2447 H         1 UNK         0.0000 
     24 C24        -5.1128   46.3937   27.5200 C.3       1 UNK         0.0000 
     25 H25        -5.2593   47.4646   27.6215 H         1 UNK         0.0000 
     26 C26        -4.3769   46.1265   26.1763 C.2       1 UNK         0.0000 
     27 O27        -4.5550   45.0602   25.5825 O.2       1 UNK         0.0000 
     28 C28        -3.3731   47.1780   25.5989 C.3       1 UNK         0.0000 
     29 C29        -3.6976   47.6590   24.1315 C.3       1 UNK         0.0000 
     30 H30        -2.8697   48.2988   23.8121 H         1 UNK         0.0000 
     31 C31        -5.0400   48.4271   23.9236 C.3       1 UNK         0.0000 
     32 C32        -4.8933   49.9547   23.8313 C.2       1 UNK         0.0000 
     33 O33        -4.5347   50.4966   22.7844 O.2       1 UNK         0.0000 
     34 O34        -5.1717   50.5844   25.0026 O.3       1 UNK         0.0000 
     35 O35        -3.6681   46.5875   23.2028 O.3       1 UNK         0.0000 
     36 C36        -1.9565   46.5358   25.6614 C.3       1 UNK         0.0000 
     37 C37        -3.2963   48.4303   26.5033 C.3       1 UNK         0.0000 
     38 C38        -4.2197   45.9728   28.7190 C.3       1 UNK         0.0000 
     39 O39        -7.0396   45.7317   28.8820 O.3       1 UNK         0.0000 
     40 C40        -8.9461   45.7964   26.6025 C.3       1 UNK         0.0000 
     41 C41        -6.1130   50.5383   29.1546 C.3       1 UNK         0.0000 
     42 H42         1.9661   51.3360   28.0378 H         1 UNK         0.0000 
     43 H43         1.4960   52.9776   28.4483 H         1 UNK         0.0000 
     44 H44         2.8216   52.6971   27.3344 H         1 UNK         0.0000 
     45 H45        -0.6550   52.4310   23.3344 H         1 UNK         0.0000 
     46 H46        -2.7535   51.0490   26.2677 H         1 UNK         0.0000 
     47 H47        -4.0951   53.6180   23.2818 H         1 UNK         0.0000 
     48 H48        -3.7145   54.5933   24.6784 H         1 UNK         0.0000 
     49 H49        -2.4238   53.8602   23.7444 H         1 UNK         0.0000 
     50 H50        -4.8050   51.9601   27.3440 H         1 UNK         0.0000 
     51 H51        -5.5239   53.4151   26.7347 H         1 UNK         0.0000 
     52 H52        -9.0310   50.2977   29.1390 H         1 UNK         0.0000 
     53 H53        -9.1859   50.3767   27.4217 H         1 UNK         0.0000 
     54 H54        -9.2250   48.0577   28.3485 H         1 UNK         0.0000 
     55 H55        -7.6116   48.2593   28.9622 H         1 UNK         0.0000 
     56 H56        -6.7645   48.5424   26.6150 H         1 UNK         0.0000 
     57 H57        -8.3702   48.4245   26.0063 H         1 UNK         0.0000 
     58 H58        -5.7398   48.1822   24.7190 H         1 UNK         0.0000 
     59 H59        -5.5288   48.1080   23.0048 H         1 UNK         0.0000 
     60 H60        -3.7968   46.9461   22.3218 H         1 UNK         0.0000 
     61 H61        -1.1824   47.2516   25.3766 H         1 UNK         0.0000 
     62 H62        -1.6974   46.1864   26.6618 H         1 UNK         0.0000 
     63 H63        -1.8584   45.6978   24.9735 H         1 UNK         0.0000 
     64 H64        -2.3965   49.0069   26.3001 H         1 UNK         0.0000 
     65 H65        -4.1520   49.0724   26.4103 H         1 UNK         0.0000 
     66 H66        -3.2957   48.2132   27.5655 H         1 UNK         0.0000 
     67 H67        -3.1764   46.2739   28.6108 H         1 UNK         0.0000 
     68 H68        -4.5673   46.4359   29.6441 H         1 UNK         0.0000 
     69 H69        -4.2187   44.8974   28.8678 H         1 UNK         0.0000 
     70 H70        -7.3051   46.6162   29.1419 H         1 UNK         0.0000 
     71 H71        -9.4426   45.8428   27.5732 H         1 UNK         0.0000 
     72 H72        -9.6163   46.2434   25.8692 H         1 UNK         0.0000 
     73 H73        -8.8386   44.7431   26.3418 H         1 UNK         0.0000 
     74 H74        -5.5564   49.6885   28.7585 H         1 UNK         0.0000 
     75 H75        -5.4022   51.3410   29.3512 H         1 UNK         0.0000 
     76 H76        -6.5264   50.2489   30.1221 H         1 UNK         0.0000 
@<TRIPOS>BOND
     1    1    2 1    
     2    1   42 1    
     3    1   43 1    
     4    1   44 1    
     5    2    6 1    
     6    2    3 2    
     7    3    4 1    
     8    4    5 2    
     9    4    7 1    
    10    5    6 1    
    11    5   45 1    
    12    7    8 2    
    13    7   46 1    
    14    8    9 1    
    15    8   10 1    
    16    9   47 1    
    17    9   48 1    
    18    9   49 1    
    19   10   11 1    
    20   10   34 1    
    21   10   12 1    
    22   12   13 1    
    23   12   50 1    
    24   12   51 1    
    25   13   14 1    
    26   13   16 1    
    27   13   15 1    
    28   15   16 1    
    29   15   17 1    
    30   15   41 1    
    31   17   18 1    
    32   17   52 1    
    33   17   53 1    
    34   18   19 1    
    35   18   54 1    
    36   18   55 1    
    37   19   20 1    
    38   19   56 1    
    39   19   57 1    
    40   20   21 1    
    41   20   22 1    
    42   20   40 1    
    43   22   23 1    
    44   22   24 1    
    45   22   39 1    
    46   24   25 1    
    47   24   26 1    
    48   24   38 1    
    49   26   27 2    
    50   26   28 1    
    51   28   29 1    
    52   28   36 1    
    53   28   37 1    
    54   29   30 1    
    55   29   31 1    
    56   29   35 1    
    57   31   32 1    
    58   31   58 1    
    59   31   59 1    
    60   32   33 2    
    61   32   34 1    
    62   35   60 1    
    63   36   61 1    
    64   36   62 1    
    65   36   63 1    
    66   37   64 1    
    67   37   65 1    
    68   37   66 1    
    69   38   67 1    
    70   38   68 1    
    71   38   69 1    
    72   39   70 1    
    73   40   71 1    
    74   40   72 1    
    75   40   73 1    
    76   41   74 1    
    77   41   75 1    
    78   41   76 1    
@<TRIPOS>SUBSTRUCTURE
     1 UNK         1 GROUP             0       ****    0 ROOT    
