@<TRIPOS>MOLECULE
ZINC09404921_2702
54   58    1
SMALL
USER_CHARGES


@<TRIPOS>ATOM
      1 C1          2.0064   52.4965   30.8820 C.ar      1 UNK         0.0000 
      2 C2          0.7301   52.4968   30.3167 C.ar      1 UNK         0.0000 
      3 C3          0.5383   52.7754   28.9613 C.ar      1 UNK         0.0000 
      4 C4          1.6655   53.0766   28.1825 C.ar      1 UNK         0.0000 
      5 C5          2.9486   53.0917   28.7828 C.ar      1 UNK         0.0000 
      6 C6          3.1505   52.7936   30.1334 C.ar      1 UNK         0.0000 
      7 N7          3.7871   53.4363   27.7492 N.pl3     1 UNK         0.0000 
      8 H8          4.7903   53.5343   27.7582 H         1 UNK         0.0000 
      9 C9          3.0195   53.5908   26.6128 C.ar      1 UNK         0.0000 
     10 N10         1.7449   53.3684   26.8463 N.2       1 UNK         0.0000 
     11 C11         3.5950   53.8915   25.2578 C.ar      1 UNK         0.0000 
     12 C12         4.9244   54.3124   25.1271 C.ar      1 UNK         0.0000 
     13 C13         5.4872   54.4964   23.8677 C.ar      1 UNK         0.0000 
     14 C14         4.7192   54.2722   22.7147 C.ar      1 UNK         0.0000 
     15 C15         3.3876   53.8744   22.8391 C.ar      1 UNK         0.0000 
     16 C16         2.8272   53.6968   24.1022 C.ar      1 UNK         0.0000 
     17 N17         5.2408   54.3840   21.4125 N.am      1 UNK         0.0000 
     18 C18         6.2375   55.1966   20.9907 C.2       1 UNK         0.0000 
     19 O19         6.7167   56.0966   21.6808 O.2       1 UNK         0.0000 
     20 C20         6.8168   54.8967   19.6232 C.ar      1 UNK         0.0000 
     21 C21         6.1237   54.1218   18.6760 C.ar      1 UNK         0.0000 
     22 C22         6.7237   53.7780   17.4674 C.ar      1 UNK         0.0000 
     23 C23         8.0164   54.2187   17.1830 C.ar      1 UNK         0.0000 
     24 C24         8.7097   55.0043   18.1039 C.ar      1 UNK         0.0000 
     25 C25         8.1117   55.3407   19.3141 C.ar      1 UNK         0.0000 
     26 S26         8.7988   53.7882   15.6296 S.o2      1 UNK         0.0000 
     27 O27         9.6573   54.9196   15.2583 O.2       1 UNK         0.0000 
     28 O28         7.7515   53.3230   14.7134 O.2       1 UNK         0.0000 
     29 N29         9.8515   52.4143   15.9901 N.pl3     1 UNK         0.0000 
     30 C30        10.9513   52.1136   15.0246 C.3       1 UNK         0.0000 
     31 C31        10.8917   50.5826   14.9021 C.3       1 UNK         0.0000 
     32 C32         9.5077   50.1844   15.3608 C.3       1 UNK         0.0000 
     33 C33         9.2446   51.1588   16.4978 C.3       1 UNK         0.0000 
     34 H34         2.1012   52.2600   31.9334 H         1 UNK         0.0000 
     35 H35        -0.1217   52.2532   30.9391 H         1 UNK         0.0000 
     36 H36        -0.4498   52.7483   28.5271 H         1 UNK         0.0000 
     37 H37         4.1351   52.7918   30.5782 H         1 UNK         0.0000 
     38 H38         5.5418   54.4713   25.9990 H         1 UNK         0.0000 
     39 H39         6.5252   54.7869   23.8006 H         1 UNK         0.0000 
     40 H40         2.7782   53.7003   21.9627 H         1 UNK         0.0000 
     41 H41         1.7995   53.3730   24.1774 H         1 UNK         0.0000 
     42 H42         4.8182   53.7822   20.7240 H         1 UNK         0.0000 
     43 H43         5.1241   53.7567   18.8604 H         1 UNK         0.0000 
     44 H44         6.1837   53.1647   16.7592 H         1 UNK         0.0000 
     45 H45         9.7132   55.3458   17.8889 H         1 UNK         0.0000 
     46 H46         8.6812   55.9287   20.0213 H         1 UNK         0.0000 
     47 H47        11.9427   52.3410   15.4186 H         1 UNK         0.0000 
     48 H48        10.7350   52.4891   14.0223 H         1 UNK         0.0000 
     49 H49        11.6389   50.1246   15.5540 H         1 UNK         0.0000 
     50 H50        11.1069   50.2371   13.8874 H         1 UNK         0.0000 
     51 H51         8.7732   50.3204   14.5643 H         1 UNK         0.0000 
     52 H52         9.4596   49.1435   15.6822 H         1 UNK         0.0000 
     53 H53         8.2208   51.2777   16.8539 H         1 UNK         0.0000 
     54 H54         9.8053   50.8274   17.3731 H         1 UNK         0.0000 
@<TRIPOS>BOND
     1    1    6 ar   
     2    1    2 ar   
     3    1   34 1    
     4    2    3 ar   
     5    2   35 1    
     6    3    4 ar   
     7    3   36 1    
     8    4   10 ar   
     9    4    5 ar   
    10    5    6 ar   
    11    5    7 ar   
    12    6   37 1    
    13    7    8 1    
    14    7    9 ar   
    15    9   10 ar   
    16    9   11 1    
    17   11   16 ar   
    18   11   12 ar   
    19   12   13 ar   
    20   12   38 1    
    21   13   14 ar   
    22   13   39 1    
    23   14   15 ar   
    24   14   17 1    
    25   15   16 ar   
    26   15   40 1    
    27   16   41 1    
    28   17   18 am   BACKBONE|DICT|INTERRES
    29   17   42 1    
    30   18   19 2    
    31   18   20 1    
    32   20   25 ar   
    33   20   21 ar   
    34   21   22 ar   
    35   21   43 1    
    36   22   23 ar   
    37   22   44 1    
    38   23   24 ar   
    39   23   26 1    
    40   24   25 ar   
    41   24   45 1    
    42   25   46 1    
    43   26   27 2    
    44   26   28 2    
    45   26   29 1    
    46   29   33 1    
    47   29   30 1    
    48   30   31 1    
    49   30   47 1    
    50   30   48 1    
    51   31   32 1    
    52   31   49 1    
    53   31   50 1    
    54   32   33 1    
    55   32   51 1    
    56   32   52 1    
    57   33   53 1    
    58   33   54 1    
@<TRIPOS>SUBSTRUCTURE
     1 UNK         1 GROUP             0       ****    0 ROOT    
