@<TRIPOS>MOLECULE
ZINC14269416_2808
54   58    1
SMALL
USER_CHARGES


@<TRIPOS>ATOM
      1 C1          0.9100   48.2617   16.7431 C.3       1 UNK         0.0000 
      2 C2          0.7989   48.8318   18.1500 C.ar      1 UNK         0.0000 
      3 C3          0.3321   48.0118   19.1813 C.ar      1 UNK         0.0000 
      4 C4          0.2484   48.4958   20.4860 C.ar      1 UNK         0.0000 
      5 C5          0.6441   49.8008   20.7893 C.ar      1 UNK         0.0000 
      6 C6          1.0994   50.6232   19.7510 C.ar      1 UNK         0.0000 
      7 C7          1.1789   50.1537   18.4374 C.ar      1 UNK         0.0000 
      8 C8          1.6642   51.1022   17.3485 C.3       1 UNK         0.0000 
      9 C9          0.5958   50.3177   22.1913 C.2       1 UNK         0.0000 
     10 N10         0.3041   49.6497   23.2954 N.2       1 UNK         0.0000 
     11 C11         0.4470   50.5804   24.2913 C.ar      1 UNK         0.0000 
     12 C12         0.3021   50.4986   25.6909 C.ar      1 UNK         0.0000 
     13 C13         0.5468   51.6572   26.4471 C.ar      1 UNK         0.0000 
     14 C14         0.8912   52.8656   25.8164 C.ar      1 UNK         0.0000 
     15 C15         1.0398   52.9725   24.4358 C.ar      1 UNK         0.0000 
     16 C16         0.8123   51.8069   23.7109 C.ar      1 UNK         0.0000 
     17 O17         0.9052   51.6366   22.3716 O.3       1 UNK         0.0000 
     18 N18         0.4235   51.6022   27.8514 N.pl3     1 UNK         0.0000 
     19 C19         1.1889   52.2373   28.7912 C.2       1 UNK         0.0000 
     20 S20         0.5129   52.4970   30.2938 S.2       1 UNK         0.0000 
     21 N21         2.4575   52.5648   28.3803 N.am      1 UNK         0.0000 
     22 C22         3.4374   53.3428   28.9048 C.2       1 UNK         0.0000 
     23 O23         3.5505   53.6570   30.0929 O.2       1 UNK         0.0000 
     24 C24         4.4554   53.7991   27.8830 C.ar      1 UNK         0.0000 
     25 C25         5.7735   54.1024   28.2524 C.ar      1 UNK         0.0000 
     26 C26         6.7066   54.5125   27.2970 C.ar      1 UNK         0.0000 
     27 C27         6.3220   54.6482   25.9655 C.ar      1 UNK         0.0000 
     28 C28         5.0149   54.3473   25.5815 C.ar      1 UNK         0.0000 
     29 C29         4.0998   53.9438   26.5330 C.ar      1 UNK         0.0000 
     30 O30         4.5619   54.4888   24.2851 O.3       1 UNK         0.0000 
     31 C31         5.6087   54.5117   23.3145 C.3       1 UNK         0.0000 
     32 C32         6.7252   55.4699   23.7938 C.3       1 UNK         0.0000 
     33 O33         7.2690   55.0204   25.0403 O.3       1 UNK         0.0000 
     34 H34         0.1237   48.6615   16.1022 H         1 UNK         0.0000 
     35 H35         1.8714   48.5271   16.3011 H         1 UNK         0.0000 
     36 H36         0.8533   47.1722   16.7394 H         1 UNK         0.0000 
     37 H37         0.0340   46.9947   18.9760 H         1 UNK         0.0000 
     38 H38        -0.1172   47.8466   21.2656 H         1 UNK         0.0000 
     39 H39         1.4061   51.6374   19.9630 H         1 UNK         0.0000 
     40 H40         2.7037   50.8967   17.1011 H         1 UNK         0.0000 
     41 H41         1.0713   50.9883   16.4433 H         1 UNK         0.0000 
     42 H42         1.5748   52.1458   17.6478 H         1 UNK         0.0000 
     43 H43         0.0232   49.5664   26.1666 H         1 UNK         0.0000 
     44 H44         1.1017   53.7418   26.4136 H         1 UNK         0.0000 
     45 H45         1.3310   53.8942   23.9527 H         1 UNK         0.0000 
     46 H46        -0.4267   51.1674   28.1844 H         1 UNK         0.0000 
     47 H47         2.6378   52.3092   27.4212 H         1 UNK         0.0000 
     48 H48         6.0915   54.0261   29.2796 H         1 UNK         0.0000 
     49 H49         7.7184   54.7341   27.6036 H         1 UNK         0.0000 
     50 H50         3.1172   53.7505   26.1747 H         1 UNK         0.0000 
     51 H51         6.0188   53.5064   23.1943 H         1 UNK         0.0000 
     52 H52         5.2075   54.8272   22.3504 H         1 UNK         0.0000 
     53 H53         7.5050   55.5533   23.0399 H         1 UNK         0.0000 
     54 H54         6.3044   56.4634   23.9527 H         1 UNK         0.0000 
@<TRIPOS>BOND
     1    1    2 1    
     2    1   34 1    
     3    1   35 1    
     4    1   36 1    
     5    2    7 ar   
     6    2    3 ar   
     7    3    4 ar   
     8    3   37 1    
     9    4    5 ar   
    10    4   38 1    
    11    5    6 ar   
    12    5    9 1    
    13    6    7 ar   
    14    6   39 1    
    15    7    8 1    
    16    8   40 1    
    17    8   41 1    
    18    8   42 1    
    19    9   17 1    
    20    9   10 2    
    21   10   11 1    
    22   11   16 ar   
    23   11   12 ar   
    24   12   13 ar   
    25   12   43 1    
    26   13   14 ar   
    27   13   18 1    
    28   14   15 ar   
    29   14   44 1    
    30   15   16 ar   
    31   15   45 1    
    32   16   17 1    
    33   18   19 1    
    34   18   46 1    
    35   19   20 2    
    36   19   21 am   BACKBONE|DICT|INTERRES
    37   21   22 am   BACKBONE|DICT|INTERRES
    38   21   47 1    
    39   22   23 2    
    40   22   24 1    
    41   24   29 ar   
    42   24   25 ar   
    43   25   26 ar   
    44   25   48 1    
    45   26   27 ar   
    46   26   49 1    
    47   27   33 1    
    48   27   28 ar   
    49   28   29 ar   
    50   28   30 1    
    51   29   50 1    
    52   30   31 1    
    53   31   32 1    
    54   31   51 1    
    55   31   52 1    
    56   32   33 1    
    57   32   53 1    
    58   32   54 1    
@<TRIPOS>SUBSTRUCTURE
     1 UNK         1 GROUP             0       ****    0 ROOT    
