@<TRIPOS>MOLECULE
ZINC33129155_320
73   76    1
SMALL
USER_CHARGES


@<TRIPOS>ATOM
      1 C1         -4.7236   51.7307   27.1994 C.3       1 UNK         0.0000 
      2 C2         -3.7273   51.3278   26.1221 C.ar      1 UNK         0.0000 
      3 C3         -3.2283   52.3009   25.2537 C.ar      1 UNK         0.0000 
      4 C4         -2.3263   51.9736   24.2396 C.ar      1 UNK         0.0000 
      5 C5         -1.9044   50.6383   24.0901 C.ar      1 UNK         0.0000 
      6 C6         -2.3961   49.6702   24.9735 C.ar      1 UNK         0.0000 
      7 C7         -3.3104   49.9974   25.9767 C.ar      1 UNK         0.0000 
      8 C8         -3.8275   48.9019   26.8983 C.3       1 UNK         0.0000 
      9 S9         -0.7436   50.0895   22.8155 S.o2      1 UNK         0.0000 
     10 O10        -0.8909   50.9377   21.6283 O.2       1 UNK         0.0000 
     11 O11        -0.8749   48.6328   22.7004 O.2       1 UNK         0.0000 
     12 N12         0.8592   50.3705   23.5038 N.pl3     1 UNK         0.0000 
     13 C13         1.5033   51.6164   23.4609 C.ar      1 UNK         0.0000 
     14 C14         1.7163   52.2783   24.6719 C.ar      1 UNK         0.0000 
     15 C15         2.4936   53.4447   24.7187 C.ar      1 UNK         0.0000 
     16 C16         2.9460   53.9688   23.5076 C.ar      1 UNK         0.0000 
     17 N17         2.7181   53.3706   22.3191 N.ar      1 UNK         0.0000 
     18 C18         2.0350   52.1920   22.2817 C.ar      1 UNK         0.0000 
     19 N19         2.0431   51.5438   21.0467 N.pl3     1 UNK         0.0000 
     20 C20         2.7186   50.2350   20.9653 C.3       1 UNK         0.0000 
     21 C21         2.3949   49.4213   19.7026 C.3       1 UNK         0.0000 
     22 N22         2.7002   50.2875   18.4818 N.4       1 UNK         0.0000 
     23 C23         1.8742   51.5732   18.5001 C.3       1 UNK         0.0000 
     24 C24         2.1763   52.3312   19.8008 C.3       1 UNK         0.0000 
     25 C25         2.9046   54.0967   26.0102 C.2       1 UNK         0.0000 
     26 O26         3.9044   54.8143   26.0559 O.2       1 UNK         0.0000 
     27 N27         2.0753   53.9254   27.0519 N.am      1 UNK         0.0000 
     28 C28         2.2026   54.5027   28.3935 C.3       1 UNK         0.0000 
     29 C29         1.0446   53.9988   29.2877 C.3       1 UNK         0.0000 
     30 C30         0.7523   52.4762   29.3145 C.3       1 UNK         0.0000 
     31 C31         1.9240   51.5136   29.0331 C.3       1 UNK         0.0000 
     32 C32         3.2409   51.8116   29.7713 C.3       1 UNK         0.0000 
     33 C33         4.1379   52.8547   29.0922 C.3       1 UNK         0.0000 
     34 C34         3.5866   54.2901   29.0675 C.3       1 UNK         0.0000 
     35 C35        -1.8424   53.0926   23.3337 C.3       1 UNK         0.0000 
     36 H36        -4.2771   51.6227   28.1875 H         1 UNK         0.0000 
     37 H37        -5.0722   52.7562   27.0777 H         1 UNK         0.0000 
     38 H38        -5.6020   51.0873   27.1609 H         1 UNK         0.0000 
     39 H39        -3.5543   53.3248   25.3674 H         1 UNK         0.0000 
     40 H40        -2.0724   48.6425   24.8849 H         1 UNK         0.0000 
     41 H41        -4.8921   48.7286   26.7347 H         1 UNK         0.0000 
     42 H42        -3.2923   47.9607   26.7652 H         1 UNK         0.0000 
     43 H43        -3.6951   49.1902   27.9421 H         1 UNK         0.0000 
     44 H44         1.1200   49.7300   24.2381 H         1 UNK         0.0000 
     45 H45         1.3444   51.8286   25.5822 H         1 UNK         0.0000 
     46 H46         3.5428   54.8701   23.4699 H         1 UNK         0.0000 
     47 H47         3.7836   50.4755   20.9334 H         1 UNK         0.0000 
     48 H48         2.5562   49.6170   21.8492 H         1 UNK         0.0000 
     49 H49         1.3464   49.1211   19.6426 H         1 UNK         0.0000 
     50 H50         3.0339   48.5455   19.5902 H         1 UNK         0.0000 
     51 H51         2.5654   49.7631   17.6233 H         1 UNK         0.0000 
     52 H52         0.8265   51.2819   18.4105 H         1 UNK         0.0000 
     53 H53         2.1798   52.1292   17.6124 H         1 UNK         0.0000 
     54 H54         1.5676   53.2312   19.8474 H         1 UNK         0.0000 
     55 H55         3.2244   52.6280   19.7564 H         1 UNK         0.0000 
     56 H56         1.2662   53.3390   26.9180 H         1 UNK         0.0000 
     57 H57         2.0660   55.5830   28.3040 H         1 UNK         0.0000 
     58 H58         0.1272   54.4961   28.9746 H         1 UNK         0.0000 
     59 H59         1.1941   54.3660   30.3053 H         1 UNK         0.0000 
     60 H60        -0.0336   52.2577   28.5879 H         1 UNK         0.0000 
     61 H61         0.3129   52.2285   30.2824 H         1 UNK         0.0000 
     62 H62         2.1174   51.4588   27.9634 H         1 UNK         0.0000 
     63 H63         1.5857   50.5129   29.2812 H         1 UNK         0.0000 
     64 H64         3.8246   50.8972   29.7989 H         1 UNK         0.0000 
     65 H65         3.0480   52.0873   30.8097 H         1 UNK         0.0000 
     66 H66         4.3568   52.5252   28.0754 H         1 UNK         0.0000 
     67 H67         5.1044   52.8591   29.5976 H         1 UNK         0.0000 
     68 H68         3.5601   54.6907   30.0810 H         1 UNK         0.0000 
     69 H69         4.3202   54.9251   28.5722 H         1 UNK         0.0000 
     70 H70        -2.1621   54.0758   23.6812 H         1 UNK         0.0000 
     71 H71        -0.7563   53.1059   23.2868 H         1 UNK         0.0000 
     72 H72        -2.2244   52.9421   22.3267 H         1 UNK         0.0000 
     73 H73         3.7029   50.4969   18.4614 H         1 UNK         0.0000 
@<TRIPOS>BOND
     1    1    2 1    
     2    1   36 1    
     3    1   37 1    
     4    1   38 1    
     5    2    7 ar   
     6    2    3 ar   
     7    3    4 ar   
     8    3   39 1    
     9    4    5 ar   
    10    4   35 1    
    11    5    6 ar   
    12    5    9 1    
    13    6    7 ar   
    14    6   40 1    
    15    7    8 1    
    16    8   41 1    
    17    8   42 1    
    18    8   43 1    
    19    9   10 2    
    20    9   11 2    
    21    9   12 1    
    22   12   13 1    
    23   12   44 1    
    24   13   18 ar   
    25   13   14 ar   
    26   14   15 ar   
    27   14   45 1    
    28   15   16 ar   
    29   15   25 1    
    30   16   17 ar   
    31   16   46 1    
    32   17   18 ar   
    33   18   19 1    
    34   19   24 1    
    35   19   20 1    
    36   20   21 1    
    37   20   47 1    
    38   20   48 1    
    39   21   22 1    
    40   21   49 1    
    41   21   50 1    
    42   22   23 1    
    43   22   51 1    
    44   22   73 1    
    45   23   24 1    
    46   23   52 1    
    47   23   53 1    
    48   24   54 1    
    49   24   55 1    
    50   25   26 2    
    51   25   27 am   BACKBONE|DICT|INTERRES
    52   27   28 1    
    53   27   56 1    
    54   28   34 1    
    55   28   29 1    
    56   28   57 1    
    57   29   30 1    
    58   29   58 1    
    59   29   59 1    
    60   30   31 1    
    61   30   60 1    
    62   30   61 1    
    63   31   32 1    
    64   31   62 1    
    65   31   63 1    
    66   32   33 1    
    67   32   64 1    
    68   32   65 1    
    69   33   34 1    
    70   33   66 1    
    71   33   67 1    
    72   34   68 1    
    73   34   69 1    
    74   35   70 1    
    75   35   71 1    
    76   35   72 1    
@<TRIPOS>SUBSTRUCTURE
     1 UNK         1 GROUP             0       ****    0 ROOT    
