@<TRIPOS>MOLECULE
ZINC04070211_3552
34   36    1
SMALL
USER_CHARGES


@<TRIPOS>ATOM
      1 C1          4.4524   53.2866   19.5618 C.2       1 UNK         0.0000 
      2 C2          5.3399   53.6979   18.5610 C.2       1 UNK         0.0000 
      3 C3          6.1968   54.7051   18.9821 C.2       1 UNK         0.0000 
      4 S4          5.9046   55.1555   20.6289 S.3       1 UNK         0.0000 
      5 C5          4.6532   53.9369   20.7790 C.2       1 UNK         0.0000 
      6 C6          3.9047   53.7348   21.9985 C.2       1 UNK         0.0000 
      7 O7          2.8124   53.1669   21.9853 O.2       1 UNK         0.0000 
      8 N8          4.5493   54.1635   23.1007 N.am      1 UNK         0.0000 
      9 C9          4.1746   54.0910   24.4412 C.2       1 UNK         0.0000 
     10 C10         5.0332   54.2721   25.5485 C.2       1 UNK         0.0000 
     11 C11         4.3312   54.1595   26.7828 C.2       1 UNK         0.0000 
     12 C12         2.9762   53.8407   26.5989 C.2       1 UNK         0.0000 
     13 S13         2.5491   53.6970   24.9322 S.3       1 UNK         0.0000 
     14 C14         1.9735   53.5653   27.7106 C.3       1 UNK         0.0000 
     15 C15         2.5234   54.1176   29.0384 C.3       1 UNK         0.0000 
     16 C16         3.9786   53.6807   29.2624 C.3       1 UNK         0.0000 
     17 C17         4.9387   54.2563   28.1931 C.3       1 UNK         0.0000 
     18 C18         6.4454   54.6200   25.4602 C.2       1 UNK         0.0000 
     19 O19         7.0132   55.2969   26.3090 O.2       1 UNK         0.0000 
     20 N20         7.1043   54.1852   24.3829 N.am      1 UNK         0.0000 
     21 Br21        7.5636   55.5732   17.9845 Br        1 UNK         0.0000 
     22 H22         3.7091   52.5160   19.4067 H         1 UNK         0.0000 
     23 H23         5.3536   53.2716   17.5677 H         1 UNK         0.0000 
     24 H24         5.4706   54.5445   22.9458 H         1 UNK         0.0000 
     25 H25         1.8121   52.4901   27.8049 H         1 UNK         0.0000 
     26 H26         1.0040   54.0121   27.4944 H         1 UNK         0.0000 
     27 H27         1.8951   53.7759   29.8621 H         1 UNK         0.0000 
     28 H28         2.4616   55.2078   29.0442 H         1 UNK         0.0000 
     29 H29         4.0324   52.5901   29.2546 H         1 UNK         0.0000 
     30 H30         4.3051   53.9897   30.2552 H         1 UNK         0.0000 
     31 H31         5.1623   55.2966   28.4267 H         1 UNK         0.0000 
     32 H32         5.8972   53.7369   28.2467 H         1 UNK         0.0000 
     33 H33         6.7180   53.4411   23.8237 H         1 UNK         0.0000 
     34 H34         8.0561   54.4968   24.2102 H         1 UNK         0.0000 
@<TRIPOS>BOND
     1    1    5 2    
     2    1    2 1    
     3    1   22 1    
     4    2    3 2    
     5    2   23 1    
     6    3    4 1    
     7    3   21 1    
     8    4    5 1    
     9    5    6 1    
    10    6    7 2    
    11    6    8 am   BACKBONE|DICT|INTERRES
    12    8    9 am   BACKBONE|DICT|INTERRES
    13    8   24 1    
    14    9   13 1    
    15    9   10 2    
    16   10   11 1    
    17   10   18 1    
    18   11   17 1    
    19   11   12 2    
    20   12   13 1    
    21   12   14 1    
    22   14   15 1    
    23   14   25 1    
    24   14   26 1    
    25   15   16 1    
    26   15   27 1    
    27   15   28 1    
    28   16   17 1    
    29   16   29 1    
    30   16   30 1    
    31   17   31 1    
    32   17   32 1    
    33   18   19 2    
    34   18   20 am   BACKBONE|DICT|INTERRES
    35   20   33 1    
    36   20   34 1    
@<TRIPOS>SUBSTRUCTURE
     1 UNK         1 GROUP             0       ****    0 ROOT    
