@<TRIPOS>MOLECULE
ZINC32189088_3537
57   61    1
SMALL
USER_CHARGES


@<TRIPOS>ATOM
      1 C1          7.1044   54.0587   23.6061 C.3       1 UNK         0.0000 
      2 C2          5.6474   54.0977   23.9333 C.ar      1 UNK         0.0000 
      3 C3          5.0546   54.1031   25.1713 C.ar      1 UNK         0.0000 
      4 C4          3.6708   54.0194   25.0466 C.ar      1 UNK         0.0000 
      5 C5          3.4395   54.1072   23.6640 C.ar      1 UNK         0.0000 
      6 N6          4.6549   54.1484   22.9795 N.pl3     1 UNK         0.0000 
      7 C7          4.8729   54.2983   21.6012 C.2       1 UNK         0.0000 
      8 C8          4.4229   53.4822   20.5443 C.2       1 UNK         0.0000 
      9 C9          4.7116   54.0433   19.2704 C.2       1 UNK         0.0000 
     10 C10         5.5388   55.1692   19.3617 C.2       1 UNK         0.0000 
     11 S11         5.9046   55.5699   20.9953 S.3       1 UNK         0.0000 
     12 C12         6.1371   55.9315   18.1876 C.3       1 UNK         0.0000 
     13 C13         5.3863   55.5522   16.8957 C.3       1 UNK         0.0000 
     14 C14         5.1817   54.0324   16.7791 C.3       1 UNK         0.0000 
     15 C15         4.2828   53.4845   17.9077 C.3       1 UNK         0.0000 
     16 C16         3.7402   52.2334   20.7201 C.2       1 UNK         0.0000 
     17 O17         4.3040   51.2968   21.2817 O.2       1 UNK         0.0000 
     18 N18         2.4847   52.2230   20.2275 N.am      1 UNK         0.0000 
     19 C19         1.6069   51.1298   20.1886 C.ar      1 UNK         0.0000 
     20 C20         0.2430   51.4043   20.3065 C.ar      1 UNK         0.0000 
     21 C21        -0.6804   50.3623   20.2689 C.ar      1 UNK         0.0000 
     22 C22        -0.2376   49.0512   20.0986 C.ar      1 UNK         0.0000 
     23 C23         1.1204   48.7713   19.9585 C.ar      1 UNK         0.0000 
     24 C24         2.0453   49.8105   19.9988 C.ar      1 UNK         0.0000 
     25 C25         2.1105   54.1640   22.9414 C.3       1 UNK         0.0000 
     26 C26         2.6494   53.8940   26.0899 C.2       1 UNK         0.0000 
     27 C27         2.6662   53.5993   27.4137 C.2       1 UNK         0.0000 
     28 C28         3.7951   53.3166   28.2760 C.2       1 UNK         0.0000 
     29 O29         5.0082   53.2815   28.1052 O.2       1 UNK         0.0000 
     30 N30         3.1551   53.0391   29.5513 N.am      1 UNK         0.0000 
     31 C31         1.8455   53.1559   29.4268 C.2       1 UNK         0.0000 
     32 S32         0.7043   52.8985   30.6921 S.3       1 UNK         0.0000 
     33 N33         1.5383   53.4907   28.1865 N.pl3     1 UNK         0.0000 
     34 H34         7.7010   53.8220   24.4821 H         1 UNK         0.0000 
     35 H35         7.3362   53.2841   22.8818 H         1 UNK         0.0000 
     36 H36         7.4843   55.0064   23.2267 H         1 UNK         0.0000 
     37 H37         5.6264   54.1172   26.0804 H         1 UNK         0.0000 
     38 H38         6.0922   57.0099   18.3446 H         1 UNK         0.0000 
     39 H39         7.1902   55.6689   18.0800 H         1 UNK         0.0000 
     40 H40         4.4165   56.0526   16.8721 H         1 UNK         0.0000 
     41 H41         5.9361   55.9235   16.0298 H         1 UNK         0.0000 
     42 H42         4.7425   53.7860   15.8116 H         1 UNK         0.0000 
     43 H43         6.1493   53.5281   16.8047 H         1 UNK         0.0000 
     44 H44         4.3052   52.3966   17.8931 H         1 UNK         0.0000 
     45 H45         3.2451   53.7602   17.7161 H         1 UNK         0.0000 
     46 H46         2.1191   53.1026   19.8902 H         1 UNK         0.0000 
     47 H47        -0.1020   52.4194   20.4387 H         1 UNK         0.0000 
     48 H48        -1.7351   50.5674   20.3694 H         1 UNK         0.0000 
     49 H49        -0.9547   48.2446   20.0662 H         1 UNK         0.0000 
     50 H50         1.4574   47.7559   19.8113 H         1 UNK         0.0000 
     51 H51         3.0945   49.5854   19.8639 H         1 UNK         0.0000 
     52 H52         1.3160   54.5727   23.5629 H         1 UNK         0.0000 
     53 H53         2.1686   54.8263   22.0817 H         1 UNK         0.0000 
     54 H54         1.7729   53.1830   22.6131 H         1 UNK         0.0000 
     55 H55         1.6636   54.0479   25.6778 H         1 UNK         0.0000 
     56 H56         3.6459   52.7822   30.3929 H         1 UNK         0.0000 
     57 H57         0.5898   53.6171   27.8651 H         1 UNK         0.0000 
@<TRIPOS>BOND
     1    1    2 1    
     2    1   34 1    
     3    1   35 1    
     4    1   36 1    
     5    2    6 ar   
     6    2    3 ar   
     7    3    4 ar   
     8    3   37 1    
     9    4    5 ar   
    10    4   26 1    
    11    5    6 ar   
    12    5   25 1    
    13    6    7 1    
    14    7   11 1    
    15    7    8 2    
    16    8    9 1    
    17    8   16 1    
    18    9   15 1    
    19    9   10 2    
    20   10   11 1    
    21   10   12 1    
    22   12   13 1    
    23   12   38 1    
    24   12   39 1    
    25   13   14 1    
    26   13   40 1    
    27   13   41 1    
    28   14   15 1    
    29   14   42 1    
    30   14   43 1    
    31   15   44 1    
    32   15   45 1    
    33   16   17 2    
    34   16   18 am   BACKBONE|DICT|INTERRES
    35   18   19 1    
    36   18   46 1    
    37   19   24 ar   
    38   19   20 ar   
    39   20   21 ar   
    40   20   47 1    
    41   21   22 ar   
    42   21   48 1    
    43   22   23 ar   
    44   22   49 1    
    45   23   24 ar   
    46   23   50 1    
    47   24   51 1    
    48   25   52 1    
    49   25   53 1    
    50   25   54 1    
    51   26   27 2    
    52   26   55 1    
    53   27   33 1    
    54   27   28 1    
    55   28   29 2    
    56   28   30 am   BACKBONE|DICT|INTERRES
    57   30   31 am   BACKBONE|DICT|INTERRES
    58   30   56 1    
    59   31   32 1    
    60   31   33 2    
    61   33   57 1    
@<TRIPOS>SUBSTRUCTURE
     1 UNK         1 GROUP             0       ****    0 ROOT    
