@<TRIPOS>MOLECULE
ZINC16612386_3417
63   65    1
SMALL
USER_CHARGES


@<TRIPOS>ATOM
      1 C1         -0.9999   51.5959   28.7776 C.3       1 UNK         0.0000 
      2 C2         -0.1231   51.0463   27.6270 C.3       1 UNK         0.0000 
      3 N3          0.2006   52.0375   26.5642 N.pl3     1 UNK         0.0000 
      4 C4          1.4331   52.7060   26.5326 C.2       1 UNK         0.0000 
      5 C5          1.8944   53.3112   25.3864 C.2       1 UNK         0.0000 
      6 C6          1.0813   53.1743   24.0688 C.3       1 UNK         0.0000 
      7 H7          1.0967   54.1180   23.5199 H         1 UNK         0.0000 
      8 N8         -0.3135   52.8951   24.4449 N.pl3     1 UNK         0.0000 
      9 C9         -0.7356   52.2055   25.5443 C.2       1 UNK         0.0000 
     10 S10        -2.3175   51.6694   25.4610 S.2       1 UNK         0.0000 
     11 C11         1.6486   52.1600   23.0614 C.ar      1 UNK         0.0000 
     12 C12         1.3850   50.7871   23.1675 C.ar      1 UNK         0.0000 
     13 C13         1.8961   49.8958   22.2237 C.ar      1 UNK         0.0000 
     14 C14         2.7053   50.3590   21.1882 C.ar      1 UNK         0.0000 
     15 C15         3.0363   51.7131   21.1000 C.ar      1 UNK         0.0000 
     16 C16         2.4679   52.6093   22.0177 C.ar      1 UNK         0.0000 
     17 N17         3.9331   52.0966   20.0820 N.am      1 UNK         0.0000 
     18 C18         4.7338   53.1830   20.0531 C.2       1 UNK         0.0000 
     19 O19         4.8097   54.0215   20.9493 O.2       1 UNK         0.0000 
     20 N20         5.4820   53.1883   18.9314 N.am      1 UNK         0.0000 
     21 C21         6.4761   54.1105   18.5364 C.ar      1 UNK         0.0000 
     22 C22         6.5484   55.4191   19.0419 C.ar      1 UNK         0.0000 
     23 C23         7.5827   56.2734   18.6638 C.ar      1 UNK         0.0000 
     24 C24         8.5625   55.8367   17.7732 C.ar      1 UNK         0.0000 
     25 C25         8.4767   54.5533   17.2329 C.ar      1 UNK         0.0000 
     26 C26         7.4364   53.6907   17.5962 C.ar      1 UNK         0.0000 
     27 C27         7.3813   52.3118   16.9436 C.3       1 UNK         0.0000 
     28 C28         9.6959   56.7594   17.3711 C.3       1 UNK         0.0000 
     29 C29         3.1920   54.0441   25.2209 C.2       1 UNK         0.0000 
     30 O30         3.5490   54.4978   24.1332 O.2       1 UNK         0.0000 
     31 O31         3.9533   54.1844   26.3355 O.3       1 UNK         0.0000 
     32 C32         5.1863   54.9012   26.3261 C.3       1 UNK         0.0000 
     33 C33         6.3571   54.0259   25.8609 C.3       1 UNK         0.0000 
     34 C34         2.1545   52.7946   27.8931 C.3       1 UNK         0.0000 
     35 H35        -1.0248   50.8970   29.6108 H         1 UNK         0.0000 
     36 H36        -2.0356   51.7239   28.4659 H         1 UNK         0.0000 
     37 H37        -0.6418   52.5511   29.1628 H         1 UNK         0.0000 
     38 H38         0.7952   50.6242   28.0351 H         1 UNK         0.0000 
     39 H39        -0.6093   50.1674   27.1953 H         1 UNK         0.0000 
     40 H40        -1.0234   52.9704   23.7307 H         1 UNK         0.0000 
     41 H41         0.7739   50.4014   23.9692 H         1 UNK         0.0000 
     42 H42         1.6778   48.8432   22.3069 H         1 UNK         0.0000 
     43 H43         3.1052   49.6513   20.4739 H         1 UNK         0.0000 
     44 H44         2.6580   53.6686   21.9276 H         1 UNK         0.0000 
     45 H45         4.0697   51.4242   19.3383 H         1 UNK         0.0000 
     46 H46         5.4488   52.3419   18.3762 H         1 UNK         0.0000 
     47 H47         5.8087   55.8021   19.7271 H         1 UNK         0.0000 
     48 H48         7.6222   57.2759   19.0629 H         1 UNK         0.0000 
     49 H49         9.2251   54.2257   16.5246 H         1 UNK         0.0000 
     50 H50         8.1455   52.1793   16.1746 H         1 UNK         0.0000 
     51 H51         7.5059   51.5198   17.6816 H         1 UNK         0.0000 
     52 H52         6.4067   52.1558   16.4732 H         1 UNK         0.0000 
     53 H53        10.0049   56.5702   16.3423 H         1 UNK         0.0000 
     54 H54         9.3872   57.8040   17.4176 H         1 UNK         0.0000 
     55 H55        10.5559   56.6151   18.0261 H         1 UNK         0.0000 
     56 H56         5.1070   55.7916   25.7024 H         1 UNK         0.0000 
     57 H57         5.3783   55.2522   27.3413 H         1 UNK         0.0000 
     58 H58         7.2951   54.5779   25.8996 H         1 UNK         0.0000 
     59 H59         6.4617   53.1448   26.4950 H         1 UNK         0.0000 
     60 H60         6.2159   53.6910   24.8330 H         1 UNK         0.0000 
     61 H61         2.4260   53.8266   28.1217 H         1 UNK         0.0000 
     62 H62         1.5726   52.4977   28.7625 H         1 UNK         0.0000 
     63 H63         3.0592   52.1832   27.8777 H         1 UNK         0.0000 
@<TRIPOS>BOND
     1    1    2 1    
     2    1   35 1    
     3    1   36 1    
     4    1   37 1    
     5    2    3 1    
     6    2   38 1    
     7    2   39 1    
     8    3    9 1    
     9    3    4 1    
    10    4    5 2    
    11    4   34 1    
    12    5    6 1    
    13    5   29 1    
    14    6    7 1    
    15    6    8 1    
    16    6   11 1    
    17    8    9 1    
    18    8   40 1    
    19    9   10 2    
    20   11   16 ar   
    21   11   12 ar   
    22   12   13 ar   
    23   12   41 1    
    24   13   14 ar   
    25   13   42 1    
    26   14   15 ar   
    27   14   43 1    
    28   15   16 ar   
    29   15   17 1    
    30   16   44 1    
    31   17   18 am   BACKBONE|DICT|INTERRES
    32   17   45 1    
    33   18   19 2    
    34   18   20 am   BACKBONE|DICT|INTERRES
    35   20   21 1    
    36   20   46 1    
    37   21   26 ar   
    38   21   22 ar   
    39   22   23 ar   
    40   22   47 1    
    41   23   24 ar   
    42   23   48 1    
    43   24   25 ar   
    44   24   28 1    
    45   25   26 ar   
    46   25   49 1    
    47   26   27 1    
    48   27   50 1    
    49   27   51 1    
    50   27   52 1    
    51   28   53 1    
    52   28   54 1    
    53   28   55 1    
    54   29   30 2    
    55   29   31 1    
    56   31   32 1    
    57   32   33 1    
    58   32   56 1    
    59   32   57 1    
    60   33   58 1    
    61   33   59 1    
    62   33   60 1    
    63   34   61 1    
    64   34   62 1    
    65   34   63 1    
@<TRIPOS>SUBSTRUCTURE
     1 UNK         1 GROUP             0       ****    0 ROOT    
