@<TRIPOS>MOLECULE
ZINC06812811_1713
35   37    1
SMALL
USER_CHARGES


@<TRIPOS>ATOM
      1 C1          1.4237   55.9598   30.3248 C.3       1 UNK         0.0000 
      2 C2          0.9009   54.5431   30.2357 C.ar      1 UNK         0.0000 
      3 C3          0.9468   53.6639   29.1372 C.ar      1 UNK         0.0000 
      4 C4          0.2483   52.5608   29.5801 C.ar      1 UNK         0.0000 
      5 N5         -0.0954   52.7769   30.8816 N.pl3     1 UNK         0.0000 
      6 H6         -0.6232   52.1466   31.4837 H         1 UNK         0.0000 
      7 N7          0.3044   53.9926   31.2815 N.2       1 UNK         0.0000 
      8 O8         -0.1228   51.4538   28.8609 O.3       1 UNK         0.0000 
      9 C9          0.1689   51.5516   27.5281 C.2       1 UNK         0.0000 
     10 C10         0.8941   52.5328   26.9293 C.2       1 UNK         0.0000 
     11 C11         1.5155   53.7107   27.7146 C.3       1 UNK         0.0000 
     12 H12         1.1545   54.6425   27.2814 H         1 UNK         0.0000 
     13 C13         3.0460   53.8350   27.5714 C.ar      1 UNK         0.0000 
     14 C14         3.5629   54.2835   26.3459 C.ar      1 UNK         0.0000 
     15 C15         4.9327   54.4493   26.1342 C.ar      1 UNK         0.0000 
     16 C16         5.8143   54.1538   27.1822 C.ar      1 UNK         0.0000 
     17 C17         5.3229   53.6952   28.4017 C.ar      1 UNK         0.0000 
     18 C18         3.9528   53.5309   28.6035 C.ar      1 UNK         0.0000 
     19 F19         3.5363   53.0675   29.8052 F         1 UNK         0.0000 
     20 O20         5.3199   54.8973   24.8874 O.3       1 UNK         0.0000 
     21 C21         6.7009   55.1172   24.6231 C.3       1 UNK         0.0000 
     22 C22         1.0557   52.5129   25.5106 C.1       1 UNK         0.0000 
     23 N23         1.1640   52.5180   24.3591 N.1       1 UNK         0.0000 
     24 N24        -0.4285   50.4966   26.8926 N.pl3     1 UNK         0.0000 
     25 H25         0.7651   56.6551   29.8058 H         1 UNK         0.0000 
     26 H26         2.4071   56.0548   29.8654 H         1 UNK         0.0000 
     27 H27         1.5056   56.3205   31.3506 H         1 UNK         0.0000 
     28 H28         2.8929   54.5100   25.5298 H         1 UNK         0.0000 
     29 H29         6.8812   54.2638   27.0686 H         1 UNK         0.0000 
     30 H30         6.0132   53.4627   29.1957 H         1 UNK         0.0000 
     31 H31         6.8235   55.4570   23.5943 H         1 UNK         0.0000 
     32 H32         7.1063   55.8919   25.2753 H         1 UNK         0.0000 
     33 H33         7.2848   54.2025   24.7385 H         1 UNK         0.0000 
     34 H34        -0.2871   50.3237   25.9090 H         1 UNK         0.0000 
     35 H35        -0.8802   49.7620   27.4372 H         1 UNK         0.0000 
@<TRIPOS>BOND
     1    1    2 1    
     2    1   25 1    
     3    1   26 1    
     4    1   27 1    
     5    2    7 ar   
     6    2    3 ar   
     7    3   11 1    
     8    3    4 ar   
     9    4    5 ar   
    10    4    8 1    
    11    5    6 1    
    12    5    7 ar   
    13    8    9 1    
    14    9   10 2    
    15    9   24 1    
    16   10   11 1    
    17   10   22 1    
    18   11   12 1    
    19   11   13 1    
    20   13   18 ar   
    21   13   14 ar   
    22   14   15 ar   
    23   14   28 1    
    24   15   16 ar   
    25   15   20 1    
    26   16   17 ar   
    27   16   29 1    
    28   17   18 ar   
    29   17   30 1    
    30   18   19 1    
    31   20   21 1    
    32   21   31 1    
    33   21   32 1    
    34   21   33 1    
    35   22   23 3    
    36   24   34 1    
    37   24   35 1    
@<TRIPOS>SUBSTRUCTURE
     1 UNK         1 GROUP             0       ****    0 ROOT    
