@<TRIPOS>MOLECULE
ZINC20018828_188
65   69    1
SMALL
USER_CHARGES


@<TRIPOS>ATOM
      1 C1          3.4619   51.6967   32.0631 C.3       1 UNK         0.0000 
      2 O2          2.3408   52.0969   31.2824 O.3       1 UNK         0.0000 
      3 C3          2.5380   52.5693   30.0018 C.ar      1 UNK         0.0000 
      4 C4          3.7961   52.8352   29.4464 C.ar      1 UNK         0.0000 
      5 C5          3.9015   53.2616   28.1276 C.ar      1 UNK         0.0000 
      6 C6          2.7608   53.4351   27.3316 C.ar      1 UNK         0.0000 
      7 C7          1.5049   53.1980   27.9078 C.ar      1 UNK         0.0000 
      8 C8          1.3968   52.7706   29.2286 C.ar      1 UNK         0.0000 
      9 N9          2.8892   53.7845   25.9885 N.pl3     1 UNK         0.0000 
     10 C10         3.9368   54.6785   25.4826 C.3       1 UNK         0.0000 
     11 C11         4.5244   54.1901   24.1474 C.3       1 UNK         0.0000 
     12 N12         3.4901   54.1061   23.1106 N.3       1 UNK         0.0000 
     13 C13         2.3697   53.2585   23.5439 C.3       1 UNK         0.0000 
     14 C14         1.8474   53.5662   24.9686 C.3       1 UNK         0.0000 
     15 C15         3.9918   53.5821   21.8282 C.3       1 UNK         0.0000 
     16 C16         4.9746   54.4650   21.0554 C.ar      1 UNK         0.0000 
     17 N17         6.1728   54.7951   21.6106 N.ar      1 UNK         0.0000 
     18 C18         7.0360   55.4448   20.7915 C.ar      1 UNK         0.0000 
     19 N19         6.7776   55.8300   19.5165 N.ar      1 UNK         0.0000 
     20 C20         5.5520   55.4804   19.0223 C.ar      1 UNK         0.0000 
     21 N21         4.6755   54.7896   19.7836 N.pl3     1 UNK         0.0000 
     22 N22         5.1949   55.9122   17.6853 N.pl3     1 UNK         0.0000 
     23 C23         6.0833   56.7305   16.9135 C.ar      1 UNK         0.0000 
     24 C24         7.1193   56.1239   16.1964 C.ar      1 UNK         0.0000 
     25 C25         7.9889   56.9072   15.4405 C.ar      1 UNK         0.0000 
     26 C26         7.8159   58.2900   15.4019 C.ar      1 UNK         0.0000 
     27 C27         6.7866   58.8968   16.1169 C.ar      1 UNK         0.0000 
     28 C28         5.9230   58.1194   16.8833 C.ar      1 UNK         0.0000 
     29 C29         3.9562   55.4995   17.0693 C.ar      1 UNK         0.0000 
     30 C30         3.0955   56.4478   16.4975 C.ar      1 UNK         0.0000 
     31 C31         1.8885   56.0481   15.9335 C.ar      1 UNK         0.0000 
     32 C32         1.5418   54.6987   15.9250 C.ar      1 UNK         0.0000 
     33 C33         2.3948   53.7433   16.4722 C.ar      1 UNK         0.0000 
     34 C34         3.6021   54.1415   17.0410 C.ar      1 UNK         0.0000 
     35 N35         8.3044   55.6967   21.2816 N.pl3     1 UNK         0.0000 
     36 H36         3.1112   51.0667   32.8817 H         1 UNK         0.0000 
     37 H37         3.9894   52.5504   32.4799 H         1 UNK         0.0000 
     38 H38         4.1774   51.1047   31.4969 H         1 UNK         0.0000 
     39 H39         4.7041   52.6952   30.0110 H         1 UNK         0.0000 
     40 H40         4.8922   53.4024   27.7223 H         1 UNK         0.0000 
     41 H41         0.5979   53.3261   27.3356 H         1 UNK         0.0000 
     42 H42         0.4215   52.5702   29.6511 H         1 UNK         0.0000 
     43 H43         3.5046   55.6701   25.3676 H         1 UNK         0.0000 
     44 H44         4.7412   54.8175   26.2030 H         1 UNK         0.0000 
     45 H45         5.2746   54.9256   23.8693 H         1 UNK         0.0000 
     46 H46         5.0172   53.2354   24.3108 H         1 UNK         0.0000 
     47 H47         2.7045   52.2205   23.5847 H         1 UNK         0.0000 
     48 H48         1.5376   53.3350   22.8411 H         1 UNK         0.0000 
     49 H49         1.1432   52.7919   25.2715 H         1 UNK         0.0000 
     50 H50         1.2802   54.4966   24.9121 H         1 UNK         0.0000 
     51 H51         4.4611   52.6066   21.9728 H         1 UNK         0.0000 
     52 H52         3.1371   53.4006   21.1729 H         1 UNK         0.0000 
     53 H53         7.2522   55.0507   16.2233 H         1 UNK         0.0000 
     54 H54         8.7931   56.4436   14.8880 H         1 UNK         0.0000 
     55 H55         8.4867   58.8986   14.8108 H         1 UNK         0.0000 
     56 H56         6.6580   59.9710   16.0827 H         1 UNK         0.0000 
     57 H57         5.1351   58.6076   17.4408 H         1 UNK         0.0000 
     58 H58         3.3390   57.5014   16.5005 H         1 UNK         0.0000 
     59 H59         1.2224   56.7826   15.5052 H         1 UNK         0.0000 
     60 H60         0.6049   54.3883   15.4834 H         1 UNK         0.0000 
     61 H61         2.1276   52.6955   16.4512 H         1 UNK         0.0000 
     62 H62         4.2615   53.3842   17.4458 H         1 UNK         0.0000 
     63 H63         8.9780   56.1303   20.6676 H         1 UNK         0.0000 
     64 H64         8.5495   55.4174   22.2262 H         1 UNK         0.0000 
     65 H65         3.7684   54.5525   19.4042 H         1 UNK         0.0000 
@<TRIPOS>BOND
     1    1    2 1    
     2    1   36 1    
     3    1   37 1    
     4    1   38 1    
     5    2    3 1    
     6    3    8 ar   
     7    3    4 ar   
     8    4    5 ar   
     9    4   39 1    
    10    5    6 ar   
    11    5   40 1    
    12    6    7 ar   
    13    6    9 1    
    14    7    8 ar   
    15    7   41 1    
    16    8   42 1    
    17    9   14 1    
    18    9   10 1    
    19   10   11 1    
    20   10   43 1    
    21   10   44 1    
    22   11   12 1    
    23   11   45 1    
    24   11   46 1    
    25   12   13 1    
    26   12   15 1    
    27   13   14 1    
    28   13   47 1    
    29   13   48 1    
    30   14   49 1    
    31   14   50 1    
    32   15   16 1    
    33   15   51 1    
    34   15   52 1    
    35   16   21 ar   
    36   16   17 ar   
    37   17   18 ar   
    38   18   19 ar   
    39   18   35 1    
    40   19   20 ar   
    41   20   21 ar   
    42   20   22 1    
    43   21   65 1    
    44   22   23 1    
    45   22   29 1    
    46   23   28 ar   
    47   23   24 ar   
    48   24   25 ar   
    49   24   53 1    
    50   25   26 ar   
    51   25   54 1    
    52   26   27 ar   
    53   26   55 1    
    54   27   28 ar   
    55   27   56 1    
    56   28   57 1    
    57   29   34 ar   
    58   29   30 ar   
    59   30   31 ar   
    60   30   58 1    
    61   31   32 ar   
    62   31   59 1    
    63   32   33 ar   
    64   32   60 1    
    65   33   34 ar   
    66   33   61 1    
    67   34   62 1    
    68   35   63 1    
    69   35   64 1    
@<TRIPOS>SUBSTRUCTURE
     1 UNK         1 GROUP             0       ****    0 ROOT    
