@<TRIPOS>MOLECULE
ZINC50323987_1798
38   40    1
SMALL
USER_CHARGES


@<TRIPOS>ATOM
      1 C1          2.7846   53.5326   25.4681 C.3       1 UNK         0.0000 
      2 C2          3.1180   53.4727   26.9729 C.3       1 UNK         0.0000 
      3 C3          4.6478   53.5511   27.2277 C.3       1 UNK         0.0000 
      4 H4          5.1036   52.6607   26.7898 H         1 UNK         0.0000 
      5 C5          5.2699   54.7560   26.4895 C.3       1 UNK         0.0000 
      6 N6          4.9306   54.6277   25.0616 N.am      1 UNK         0.0000 
      7 C7          3.4848   54.7230   24.7861 C.3       1 UNK         0.0000 
      8 C8          5.9247   54.4181   24.1551 C.2       1 UNK         0.0000 
      9 O9          7.1043   54.3125   24.4888 O.2       1 UNK         0.0000 
     10 C10         5.6013   54.3753   22.7472 C.ar      1 UNK         0.0000 
     11 C11         6.3050   54.8974   21.6609 C.ar      1 UNK         0.0000 
     12 C12         5.5519   54.5208   20.5267 C.ar      1 UNK         0.0000 
     13 N13         4.5113   53.7872   20.8523 N.2       1 UNK         0.0000 
     14 N14         4.5686   53.6774   22.1751 N.pl3     1 UNK         0.0000 
     15 H15         3.8845   53.1467   22.6930 H         1 UNK         0.0000 
     16 C16         5.8135   54.8214   19.0647 C.3       1 UNK         0.0000 
     17 C17         7.1670   54.5459   18.4507 C.3       1 UNK         0.0000 
     18 C18         5.9706   53.6964   18.0685 C.3       1 UNK         0.0000 
     19 N19         7.4784   55.6071   21.6810 N.pl3     1 UNK         0.0000 
     20 C20         5.0266   53.5607   28.7166 C.3       1 UNK         0.0000 
     21 F21         4.4388   54.5591   29.3760 F         1 UNK         0.0000 
     22 F22         4.6725   52.4208   29.3082 F         1 UNK         0.0000 
     23 F23         6.3452   53.6981   28.8630 F         1 UNK         0.0000 
     24 H24         1.7054   53.6197   25.3352 H         1 UNK         0.0000 
     25 H25         3.0673   52.6053   24.9719 H         1 UNK         0.0000 
     26 H26         2.6266   54.3077   27.4758 H         1 UNK         0.0000 
     27 H27         2.6982   52.5762   27.4326 H         1 UNK         0.0000 
     28 H28         6.3423   54.8623   26.6695 H         1 UNK         0.0000 
     29 H29         4.8419   55.6865   26.8604 H         1 UNK         0.0000 
     30 H30         3.1579   55.6329   25.2813 H         1 UNK         0.0000 
     31 H31         3.2063   54.9076   23.7489 H         1 UNK         0.0000 
     32 H32         5.2918   55.7080   18.7072 H         1 UNK         0.0000 
     33 H33         7.9516   54.1052   19.0678 H         1 UNK         0.0000 
     34 H34         7.5631   55.2583   17.7258 H         1 UNK         0.0000 
     35 H35         5.5219   53.8113   17.0815 H         1 UNK         0.0000 
     36 H36         5.9143   52.6669   18.4258 H         1 UNK         0.0000 
     37 H37         8.0177   55.6916   22.5383 H         1 UNK         0.0000 
     38 H38         7.9552   55.8432   20.8225 H         1 UNK         0.0000 
@<TRIPOS>BOND
     1    1    7 1    
     2    1    2 1    
     3    1   24 1    
     4    1   25 1    
     5    2    3 1    
     6    2   26 1    
     7    2   27 1    
     8    3    4 1    
     9    3    5 1    
    10    3   20 1    
    11    5    6 1    
    12    5   28 1    
    13    5   29 1    
    14    6    7 1    
    15    6    8 am   BACKBONE|DICT|INTERRES
    16    7   30 1    
    17    7   31 1    
    18    8    9 2    
    19    8   10 1    
    20   10   14 ar   
    21   10   11 ar   
    22   11   12 ar   
    23   11   19 1    
    24   12   13 ar   
    25   12   16 1    
    26   13   14 ar   
    27   14   15 1    
    28   16   18 1    
    29   16   17 1    
    30   16   32 1    
    31   17   18 1    
    32   17   33 1    
    33   17   34 1    
    34   18   35 1    
    35   18   36 1    
    36   19   37 1    
    37   19   38 1    
    38   20   21 1    
    39   20   22 1    
    40   20   23 1    
@<TRIPOS>SUBSTRUCTURE
     1 UNK         1 GROUP             0       ****    0 ROOT    
