@<TRIPOS>MOLECULE
ZINC59290555_2736
49   52    1
SMALL
USER_CHARGES


@<TRIPOS>ATOM
      1 C1          1.6530   49.8948   17.8851 C.3       1 UNK         0.0000 
      2 C2          1.7602   50.2688   19.3485 C.ar      1 UNK         0.0000 
      3 C3          1.1825   49.4716   20.3412 C.ar      1 UNK         0.0000 
      4 C4          1.3698   49.8843   21.6628 C.ar      1 UNK         0.0000 
      5 N5          2.0976   50.9836   21.9864 N.ar      1 UNK         0.0000 
      6 C6          2.5866   51.7135   20.9464 C.ar      1 UNK         0.0000 
      7 N7          2.4489   51.4050   19.6339 N.ar      1 UNK         0.0000 
      8 N8          3.3034   52.8890   21.2044 N.pl3     1 UNK         0.0000 
      9 N9          3.6200   53.3897   22.4853 N.am      1 UNK         0.0000 
     10 C10         2.6622   53.8115   23.3384 C.2       1 UNK         0.0000 
     11 O11         1.5062   54.0969   23.0141 O.2       1 UNK         0.0000 
     12 C12         3.0764   53.8457   24.7209 C.ar      1 UNK         0.0000 
     13 C13         4.3811   54.0967   25.2153 C.ar      1 UNK         0.0000 
     14 C14         4.2340   54.1248   26.6002 C.ar      1 UNK         0.0000 
     15 N15         2.9073   53.8663   26.8460 N.pl3     1 UNK         0.0000 
     16 N16         2.2200   53.6966   25.7120 N.2       1 UNK         0.0000 
     17 C17         2.2082   53.9227   28.0644 C.ar      1 UNK         0.0000 
     18 C18         1.4118   52.8542   28.4982 C.ar      1 UNK         0.0000 
     19 C19         0.6712   52.9753   29.6774 C.ar      1 UNK         0.0000 
     20 C20         0.7046   54.1670   30.4066 C.ar      1 UNK         0.0000 
     21 C21         1.4868   55.2337   29.9606 C.ar      1 UNK         0.0000 
     22 C22         2.2513   55.1042   28.8085 C.ar      1 UNK         0.0000 
     23 Br23        1.5039   56.8935   30.8820 Br        1 UNK         0.0000 
     24 C24         5.3394   54.3374   27.6299 C.3       1 UNK         0.0000 
     25 C25         6.7089   54.3177   26.9085 C.3       1 UNK         0.0000 
     26 C26         6.6854   55.0485   25.5485 C.3       1 UNK         0.0000 
     27 C27         5.7203   54.3856   24.5412 C.3       1 UNK         0.0000 
     28 C28         0.7532   49.1330   22.8231 C.3       1 UNK         0.0000 
     29 H29         2.2868   49.0310   17.6828 H         1 UNK         0.0000 
     30 H30         0.6264   49.6405   17.6216 H         1 UNK         0.0000 
     31 H31         1.9841   50.7055   17.2330 H         1 UNK         0.0000 
     32 H32         0.6197   48.5839   20.0973 H         1 UNK         0.0000 
     33 H33         3.5594   53.5124   20.4531 H         1 UNK         0.0000 
     34 H34         4.4916   53.0255   22.8411 H         1 UNK         0.0000 
     35 H35         1.3575   51.9390   27.9235 H         1 UNK         0.0000 
     36 H36         0.0560   52.1530   30.0162 H         1 UNK         0.0000 
     37 H37         0.1173   54.2655   31.3079 H         1 UNK         0.0000 
     38 H38         2.8386   55.9472   28.4804 H         1 UNK         0.0000 
     39 H39         5.2126   55.2970   28.1252 H         1 UNK         0.0000 
     40 H40         5.3160   53.5763   28.4113 H         1 UNK         0.0000 
     41 H41         7.4683   54.7525   27.5600 H         1 UNK         0.0000 
     42 H42         7.0157   53.2827   26.7474 H         1 UNK         0.0000 
     43 H43         6.4064   56.0930   25.6971 H         1 UNK         0.0000 
     44 H44         7.6799   55.0585   25.1066 H         1 UNK         0.0000 
     45 H45         6.1551   53.4547   24.1752 H         1 UNK         0.0000 
     46 H46         5.5997   55.0242   23.6670 H         1 UNK         0.0000 
     47 H47         1.5042   48.4968   23.2815 H         1 UNK         0.0000 
     48 H48         0.3776   49.8206   23.5820 H         1 UNK         0.0000 
     49 H49        -0.0773   48.5054   22.5006 H         1 UNK         0.0000 
@<TRIPOS>BOND
     1    1    2 1    
     2    1   29 1    
     3    1   30 1    
     4    1   31 1    
     5    2    7 ar   
     6    2    3 ar   
     7    3    4 ar   
     8    3   32 1    
     9    4    5 ar   
    10    4   28 1    
    11    5    6 ar   
    12    6    7 ar   
    13    6    8 1    
    14    8    9 1    
    15    8   33 1    
    16    9   10 am   BACKBONE|DICT|INTERRES
    17    9   34 1    
    18   10   11 2    
    19   10   12 1    
    20   12   16 ar   
    21   12   13 ar   
    22   13   27 1    
    23   13   14 ar   
    24   14   15 ar   
    25   14   24 1    
    26   15   16 ar   
    27   15   17 1    
    28   17   22 ar   
    29   17   18 ar   
    30   18   19 ar   
    31   18   35 1    
    32   19   20 ar   
    33   19   36 1    
    34   20   21 ar   
    35   20   37 1    
    36   21   22 ar   
    37   21   23 1    
    38   22   38 1    
    39   24   25 1    
    40   24   39 1    
    41   24   40 1    
    42   25   26 1    
    43   25   41 1    
    44   25   42 1    
    45   26   27 1    
    46   26   43 1    
    47   26   44 1    
    48   27   45 1    
    49   27   46 1    
    50   28   47 1    
    51   28   48 1    
    52   28   49 1    
@<TRIPOS>SUBSTRUCTURE
     1 UNK         1 GROUP             0       ****    0 ROOT    
