@<TRIPOS>MOLECULE
ZINC32971813_3978
56   59    1
SMALL
USER_CHARGES


@<TRIPOS>ATOM
      1 C1          2.3778   48.1101   19.2465 C.3       1 UNK         0.0000 
      2 C2          1.0866   48.9111   19.4352 C.3       1 UNK         0.0000 
      3 N3          1.2693   49.8817   20.5077 N.pl3     1 UNK         0.0000 
      4 C4          1.7568   51.1624   20.4216 C.ar      1 UNK         0.0000 
      5 C5          1.7678   51.6293   21.7322 C.ar      1 UNK         0.0000 
      6 C6          1.2913   50.5510   22.5049 C.ar      1 UNK         0.0000 
      7 N7          1.0079   49.5069   21.7632 N.2       1 UNK         0.0000 
      8 C8          1.0691   50.4652   23.9991 C.3       1 UNK         0.0000 
      9 C9          2.1518   53.0119   22.2019 C.3       1 UNK         0.0000 
     10 N10         3.5510   53.3175   21.9001 N.pl3     1 UNK         0.0000 
     11 C11         4.4098   53.9666   22.8328 C.2       1 UNK         0.0000 
     12 N12         5.6510   54.4052   22.2716 N.pl3     1 UNK         0.0000 
     13 C13         6.0394   54.8967   21.0134 C.ar      1 UNK         0.0000 
     14 C14         5.2086   54.9593   19.8847 C.ar      1 UNK         0.0000 
     15 C15         5.7010   55.4516   18.6783 C.ar      1 UNK         0.0000 
     16 C16         7.0246   55.8748   18.5905 C.ar      1 UNK         0.0000 
     17 C17         7.8606   55.8131   19.7003 C.ar      1 UNK         0.0000 
     18 C18         7.3637   55.3325   20.9073 C.ar      1 UNK         0.0000 
     19 Br19        7.6966   56.5473   16.9432 Br        1 UNK         0.0000 
     20 N20         4.0793   54.0957   24.0656 N.am      1 UNK         0.0000 
     21 C21         4.9194   54.5624   25.0746 C.2       1 UNK         0.0000 
     22 O22         5.9437   55.2332   24.8835 O.2       1 UNK         0.0000 
     23 C23         4.4589   54.2370   26.4790 C.ar      1 UNK         0.0000 
     24 C24         5.3158   54.5183   27.5640 C.ar      1 UNK         0.0000 
     25 C25         4.9332   54.2557   28.8811 C.ar      1 UNK         0.0000 
     26 C26         3.6830   53.6905   29.0956 C.ar      1 UNK         0.0000 
     27 C27         2.8413   53.4080   28.0603 C.ar      1 UNK         0.0000 
     28 C28         3.1910   53.6666   26.7397 C.ar      1 UNK         0.0000 
     29 O29         1.7062   52.8403   28.5457 O.3       1 UNK         0.0000 
     30 C30         1.7736   52.9983   29.9374 C.3       1 UNK         0.0000 
     31 O31         3.1042   53.3053   30.2643 O.3       1 UNK         0.0000 
     32 C32         2.1559   51.8105   19.1110 C.3       1 UNK         0.0000 
     33 H33         2.2474   47.2981   18.5316 H         1 UNK         0.0000 
     34 H34         3.1843   48.7463   18.8804 H         1 UNK         0.0000 
     35 H35         2.7043   47.6932   20.1972 H         1 UNK         0.0000 
     36 H36         0.2578   48.2493   19.6929 H         1 UNK         0.0000 
     37 H37         0.8061   49.4315   18.5189 H         1 UNK         0.0000 
     38 H38         1.5026   51.3086   24.5333 H         1 UNK         0.0000 
     39 H39         0.0059   50.4512   24.2419 H         1 UNK         0.0000 
     40 H40         1.5041   49.5612   24.4274 H         1 UNK         0.0000 
     41 H41         1.9194   53.1356   23.2595 H         1 UNK         0.0000 
     42 H42         1.5344   53.7403   21.6819 H         1 UNK         0.0000 
     43 H43         3.7913   53.3521   20.9213 H         1 UNK         0.0000 
     44 H44         4.1734   54.6643   19.9130 H         1 UNK         0.0000 
     45 H45         5.0570   55.5068   17.8126 H         1 UNK         0.0000 
     46 H46         8.8897   56.1365   19.6267 H         1 UNK         0.0000 
     47 H47         8.0247   55.2919   21.7622 H         1 UNK         0.0000 
     48 H48         6.2490   54.7821   22.9961 H         1 UNK         0.0000 
     49 H49         6.2902   54.9580   27.3987 H         1 UNK         0.0000 
     50 H50         5.6087   54.4993   29.6817 H         1 UNK         0.0000 
     51 H51         2.5004   53.4234   25.9453 H         1 UNK         0.0000 
     52 H52         1.1255   53.8261   30.2339 H         1 UNK         0.0000 
     53 H53         1.4402   52.0924   30.4453 H         1 UNK         0.0000 
     54 H54         2.4369   52.8554   19.2391 H         1 UNK         0.0000 
     55 H55         3.0084   51.3039   18.6545 H         1 UNK         0.0000 
     56 H56         1.3449   51.7942   18.3837 H         1 UNK         0.0000 
@<TRIPOS>BOND
     1    1    2 1    
     2    1   33 1    
     3    1   34 1    
     4    1   35 1    
     5    2    3 1    
     6    2   36 1    
     7    2   37 1    
     8    3    7 ar   
     9    3    4 ar   
    10    4    5 ar   
    11    4   32 1    
    12    5    6 ar   
    13    5    9 1    
    14    6    7 ar   
    15    6    8 1    
    16    8   38 1    
    17    8   39 1    
    18    8   40 1    
    19    9   41 1    
    20    9   42 1    
    21    9   10 1    
    22   10   11 1    
    23   10   43 1    
    24   11   12 1    
    25   11   20 2    
    26   12   13 1    
    27   12   48 1    
    28   13   18 ar   
    29   13   14 ar   
    30   14   15 ar   
    31   14   44 1    
    32   15   16 ar   
    33   15   45 1    
    34   16   17 ar   
    35   16   19 1    
    36   17   18 ar   
    37   17   46 1    
    38   18   47 1    
    39   20   21 am   BACKBONE|DICT|INTERRES
    40   21   22 2    
    41   21   23 1    
    42   23   28 ar   
    43   23   24 ar   
    44   24   25 ar   
    45   24   49 1    
    46   25   26 ar   
    47   25   50 1    
    48   26   31 1    
    49   26   27 ar   
    50   27   28 ar   
    51   27   29 1    
    52   28   51 1    
    53   29   30 1    
    54   30   31 1    
    55   30   52 1    
    56   30   53 1    
    57   32   54 1    
    58   32   55 1    
    59   32   56 1    
@<TRIPOS>SUBSTRUCTURE
     1 UNK         1 GROUP             0       ****    0 ROOT    
