@<TRIPOS>MOLECULE
ZINC39637225_3667
68   71    1
SMALL
USER_CHARGES


@<TRIPOS>ATOM
      1 C1         -6.6788   53.9753   26.6983 C.3       1 UNK         0.0000 
      2 C2         -6.1673   53.1773   25.4796 C.3       1 UNK         0.0000 
      3 H3         -6.3500   53.7943   24.5964 H         1 UNK         0.0000 
      4 C4         -6.9439   51.8573   25.3030 C.3       1 UNK         0.0000 
      5 C5         -6.5362   51.1410   24.0047 C.3       1 UNK         0.0000 
      6 C6         -5.0057   50.9593   23.8739 C.3       1 UNK         0.0000 
      7 C7         -4.1580   52.2250   24.2092 C.3       1 UNK         0.0000 
      8 H8         -4.3769   52.9593   23.4365 H         1 UNK         0.0000 
      9 C9         -4.6391   52.8875   25.5319 C.3       1 UNK         0.0000 
     10 H10        -4.1664   53.8714   25.5665 H         1 UNK         0.0000 
     11 C11        -4.1574   52.0957   26.7665 C.3       1 UNK         0.0000 
     12 N12        -2.7276   51.9499   24.1874 N.am      1 UNK         0.0000 
     13 C13        -1.9496   51.8096   23.1039 C.2       1 UNK         0.0000 
     14 O14        -2.3131   52.0960   21.9609 O.2       1 UNK         0.0000 
     15 C15        -0.5280   51.2817   23.3953 C.3       1 UNK         0.0000 
     16 H16        -0.2490   51.6190   24.3944 H         1 UNK         0.0000 
     17 C17         0.5320   51.7112   22.3522 C.3       1 UNK         0.0000 
     18 N18         0.6188   50.5814   21.4132 N.am      1 UNK         0.0000 
     19 C19        -0.1970   49.4506   21.8542 C.3       1 UNK         0.0000 
     20 C20        -0.4944   49.7210   23.3395 C.3       1 UNK         0.0000 
     21 C21        -1.7116   48.8580   23.7967 C.3       1 UNK         0.0000 
     22 C22        -1.9764   48.9245   25.3173 C.3       1 UNK         0.0000 
     23 N23        -0.6986   48.5018   26.0738 N.4       1 UNK         0.0000 
     24 C24         0.5517   49.2972   25.6734 C.3       1 UNK         0.0000 
     25 C25         0.7040   49.1534   24.1459 C.3       1 UNK         0.0000 
     26 C26         1.2577   50.5411   20.2129 C.2       1 UNK         0.0000 
     27 O27         1.0948   49.6063   19.4243 O.2       1 UNK         0.0000 
     28 C28         2.1983   51.6602   19.8230 C.ar      1 UNK         0.0000 
     29 C29         2.2344   52.1094   18.4981 C.ar      1 UNK         0.0000 
     30 C30         3.1080   53.1268   18.1162 C.ar      1 UNK         0.0000 
     31 C31         3.9723   53.6973   19.0487 C.ar      1 UNK         0.0000 
     32 C32         3.9871   53.2317   20.3706 C.ar      1 UNK         0.0000 
     33 C33         3.1080   52.2069   20.7381 C.ar      1 UNK         0.0000 
     34 C34         4.9226   53.8018   21.4339 C.3       1 UNK         0.0000 
     35 F35         4.1917   54.4956   22.3089 F         1 UNK         0.0000 
     36 F36         5.5041   52.8019   22.0935 F         1 UNK         0.0000 
     37 F37         5.8835   54.5932   20.9497 F         1 UNK         0.0000 
     38 F38         4.7909   54.6975   18.6485 F         1 UNK         0.0000 
     39 H39        -6.6592   53.3851   27.6158 H         1 UNK         0.0000 
     40 H40        -6.0837   54.8734   26.8678 H         1 UNK         0.0000 
     41 H41        -7.7116   54.2950   26.5471 H         1 UNK         0.0000 
     42 H42        -6.8111   51.2100   26.1710 H         1 UNK         0.0000 
     43 H43        -8.0158   52.0633   25.2795 H         1 UNK         0.0000 
     44 H44        -7.0270   50.1670   23.9534 H         1 UNK         0.0000 
     45 H45        -6.9094   51.6998   23.1457 H         1 UNK         0.0000 
     46 H46        -4.7181   50.1536   24.5509 H         1 UNK         0.0000 
     47 H47        -4.7780   50.6135   22.8651 H         1 UNK         0.0000 
     48 H48        -4.4552   51.0490   26.7224 H         1 UNK         0.0000 
     49 H49        -4.5702   52.4937   27.6835 H         1 UNK         0.0000 
     50 H50        -3.0726   52.1186   26.8649 H         1 UNK         0.0000 
     51 H51        -2.2893   51.8864   25.0954 H         1 UNK         0.0000 
     52 H52         0.2793   52.6703   21.8945 H         1 UNK         0.0000 
     53 H53         1.4642   51.8290   22.9027 H         1 UNK         0.0000 
     54 H54         0.2415   48.4676   21.6776 H         1 UNK         0.0000 
     55 H55        -1.1335   49.4678   21.2937 H         1 UNK         0.0000 
     56 H56        -2.6146   49.1382   23.2514 H         1 UNK         0.0000 
     57 H57        -1.5501   47.8145   23.5224 H         1 UNK         0.0000 
     58 H58        -2.2116   49.9180   25.6918 H         1 UNK         0.0000 
     59 H59        -2.7623   48.2399   25.6402 H         1 UNK         0.0000 
     60 H60        -0.8959   48.5191   27.0902 H         1 UNK         0.0000 
     61 H61         0.4181   50.3181   26.0345 H         1 UNK         0.0000 
     62 H62         1.3785   48.8330   26.2137 H         1 UNK         0.0000 
     63 H63         0.8355   48.0963   23.9032 H         1 UNK         0.0000 
     64 H64         1.6416   49.6190   23.8394 H         1 UNK         0.0000 
     65 H65         1.5844   51.6738   17.7517 H         1 UNK         0.0000 
     66 H66         3.1235   53.4711   17.0947 H         1 UNK         0.0000 
     67 H67         3.1662   51.8193   21.7429 H         1 UNK         0.0000 
     68 H68        -0.5087   47.5223   25.9088 H         1 UNK         0.0000 
@<TRIPOS>BOND
     1    1    2 1    
     2    1   39 1    
     3    1   40 1    
     4    1   41 1    
     5    2    3 1    
     6    2    9 1    
     7    2    4 1    
     8    4    5 1    
     9    4   42 1    
    10    4   43 1    
    11    5    6 1    
    12    5   44 1    
    13    5   45 1    
    14    6    7 1    
    15    6   46 1    
    16    6   47 1    
    17    7    8 1    
    18    7    9 1    
    19    7   12 1    
    20    9   10 1    
    21    9   11 1    
    22   11   48 1    
    23   11   49 1    
    24   11   50 1    
    25   12   13 am   BACKBONE|DICT|INTERRES
    26   12   51 1    
    27   13   14 2    
    28   13   15 1    
    29   15   16 1    
    30   15   20 1    
    31   15   17 1    
    32   17   18 1    
    33   17   52 1    
    34   17   53 1    
    35   18   19 1    
    36   18   26 am   BACKBONE|DICT|INTERRES
    37   19   20 1    
    38   19   54 1    
    39   19   55 1    
    40   20   25 1    
    41   20   21 1    
    42   21   22 1    
    43   21   56 1    
    44   21   57 1    
    45   22   23 1    
    46   22   58 1    
    47   22   59 1    
    48   23   24 1    
    49   23   60 1    
    50   23   68 1    
    51   24   25 1    
    52   24   61 1    
    53   24   62 1    
    54   25   63 1    
    55   25   64 1    
    56   26   27 2    
    57   26   28 1    
    58   28   33 ar   
    59   28   29 ar   
    60   29   30 ar   
    61   29   65 1    
    62   30   31 ar   
    63   30   66 1    
    64   31   32 ar   
    65   31   38 1    
    66   32   33 ar   
    67   32   34 1    
    68   33   67 1    
    69   34   35 1    
    70   34   36 1    
    71   34   37 1    
@<TRIPOS>SUBSTRUCTURE
     1 UNK         1 GROUP             0       ****    0 ROOT    
