@<TRIPOS>MOLECULE
ZINC39689382_1302
69   72    1
SMALL
USER_CHARGES


@<TRIPOS>ATOM
      1 C1          6.1980   57.6615   18.5229 C.3       1 UNK         0.0000 
      2 C2          5.1518   56.6646   18.0585 C.ar      1 UNK         0.0000 
      3 C3          4.0672   57.0827   17.2817 C.ar      1 UNK         0.0000 
      4 C4          3.1104   56.1595   16.8649 C.ar      1 UNK         0.0000 
      5 C5          3.2411   54.8130   17.2032 C.ar      1 UNK         0.0000 
      6 C6          4.3246   54.3808   17.9730 C.ar      1 UNK         0.0000 
      7 C7          5.2731   55.3152   18.4069 C.ar      1 UNK         0.0000 
      8 C8          4.5060   52.8970   18.2856 C.3       1 UNK         0.0000 
      9 C9          3.3558   52.2312   19.0740 C.3       1 UNK         0.0000 
     10 N10         3.0685   52.8971   20.3403 N.am      1 UNK         0.0000 
     11 C11         3.6494   52.6372   21.5219 C.2       1 UNK         0.0000 
     12 O12         4.5063   51.7663   21.6645 O.2       1 UNK         0.0000 
     13 C13         3.2332   53.5776   22.6845 C.3       1 UNK         0.0000 
     14 H14         3.0185   54.5552   22.2477 H         1 UNK         0.0000 
     15 C15         4.4265   53.7633   23.6470 C.3       1 UNK         0.0000 
     16 N16         3.8112   53.8928   24.9711 N.am      1 UNK         0.0000 
     17 C17         2.3528   53.7550   24.9162 C.3       1 UNK         0.0000 
     18 C18         2.0280   53.0943   23.5547 C.3       1 UNK         0.0000 
     19 C19         0.7045   53.5693   22.9463 C.3       1 UNK         0.0000 
     20 C20        -0.5442   53.2397   23.7935 C.3       1 UNK         0.0000 
     21 N21        -0.6197   51.7159   24.0360 N.4       1 UNK         0.0000 
     22 C22         0.6866   51.1209   24.5919 C.3       1 UNK         0.0000 
     23 C23         1.8314   51.5431   23.6524 C.3       1 UNK         0.0000 
     24 C24         4.5520   54.2629   26.0534 C.2       1 UNK         0.0000 
     25 O25         5.7596   54.4974   25.9393 O.2       1 UNK         0.0000 
     26 C26         3.9052   54.3857   27.4645 C.3       1 UNK         0.0000 
     27 H27         3.3092   55.2960   27.4161 H         1 UNK         0.0000 
     28 C28         4.9454   54.4659   28.6144 C.3       1 UNK         0.0000 
     29 O29         3.0620   53.2520   27.6910 O.3       1 UNK         0.0000 
     30 C30         2.0358   53.2949   28.6171 C.ar      1 UNK         0.0000 
     31 C31         1.2561   52.1426   28.7092 C.ar      1 UNK         0.0000 
     32 C32         0.2047   52.0690   29.6170 C.ar      1 UNK         0.0000 
     33 C33        -0.0510   53.1420   30.4640 C.ar      1 UNK         0.0000 
     34 C34         0.7032   54.3099   30.3719 C.ar      1 UNK         0.0000 
     35 C35         1.7394   54.3938   29.4441 C.ar      1 UNK         0.0000 
     36 H36         5.8998   58.6954   18.3347 H         1 UNK         0.0000 
     37 H37         6.3643   57.5508   19.5959 H         1 UNK         0.0000 
     38 H38         7.1502   57.4715   18.0221 H         1 UNK         0.0000 
     39 H39         3.9619   58.1229   17.0078 H         1 UNK         0.0000 
     40 H40         2.2747   56.4861   16.2650 H         1 UNK         0.0000 
     41 H41         2.5056   54.1047   16.8518 H         1 UNK         0.0000 
     42 H42         6.1183   54.9873   18.9957 H         1 UNK         0.0000 
     43 H43         5.4371   52.7420   18.8319 H         1 UNK         0.0000 
     44 H44         4.6432   52.3814   17.3346 H         1 UNK         0.0000 
     45 H45         3.5034   51.1568   19.1933 H         1 UNK         0.0000 
     46 H46         2.4352   52.3493   18.5029 H         1 UNK         0.0000 
     47 H47         2.4237   53.6752   20.2826 H         1 UNK         0.0000 
     48 H48         4.9792   54.6650   23.3770 H         1 UNK         0.0000 
     49 H49         5.0831   52.8967   23.6911 H         1 UNK         0.0000 
     50 H50         1.8396   53.3153   25.7651 H         1 UNK         0.0000 
     51 H51         1.9966   54.7884   24.8726 H         1 UNK         0.0000 
     52 H52         0.7685   54.6552   22.8817 H         1 UNK         0.0000 
     53 H53         0.5989   53.2121   21.9191 H         1 UNK         0.0000 
     54 H54        -0.5189   53.6964   24.7785 H         1 UNK         0.0000 
     55 H55        -1.4764   53.5035   23.2863 H         1 UNK         0.0000 
     56 H56        -1.3845   51.4975   24.6618 H         1 UNK         0.0000 
     57 H57         0.7963   51.4698   25.6188 H         1 UNK         0.0000 
     58 H58         0.5462   50.0380   24.6087 H         1 UNK         0.0000 
     59 H59         1.6934   51.0932   22.6669 H         1 UNK         0.0000 
     60 H60         2.7040   51.0616   24.0497 H         1 UNK         0.0000 
     61 H61         5.6372   55.2963   28.4795 H         1 UNK         0.0000 
     62 H62         4.4819   54.5960   29.5896 H         1 UNK         0.0000 
     63 H63         5.5460   53.5566   28.6616 H         1 UNK         0.0000 
     64 H64         1.4719   51.2959   28.0741 H         1 UNK         0.0000 
     65 H65        -0.3948   51.1706   29.6834 H         1 UNK         0.0000 
     66 H66        -0.8376   53.0514   31.1991 H         1 UNK         0.0000 
     67 H67         0.4877   55.1426   31.0243 H         1 UNK         0.0000 
     68 H68         2.3060   55.3107   29.3936 H         1 UNK         0.0000 
     69 H69        -0.8265   51.2539   23.1604 H         1 UNK         0.0000 
@<TRIPOS>BOND
     1    1    2 1    
     2    1   36 1    
     3    1   37 1    
     4    1   38 1    
     5    2    7 ar   
     6    2    3 ar   
     7    3    4 ar   
     8    3   39 1    
     9    4    5 ar   
    10    4   40 1    
    11    5    6 ar   
    12    5   41 1    
    13    6    7 ar   
    14    6    8 1    
    15    7   42 1    
    16    8    9 1    
    17    8   43 1    
    18    8   44 1    
    19    9   10 1    
    20    9   45 1    
    21    9   46 1    
    22   10   11 am   BACKBONE|DICT|INTERRES
    23   10   47 1    
    24   11   12 2    
    25   11   13 1    
    26   13   14 1    
    27   13   18 1    
    28   13   15 1    
    29   15   16 1    
    30   15   48 1    
    31   15   49 1    
    32   16   17 1    
    33   16   24 am   BACKBONE|DICT|INTERRES
    34   17   18 1    
    35   17   50 1    
    36   17   51 1    
    37   18   23 1    
    38   18   19 1    
    39   19   20 1    
    40   19   52 1    
    41   19   53 1    
    42   20   21 1    
    43   20   54 1    
    44   20   55 1    
    45   21   22 1    
    46   21   56 1    
    47   21   69 1    
    48   22   23 1    
    49   22   57 1    
    50   22   58 1    
    51   23   59 1    
    52   23   60 1    
    53   24   25 2    
    54   24   26 1    
    55   26   27 1    
    56   26   28 1    
    57   26   29 1    
    58   28   61 1    
    59   28   62 1    
    60   28   63 1    
    61   29   30 1    
    62   30   35 ar   
    63   30   31 ar   
    64   31   32 ar   
    65   31   64 1    
    66   32   33 ar   
    67   32   65 1    
    68   33   34 ar   
    69   33   66 1    
    70   34   35 ar   
    71   34   67 1    
    72   35   68 1    
@<TRIPOS>SUBSTRUCTURE
     1 UNK         1 GROUP             0       ****    0 ROOT    
