@<TRIPOS>MOLECULE
ZINC39852041_4647
62   65    1
SMALL
USER_CHARGES


@<TRIPOS>ATOM
      1 C1         -0.1008   50.6790   25.9240 C.3       1 UNK         0.0000 
      2 C2          0.4190   51.2549   27.2479 C.3       1 UNK         0.0000 
      3 C3         -0.7151   51.7230   28.1834 C.3       1 UNK         0.0000 
      4 C4         -0.2605   52.1969   29.5793 C.3       1 UNK         0.0000 
      5 N5          0.6311   53.3598   29.5473 N.am      1 UNK         0.0000 
      6 C6          1.9578   53.3072   29.7115 C.2       1 UNK         0.0000 
      7 O7          2.3970   52.6362   30.6496 O.2       1 UNK         0.0000 
      8 N8          2.6827   53.9470   28.8384 N.2       1 UNK         0.0000 
      9 S9          4.2477   53.8046   28.8270 S.o2      1 UNK         0.0000 
     10 O10         4.9372   54.8967   29.5172 O.2       1 UNK         0.0000 
     11 O11         4.7439   52.4456   29.0651 O.2       1 UNK         0.0000 
     12 C12         4.6306   54.0800   27.0827 C.ar      1 UNK         0.0000 
     13 C13         3.6585   53.9671   26.0812 C.ar      1 UNK         0.0000 
     14 C14         4.0109   54.1000   24.7434 C.ar      1 UNK         0.0000 
     15 C15         5.3440   54.3426   24.3870 C.ar      1 UNK         0.0000 
     16 C16         6.3083   54.4941   25.3856 C.ar      1 UNK         0.0000 
     17 C17         5.9541   54.3477   26.7276 C.ar      1 UNK         0.0000 
     18 N18         5.7718   54.4965   23.0541 N.am      1 UNK         0.0000 
     19 C19         5.1139   54.1513   21.9246 C.2       1 UNK         0.0000 
     20 O20         4.1446   53.3939   21.8721 O.2       1 UNK         0.0000 
     21 C21         5.5964   54.8082   20.7342 C.2       1 UNK         0.0000 
     22 C22         6.8558   55.2944   20.3366 C.2       1 UNK         0.0000 
     23 C23         6.7164   55.6248   18.9685 C.2       1 UNK         0.0000 
     24 C24         5.3771   55.4214   18.6576 C.2       1 UNK         0.0000 
     25 O25         4.7156   54.8948   19.7063 O.3       1 UNK         0.0000 
     26 C26         4.6612   55.6743   17.3442 C.3       1 UNK         0.0000 
     27 C27         5.7263   55.8291   16.2353 C.3       1 UNK         0.0000 
     28 C28         6.9390   56.6731   16.6882 C.3       1 UNK         0.0000 
     29 C29         7.7164   56.0451   17.8833 C.3       1 UNK         0.0000 
     30 S30         8.9428   57.2527   18.4815 S.3       1 UNK         0.0000 
     31 C31        10.2708   56.7268   17.3807 C.3       1 UNK         0.0000 
     32 C32        10.3242   55.2057   17.4802 C.3       1 UNK         0.0000 
     33 S33         8.6389   54.5727   17.3168 S.3       1 UNK         0.0000 
     34 C34         8.1454   55.2988   21.1373 C.3       1 UNK         0.0000 
     35 H35         0.7208   50.3491   25.2866 H         1 UNK         0.0000 
     36 H36        -0.6701   51.4247   25.3693 H         1 UNK         0.0000 
     37 H37        -0.7518   49.8198   26.0972 H         1 UNK         0.0000 
     38 H38         1.0188   50.4971   27.7484 H         1 UNK         0.0000 
     39 H39         1.0956   52.0825   27.0392 H         1 UNK         0.0000 
     40 H40        -1.2865   52.5143   27.6984 H         1 UNK         0.0000 
     41 H41        -1.4167   50.8991   28.3217 H         1 UNK         0.0000 
     42 H42        -1.1242   52.4408   30.1933 H         1 UNK         0.0000 
     43 H43         0.2320   51.3624   30.0789 H         1 UNK         0.0000 
     44 H44         0.1963   54.2485   29.7315 H         1 UNK         0.0000 
     45 H45         2.6266   53.7556   26.3194 H         1 UNK         0.0000 
     46 H46         3.2316   54.0157   24.0020 H         1 UNK         0.0000 
     47 H47         7.3358   54.6918   25.1262 H         1 UNK         0.0000 
     48 H48         6.7139   54.4256   27.4930 H         1 UNK         0.0000 
     49 H49         6.6376   54.9975   22.9412 H         1 UNK         0.0000 
     50 H50         3.9870   54.8525   17.0968 H         1 UNK         0.0000 
     51 H51         4.0609   56.5801   17.4133 H         1 UNK         0.0000 
     52 H52         6.0684   54.8420   15.9225 H         1 UNK         0.0000 
     53 H53         5.2713   56.2705   15.3482 H         1 UNK         0.0000 
     54 H54         7.6142   56.8277   15.8451 H         1 UNK         0.0000 
     55 H55         6.5799   57.6676   16.9622 H         1 UNK         0.0000 
     56 H56        10.0379   57.0474   16.3657 H         1 UNK         0.0000 
     57 H57        11.2063   57.1894   17.6910 H         1 UNK         0.0000 
     58 H58        10.9586   54.7641   16.7115 H         1 UNK         0.0000 
     59 H59        10.7037   54.8854   18.4461 H         1 UNK         0.0000 
     60 H60         9.0159   55.1524   20.4976 H         1 UNK         0.0000 
     61 H61         8.2932   56.2344   21.6730 H         1 UNK         0.0000 
     62 H62         8.1901   54.4974   21.8731 H         1 UNK         0.0000 
@<TRIPOS>BOND
     1    1    2 1    
     2    1   35 1    
     3    1   36 1    
     4    1   37 1    
     5    2    3 1    
     6    2   38 1    
     7    2   39 1    
     8    3    4 1    
     9    3   40 1    
    10    3   41 1    
    11    4    5 1    
    12    4   42 1    
    13    4   43 1    
    14    5    6 am   BACKBONE|DICT|INTERRES
    15    5   44 1    
    16    6    7 2    
    17    6    8 1    
    18    8    9 1    
    19    9   10 2    
    20    9   11 2    
    21    9   12 1    
    22   12   17 ar   
    23   12   13 ar   
    24   13   14 ar   
    25   13   45 1    
    26   14   15 ar   
    27   14   46 1    
    28   15   16 ar   
    29   15   18 1    
    30   16   17 ar   
    31   16   47 1    
    32   17   48 1    
    33   18   19 am   BACKBONE|DICT|INTERRES
    34   18   49 1    
    35   19   20 2    
    36   19   21 1    
    37   21   25 1    
    38   21   22 2    
    39   22   23 1    
    40   22   34 1    
    41   23   29 1    
    42   23   24 2    
    43   24   25 1    
    44   24   26 1    
    45   26   27 1    
    46   26   50 1    
    47   26   51 1    
    48   27   28 1    
    49   27   52 1    
    50   27   53 1    
    51   28   29 1    
    52   28   54 1    
    53   28   55 1    
    54   29   33 1    
    55   29   30 1    
    56   30   31 1    
    57   31   32 1    
    58   31   56 1    
    59   31   57 1    
    60   32   33 1    
    61   32   58 1    
    62   32   59 1    
    63   34   60 1    
    64   34   61 1    
    65   34   62 1    
@<TRIPOS>SUBSTRUCTURE
     1 UNK         1 GROUP             0       ****    0 ROOT    
