@<TRIPOS>MOLECULE
ZINC09088922_1778
37   39    1
SMALL
USER_CHARGES


@<TRIPOS>ATOM
      1 C1          2.0219   51.8015   21.9123 C.3       1 UNK         0.0000 
      2 C2          1.3577   51.2544   23.1839 C.3       1 UNK         0.0000 
      3 C3          1.4034   52.2561   24.3568 C.3       1 UNK         0.0000 
      4 C4          0.8042   51.7625   25.6675 C.ar      1 UNK         0.0000 
      5 C5          0.9066   52.3822   26.9319 C.ar      1 UNK         0.0000 
      6 C6          0.1906   51.5451   27.7584 C.ar      1 UNK         0.0000 
      7 N7         -0.2528   50.4968   27.0149 N.pl3     1 UNK         0.0000 
      8 H8         -0.7947   49.7095   27.3713 H         1 UNK         0.0000 
      9 N9          0.1174   50.6276   25.7358 N.2       1 UNK         0.0000 
     10 O10        -0.0816   51.6975   29.0929 O.3       1 UNK         0.0000 
     11 C11         0.3353   52.8956   29.5940 C.2       1 UNK         0.0000 
     12 C12         1.0570   53.8429   28.9352 C.2       1 UNK         0.0000 
     13 C13         1.5418   53.6639   27.4796 C.3       1 UNK         0.0000 
     14 H14         1.1044   54.4951   26.9339 H         1 UNK         0.0000 
     15 C15         3.0637   53.7700   27.3265 C.2       1 UNK         0.0000 
     16 C16         3.6711   54.4420   26.2496 C.2       1 UNK         0.0000 
     17 C17         5.0494   54.4966   26.3110 C.2       1 UNK         0.0000 
     18 S18         5.6461   53.6968   27.7117 S.3       1 UNK         0.0000 
     19 C19         4.0352   53.2452   28.2053 C.2       1 UNK         0.0000 
     20 C20         3.8677   52.4022   29.4509 C.3       1 UNK         0.0000 
     21 C21         1.3683   55.0775   29.5797 C.1       1 UNK         0.0000 
     22 N22         1.5826   56.0965   30.0816 N.1       1 UNK         0.0000 
     23 N23        -0.0955   52.9657   30.8886 N.pl3     1 UNK         0.0000 
     24 H24         1.9736   51.0726   21.1031 H         1 UNK         0.0000 
     25 H25         1.5312   52.7120   21.5661 H         1 UNK         0.0000 
     26 H26         3.0735   52.0326   22.0808 H         1 UNK         0.0000 
     27 H27         1.8552   50.3273   23.4738 H         1 UNK         0.0000 
     28 H28         0.3227   50.9924   22.9603 H         1 UNK         0.0000 
     29 H29         0.9109   53.1822   24.0593 H         1 UNK         0.0000 
     30 H30         2.4464   52.5206   24.5280 H         1 UNK         0.0000 
     31 H31         3.1126   54.8897   25.4412 H         1 UNK         0.0000 
     32 H32         5.7284   54.9607   25.6110 H         1 UNK         0.0000 
     33 H33         2.9550   51.8086   29.4245 H         1 UNK         0.0000 
     34 H34         4.6895   51.6966   29.5723 H         1 UNK         0.0000 
     35 H35         3.8372   53.0158   30.3501 H         1 UNK         0.0000 
     36 H36         0.1073   53.7705   31.4613 H         1 UNK         0.0000 
     37 H37        -0.5424   52.1797   31.3509 H         1 UNK         0.0000 
@<TRIPOS>BOND
     1    1    2 1    
     2    1   24 1    
     3    1   25 1    
     4    1   26 1    
     5    2    3 1    
     6    2   27 1    
     7    2   28 1    
     8    3    4 1    
     9    3   29 1    
    10    3   30 1    
    11    4    9 ar   
    12    4    5 ar   
    13    5   13 1    
    14    5    6 ar   
    15    6    7 ar   
    16    6   10 1    
    17    7    8 1    
    18    7    9 ar   
    19   10   11 1    
    20   11   12 2    
    21   11   23 1    
    22   12   13 1    
    23   12   21 1    
    24   13   14 1    
    25   13   15 1    
    26   15   19 2    
    27   15   16 1    
    28   16   17 2    
    29   16   31 1    
    30   17   18 1    
    31   17   32 1    
    32   18   19 1    
    33   19   20 1    
    34   20   33 1    
    35   20   34 1    
    36   20   35 1    
    37   21   22 3    
    38   23   36 1    
    39   23   37 1    
@<TRIPOS>SUBSTRUCTURE
     1 UNK         1 GROUP             0       ****    0 ROOT    
