@<TRIPOS>MOLECULE
ZINC15874382_4572
45   47    1
SMALL
USER_CHARGES


@<TRIPOS>ATOM
      1 C1          4.3340   53.9744   28.8808 C.ar      1 UNK         0.0000 
      2 C2          3.2683   53.5739   28.0815 C.ar      1 UNK         0.0000 
      3 C3          3.3594   53.6964   26.6990 C.ar      1 UNK         0.0000 
      4 N4          4.5056   54.2063   26.1385 N.pl3     1 UNK         0.0000 
      5 C5          5.6000   54.6136   26.9184 C.ar      1 UNK         0.0000 
      6 C6          5.5010   54.4967   28.3183 C.ar      1 UNK         0.0000 
      7 N7          6.6005   55.0946   26.1365 N.2       1 UNK         0.0000 
      8 C8          6.1459   54.9884   24.9040 C.ar      1 UNK         0.0000 
      9 C9          4.8679   54.4227   24.8293 C.ar      1 UNK         0.0000 
     10 C10         4.0057   54.0965   23.7129 C.2       1 UNK         0.0000 
     11 C11         4.3830   53.4886   22.5681 C.2       1 UNK         0.0000 
     12 C12         3.4454   53.0874   21.5482 C.2       1 UNK         0.0000 
     13 O13         3.6912   53.2296   20.3505 O.2       1 UNK         0.0000 
     14 N14         2.3480   52.4871   22.0456 N.am      1 UNK         0.0000 
     15 N15         1.3174   52.0968   21.1975 N.pl3     1 UNK         0.0000 
     16 C16         0.0795   51.7697   21.6787 C.2       1 UNK         0.0000 
     17 S17        -1.0704   51.2985   20.5635 S.2       1 UNK         0.0000 
     18 N18        -0.1156   51.8582   23.0373 N.pl3     1 UNK         0.0000 
     19 C19        -1.3689   51.6153   23.7655 C.3       1 UNK         0.0000 
     20 C20        -1.1052   51.1710   25.2269 C.3       1 UNK         0.0000 
     21 C21        -2.3831   50.9792   26.0642 C.3       1 UNK         0.0000 
     22 C22        -3.3025   52.2108   26.0047 C.3       1 UNK         0.0000 
     23 C23        -3.6539   52.5649   24.5515 C.3       1 UNK         0.0000 
     24 C24        -2.3994   52.7755   23.6804 C.3       1 UNK         0.0000 
     25 Cl25        7.0951   55.5178   23.5733 Cl        1 UNK         0.0000 
     26 H26         4.2565   53.8832   29.9565 H         1 UNK         0.0000 
     27 H27         2.3736   53.1682   28.5328 H         1 UNK         0.0000 
     28 H28         2.5679   53.4004   26.0275 H         1 UNK         0.0000 
     29 H29         6.3046   54.8225   28.9569 H         1 UNK         0.0000 
     30 H30         2.9674   54.3572   23.8757 H         1 UNK         0.0000 
     31 H31         5.4174   53.2538   22.3648 H         1 UNK         0.0000 
     32 H32         2.0751   52.5556   23.0111 H         1 UNK         0.0000 
     33 H33         1.4217   52.5130   20.2795 H         1 UNK         0.0000 
     34 H34         0.6739   52.0879   23.6186 H         1 UNK         0.0000 
     35 H35        -1.8513   50.7432   23.3166 H         1 UNK         0.0000 
     36 H36        -0.5281   50.2435   25.2462 H         1 UNK         0.0000 
     37 H37        -0.5015   51.9290   25.7296 H         1 UNK         0.0000 
     38 H38        -2.9218   50.1005   25.7038 H         1 UNK         0.0000 
     39 H39        -2.1168   50.7557   27.0988 H         1 UNK         0.0000 
     40 H40        -4.2136   52.0241   26.5746 H         1 UNK         0.0000 
     41 H41        -2.8094   53.0615   26.4774 H         1 UNK         0.0000 
     42 H42        -4.2602   51.7637   24.1194 H         1 UNK         0.0000 
     43 H43        -4.2754   53.4618   24.5241 H         1 UNK         0.0000 
     44 H44        -1.9137   53.6973   24.0061 H         1 UNK         0.0000 
     45 H45        -2.7107   52.9257   22.6465 H         1 UNK         0.0000 
@<TRIPOS>BOND
     1    1    6 ar   
     2    1    2 ar   
     3    1   26 1    
     4    2    3 ar   
     5    2   27 1    
     6    3    4 ar   
     7    3   28 1    
     8    4    9 ar   
     9    4    5 ar   
    10    5    6 ar   
    11    5    7 ar   
    12    6   29 1    
    13    7    8 ar   
    14    8    9 ar   
    15    8   25 1    
    16    9   10 1    
    17   10   11 2    
    18   10   30 1    
    19   11   12 1    
    20   11   31 1    
    21   12   13 2    
    22   12   14 am   BACKBONE|DICT|INTERRES
    23   14   15 1    
    24   14   32 1    
    25   15   16 1    
    26   15   33 1    
    27   16   17 2    
    28   16   18 1    
    29   18   19 1    
    30   18   34 1    
    31   19   24 1    
    32   19   20 1    
    33   19   35 1    
    34   20   21 1    
    35   20   36 1    
    36   20   37 1    
    37   21   22 1    
    38   21   38 1    
    39   21   39 1    
    40   22   23 1    
    41   22   40 1    
    42   22   41 1    
    43   23   24 1    
    44   23   42 1    
    45   23   43 1    
    46   24   44 1    
    47   24   45 1    
@<TRIPOS>SUBSTRUCTURE
     1 UNK         1 GROUP             0       ****    0 ROOT    
