ZINC44855767_5259
                    3D
 Schrodinger Suite 2024-2.
 66 69  0  0  1  0            999 V2000
   -1.4414   51.2884   27.9165 C   0  0  0  0  0  0
   -0.2548   51.6828   28.8114 C   0  0  2  0  0  0
    0.3449   50.7926   28.9986 H   0  0  0  0  0  0
   -0.6581   52.1889   30.2008 C   0  0  0  0  0  0
    0.5780   52.5732   31.0237 C   0  0  0  0  0  0
    1.5536   53.4662   30.2304 C   0  0  0  0  0  0
    1.9205   52.9003   28.9165 N   0  0  0  0  0  0
    0.6842   52.7048   28.1387 C   0  0  0  0  0  0
    3.1119   53.2989   28.3188 C   0  0  0  0  0  0
    3.1676   53.7544   26.9942 C   0  0  0  0  0  0
    4.3826   54.0967   26.4112 C   0  0  0  0  0  0
    5.5703   53.9942   27.1446 C   0  0  0  0  0  0
    5.5180   53.5526   28.4651 C   0  0  0  0  0  0
    4.3040   53.2031   29.0437 C   0  0  0  0  0  0
    6.9433   54.3100   26.5508 C   0  0  0  0  0  0
    7.0948   54.0970   25.1038 N   0  0  0  0  0  0
    6.7044   54.9811   24.1729 C   0  0  0  0  0  0
    6.3045   56.0966   24.4829 O   0  0  0  0  0  0
    6.7304   54.5411   22.6939 C   0  0  2  0  0  0
    7.4136   53.6969   22.6912 H   0  0  0  0  0  0
    7.2507   55.6870   21.7928 C   0  0  0  0  0  0
    7.2205   55.2648   20.3116 C   0  0  0  0  0  0
    5.8172   54.8041   19.8627 C   0  0  0  0  0  0
    5.2691   53.6941   20.8013 N   0  3  1  0  0  0
    5.2958   54.1046   22.2987 C   0  0  0  0  0  0
    3.8568   53.2663   20.3198 C   0  0  0  0  0  0
    3.1022   52.2871   21.2114 C   0  0  0  0  0  0
    2.2816   52.7714   22.2356 C   0  0  0  0  0  0
    1.5711   51.8823   23.0377 C   0  0  0  0  0  0
    1.6697   50.5127   22.8038 C   0  0  0  0  0  0
    2.4631   50.0270   21.7655 C   0  0  0  0  0  0
    3.1795   50.9141   20.9657 C   0  0  0  0  0  0
    0.7056   49.2970   23.9057 Br  0  0  0  0  0  0
   -2.0422   52.1478   27.6251 H   0  0  0  0  0  0
   -1.0965   50.7979   27.0053 H   0  0  0  0  0  0
   -2.1014   50.5852   28.4268 H   0  0  0  0  0  0
   -1.2651   51.4468   30.7235 H   0  0  0  0  0  0
   -1.2939   53.0598   30.0818 H   0  0  0  0  0  0
    1.1056   51.6968   31.3974 H   0  0  0  0  0  0
    0.2561   53.1004   31.9232 H   0  0  0  0  0  0
    2.4444   53.5726   30.8448 H   0  0  0  0  0  0
    1.1461   54.4699   30.0970 H   0  0  0  0  0  0
    0.1804   53.6453   27.9116 H   0  0  0  0  0  0
    0.9526   52.2746   27.1735 H   0  0  0  0  0  0
    2.2727   53.8470   26.3977 H   0  0  0  0  0  0
    4.3766   54.4355   25.3879 H   0  0  0  0  0  0
    6.4300   53.4614   29.0351 H   0  0  0  0  0  0
    4.3036   52.8287   30.0565 H   0  0  0  0  0  0
    7.6761   53.6800   27.0521 H   0  0  0  0  0  0
    7.1708   55.3417   26.8267 H   0  0  0  0  0  0
    7.3475   53.1648   24.8141 H   0  0  0  0  0  0
    8.2774   55.9676   22.0390 H   0  0  0  0  0  0
    6.5736   56.5380   21.8417 H   0  0  0  0  0  0
    7.9652   54.4967   20.1059 H   0  0  0  0  0  0
    7.5235   56.1096   19.6907 H   0  0  0  0  0  0
    5.8656   54.3716   18.8609 H   0  0  0  0  0  0
    5.1037   55.6289   19.8707 H   0  0  0  0  0  0
    4.5502   54.8966   22.3966 H   0  0  0  0  0  0
    5.0002   53.2131   22.8555 H   0  0  0  0  0  0
    4.0115   52.8528   19.3195 H   0  0  0  0  0  0
    3.2941   54.1899   20.2165 H   0  0  0  0  0  0
    2.1916   53.8344   22.4083 H   0  0  0  0  0  0
    0.9434   52.2536   23.8346 H   0  0  0  0  0  0
    2.5302   48.9639   21.5844 H   0  0  0  0  0  0
    3.7859   50.5352   20.1533 H   0  0  0  0  0  0
    5.8787   52.8945   20.7042 H   0  0  0  0  0  0
  1  2  1  0  0  0
  1 34  1  0  0  0
  1 35  1  0  0  0
  1 36  1  0  0  0
  2  3  1  0  0  0
  2  8  1  0  0  0
  2  4  1  0  0  0
  4  5  1  0  0  0
  4 37  1  0  0  0
  4 38  1  0  0  0
  5  6  1  0  0  0
  5 39  1  0  0  0
  5 40  1  0  0  0
  6  7  1  0  0  0
  6 41  1  0  0  0
  6 42  1  0  0  0
  7  8  1  0  0  0
  7  9  1  0  0  0
  8 43  1  0  0  0
  8 44  1  0  0  0
  9 14  2  0  0  0
  9 10  1  0  0  0
 10 11  2  0  0  0
 10 45  1  0  0  0
 11 12  1  0  0  0
 11 46  1  0  0  0
 12 13  2  0  0  0
 12 15  1  0  0  0
 13 14  1  0  0  0
 13 47  1  0  0  0
 14 48  1  0  0  0
 15 16  1  0  0  0
 15 49  1  0  0  0
 15 50  1  0  0  0
 16 17  1  0  0  0
 16 51  1  0  0  0
 17 18  2  0  0  0
 17 19  1  0  0  0
 19 20  1  0  0  0
 19 25  1  0  0  0
 19 21  1  0  0  0
 21 22  1  0  0  0
 21 52  1  0  0  0
 21 53  1  0  0  0
 22 23  1  0  0  0
 22 54  1  0  0  0
 22 55  1  0  0  0
 23 24  1  0  0  0
 23 56  1  0  0  0
 23 57  1  0  0  0
 24 25  1  0  0  0
 24 26  1  0  0  0
 24 66  1  0  0  0
 25 58  1  0  0  0
 25 59  1  0  0  0
 26 27  1  0  0  0
 26 60  1  0  0  0
 26 61  1  0  0  0
 27 32  2  0  0  0
 27 28  1  0  0  0
 28 29  2  0  0  0
 28 62  1  0  0  0
 29 30  1  0  0  0
 29 63  1  0  0  0
 30 31  2  0  0  0
 30 33  1  0  0  0
 31 32  1  0  0  0
 31 64  1  0  0  0
 32 65  1  0  0  0
M  CHG  1  24   1
M  END
> <i_i_glide_confnum>
257

> <i_i_glide_lignum>
5260

> <i_i_glide_posenum>
191

> <i_i_glide_rotatable_bonds>
7

> <i_m_Source_File_Index>
3772

> <b_m_subgroup_collapsed>
0

> <r_i_docking_score>
-5.49226

> <r_i_glide_ecoul>
-0.313448

> <r_i_glide_eff_state_penalty>
0

> <r_i_glide_einternal>
2.88128

> <r_i_glide_emodel>
-58.9193

> <r_i_glide_energy>
-43.3363

> <r_i_glide_erotb>
0.603367

> <r_i_glide_esite>
0

> <r_i_glide_evdw>
-43.0229

> <r_i_glide_gscore>
-5.49226

> <r_i_glide_hbond>
0

> <r_i_glide_ligand_efficiency>
-0.17717

> <r_i_glide_ligand_efficiency_ln>
-1.23867

> <r_i_glide_ligand_efficiency_sa>
-0.556558

> <r_i_glide_lipo>
-3.23393

> <r_i_glide_metal>
0

> <r_i_glide_rewards>
-0.663544

> <s_i_glide_gridfile>
wee1_glide-grid

> <s_m_Source_File>
wee1_decoys_glide_SP.sdf

> <s_m_Source_Path>
/Users/zhangxujun/Desktop

> <s_m_entry_id>
4047

> <s_m_entry_name>
wee1_decoys_glide_SP.3772

> <s_m_subgroup_title>
wee1_decoys_glide_SP

> <s_m_subgroupid>
wee1_decoys_glide_SP


$$$$
