@<TRIPOS>MOLECULE
ZINC16154816_5144
48   50    1
SMALL
USER_CHARGES


@<TRIPOS>ATOM
      1 C1          1.3432   55.6124   29.6843 C.ar      1 UNK         0.0000 
      2 C2          2.7044   55.7553   29.4353 C.ar      1 UNK         0.0000 
      3 C3          3.4651   54.6982   28.9260 C.ar      1 UNK         0.0000 
      4 C4          2.8180   53.4972   28.6431 C.ar      1 UNK         0.0000 
      5 C5          1.4403   53.3752   28.8079 C.ar      1 UNK         0.0000 
      6 C6          0.7044   54.4192   29.3647 C.ar      1 UNK         0.0000 
      7 S7          0.6605   51.8862   28.2383 S.o2      1 UNK         0.0000 
      8 O8          1.6695   50.8967   28.6188 O.2       1 UNK         0.0000 
      9 O9         -0.6132   51.8770   28.9658 O.2       1 UNK         0.0000 
     10 N10         0.6531   52.3852   26.5543 N.2       1 UNK         0.0000 
     11 C11         0.1139   51.6080   25.7113 C.2       1 UNK         0.0000 
     12 C12        -0.6700   50.3068   25.9409 C.3       1 UNK         0.0000 
     13 C13        -0.1021   49.0335   25.2817 C.3       1 UNK         0.0000 
     14 C14        -0.4489   48.8767   23.7945 C.3       1 UNK         0.0000 
     15 C15         0.1176   49.9597   22.8601 C.3       1 UNK         0.0000 
     16 C16        -0.3310   51.4022   23.1653 C.3       1 UNK         0.0000 
     17 N17         0.2390   51.9695   24.3834 N.pl3     1 UNK         0.0000 
     18 N18         4.8339   54.8967   28.6855 N.pl3     1 UNK         0.0000 
     19 S19         5.8570   53.9125   27.6390 S.o2      1 UNK         0.0000 
     20 O20         5.6500   52.5367   28.0817 O.2       1 UNK         0.0000 
     21 O21         7.1982   54.4967   27.6817 O.2       1 UNK         0.0000 
     22 C22         5.3207   54.0866   25.9235 C.ar      1 UNK         0.0000 
     23 C23         3.9706   54.0967   25.5552 C.ar      1 UNK         0.0000 
     24 C24         3.6130   54.0967   24.2097 C.ar      1 UNK         0.0000 
     25 C25         4.6016   54.0967   23.2298 C.ar      1 UNK         0.0000 
     26 C26         5.9477   54.1182   23.5839 C.ar      1 UNK         0.0000 
     27 C27         6.3051   54.1128   24.9286 C.ar      1 UNK         0.0000 
     28 Br28        4.1069   54.0967   21.3935 Br        1 UNK         0.0000 
     29 H29         0.7799   56.4355   30.0999 H         1 UNK         0.0000 
     30 H30         3.1479   56.7104   29.6692 H         1 UNK         0.0000 
     31 H31         3.3489   52.6615   28.2192 H         1 UNK         0.0000 
     32 H32        -0.3588   54.3151   29.5242 H         1 UNK         0.0000 
     33 H33        -0.7499   50.0967   27.0045 H         1 UNK         0.0000 
     34 H34        -1.7108   50.4529   25.6515 H         1 UNK         0.0000 
     35 H35         0.9799   48.9809   25.4224 H         1 UNK         0.0000 
     36 H36        -0.4942   48.1675   25.8204 H         1 UNK         0.0000 
     37 H37        -1.5340   48.8425   23.6856 H         1 UNK         0.0000 
     38 H38        -0.0956   47.9020   23.4593 H         1 UNK         0.0000 
     39 H39        -0.1802   49.7172   21.8392 H         1 UNK         0.0000 
     40 H40         1.2082   49.9110   22.8605 H         1 UNK         0.0000 
     41 H41        -1.4144   51.4119   23.2964 H         1 UNK         0.0000 
     42 H42        -0.1296   52.0513   22.3121 H         1 UNK         0.0000 
     43 H43         0.7044   52.8522   24.2447 H         1 UNK         0.0000 
     44 H44         5.2238   55.7981   28.9135 H         1 UNK         0.0000 
     45 H45         3.1789   54.0797   26.2801 H         1 UNK         0.0000 
     46 H46         2.5716   54.0939   23.9259 H         1 UNK         0.0000 
     47 H47         6.7128   54.1267   22.8214 H         1 UNK         0.0000 
     48 H48         7.3532   54.0967   25.1875 H         1 UNK         0.0000 
@<TRIPOS>BOND
     1    1    6 ar   
     2    1    2 ar   
     3    1   29 1    
     4    2    3 ar   
     5    2   30 1    
     6    3    4 ar   
     7    3   18 1    
     8    4    5 ar   
     9    4   31 1    
    10    5    6 ar   
    11    5    7 1    
    12    6   32 1    
    13    7    8 2    
    14    7    9 2    
    15    7   10 1    
    16   10   11 2    
    17   11   17 1    
    18   11   12 1    
    19   12   13 1    
    20   12   33 1    
    21   12   34 1    
    22   13   14 1    
    23   13   35 1    
    24   13   36 1    
    25   14   15 1    
    26   14   37 1    
    27   14   38 1    
    28   15   16 1    
    29   15   39 1    
    30   15   40 1    
    31   16   17 1    
    32   16   41 1    
    33   16   42 1    
    34   17   43 1    
    35   18   19 1    
    36   18   44 1    
    37   19   20 2    
    38   19   21 2    
    39   19   22 1    
    40   22   27 ar   
    41   22   23 ar   
    42   23   24 ar   
    43   23   45 1    
    44   24   25 ar   
    45   24   46 1    
    46   25   26 ar   
    47   25   28 1    
    48   26   27 ar   
    49   26   47 1    
    50   27   48 1    
@<TRIPOS>SUBSTRUCTURE
     1 UNK         1 GROUP             0       ****    0 ROOT    
