ZINC39686728_345
                    3D
 Schrodinger Suite 2024-2.
 79 82  0  0  1  0            999 V2000
   -0.3096   48.7786   22.1815 C   0  0  0  0  0  0
   -0.3629   50.1813   21.5477 C   0  0  1  0  0  0
    0.6427   50.3911   21.1803 H   0  0  0  0  0  0
   -1.3311   50.1725   20.3367 C   0  0  0  0  0  0
   -1.1761   51.3143   19.3301 C   0  0  0  0  0  0
   -2.2956   52.0972   19.0318 C   0  0  0  0  0  0
   -2.2166   53.1132   18.0817 C   0  0  0  0  0  0
   -1.0129   53.3619   17.4274 C   0  0  0  0  0  0
    0.1055   52.5793   17.7063 C   0  0  0  0  0  0
    0.0360   51.5347   18.6445 C   0  0  0  0  0  0
    1.0952   50.6863   18.9103 O   0  0  0  0  0  0
    2.3562   50.8988   18.2839 C   0  0  0  0  0  0
   -0.6783   51.1966   22.5656 N   0  0  0  0  0  0
    0.2030   51.6010   23.5031 C   0  0  0  0  0  0
    1.3820   51.2418   23.4603 O   0  0  0  0  0  0
   -0.3393   52.4392   24.7067 C   0  0  2  0  0  0
   -0.4794   53.4613   24.3516 H   0  0  0  0  0  0
    0.8045   52.5133   25.7518 C   0  0  0  0  0  0
    0.1586   52.6569   27.0515 N   0  0  0  0  0  0
   -1.2881   52.5007   26.9222 C   0  0  0  0  0  0
   -1.5421   51.8747   25.5219 C   0  0  0  0  0  0
   -1.5624   50.3166   25.6008 C   0  0  0  0  0  0
   -2.6818   49.7887   26.5146 C   0  0  0  0  0  0
   -4.0438   50.3339   26.0351 N   0  3  0  0  0  0
   -4.0805   51.8651   25.8291 C   0  0  0  0  0  0
   -2.9109   52.2558   24.9033 C   0  0  0  0  0  0
    0.7458   53.3842   28.0368 C   0  0  0  0  0  0
    0.7044   54.6119   28.0817 O   0  0  0  0  0  0
    1.6258   52.6439   29.0759 C   0  0  2  0  0  0
    1.8857   51.6506   28.7037 H   0  0  0  0  0  0
    0.8608   52.5042   30.4314 C   0  0  0  0  0  0
    0.5673   53.8509   31.1370 C   0  0  0  0  0  0
   -0.4572   51.7035   30.3118 C   0  0  0  0  0  0
    2.8688   53.3488   29.3666 O   0  0  0  0  0  0
    3.7940   53.6940   28.3847 C   0  0  0  0  0  0
    4.9064   54.4496   28.7549 C   0  0  0  0  0  0
    5.8749   54.7882   27.8057 C   0  0  0  0  0  0
    5.7167   54.4426   26.4720 C   0  0  0  0  0  0
    4.6172   53.6968   26.0867 C   0  0  0  0  0  0
    3.7002   53.2967   27.0489 C   0  0  0  0  0  0
   -0.0956   48.0338   21.4167 H   0  0  0  0  0  0
    0.4770   48.6999   22.9333 H   0  0  0  0  0  0
   -1.2626   48.4991   22.6299 H   0  0  0  0  0  0
   -1.1704   49.2630   19.7561 H   0  0  0  0  0  0
   -2.3608   50.1079   20.6917 H   0  0  0  0  0  0
   -3.2405   51.9060   19.5206 H   0  0  0  0  0  0
   -3.0878   53.7056   17.8407 H   0  0  0  0  0  0
   -0.9470   54.1507   16.6925 H   0  0  0  0  0  0
    1.0171   52.7840   17.1676 H   0  0  0  0  0  0
    3.0760   50.1802   18.6766 H   0  0  0  0  0  0
    2.3004   50.7541   17.2045 H   0  0  0  0  0  0
    2.7497   51.8938   18.4941 H   0  0  0  0  0  0
   -1.6124   51.5717   22.5653 H   0  0  0  0  0  0
    1.4499   53.3498   25.4736 H   0  0  0  0  0  0
    1.2771   51.5310   25.7964 H   0  0  0  0  0  0
   -1.8020   52.0579   27.7726 H   0  0  0  0  0  0
   -1.6964   53.5112   26.8815 H   0  0  0  0  0  0
   -1.6486   49.8517   24.6197 H   0  0  0  0  0  0
   -0.6140   49.9562   26.0046 H   0  0  0  0  0  0
   -2.7497   48.7000   26.4817 H   0  0  0  0  0  0
   -2.5697   50.0966   27.5555 H   0  0  0  0  0  0
   -4.2699   49.8843   25.1580 H   0  0  0  0  0  0
   -5.0539   52.0930   25.3916 H   0  0  0  0  0  0
   -4.0236   52.3197   26.8193 H   0  0  0  0  0  0
   -2.9524   53.3375   24.7712 H   0  0  0  0  0  0
   -3.0367   51.8391   23.9040 H   0  0  0  0  0  0
    1.5192   51.9361   31.0905 H   0  0  0  0  0  0
   -0.2505   54.3882   30.6551 H   0  0  0  0  0  0
    0.2847   53.6970   32.1795 H   0  0  0  0  0  0
    1.4271   54.5178   31.1109 H   0  0  0  0  0  0
   -1.2945   52.3100   29.9606 H   0  0  0  0  0  0
   -0.3600   50.8781   29.6131 H   0  0  0  0  0  0
   -0.7491   51.2966   31.2787 H   0  0  0  0  0  0
    5.0344   54.7574   29.7819 H   0  0  0  0  0  0
    6.7587   55.3174   28.0817 H   0  0  0  0  0  0
    6.4649   54.7182   25.7433 H   0  0  0  0  0  0
    4.5121   53.3665   25.0640 H   0  0  0  0  0  0
    2.9586   52.5903   26.7576 H   0  0  0  0  0  0
   -4.7603   50.0567   26.6933 H   0  0  0  0  0  0
  1  2  1  0  0  0
  1 41  1  0  0  0
  1 42  1  0  0  0
  1 43  1  0  0  0
  2  3  1  0  0  0
  2  4  1  0  0  0
  2 13  1  0  0  0
  4  5  1  0  0  0
  4 44  1  0  0  0
  4 45  1  0  0  0
  5 10  2  0  0  0
  5  6  1  0  0  0
  6  7  2  0  0  0
  6 46  1  0  0  0
  7  8  1  0  0  0
  7 47  1  0  0  0
  8  9  2  0  0  0
  8 48  1  0  0  0
  9 10  1  0  0  0
  9 49  1  0  0  0
 10 11  1  0  0  0
 11 12  1  0  0  0
 12 50  1  0  0  0
 12 51  1  0  0  0
 12 52  1  0  0  0
 13 14  1  0  0  0
 13 53  1  0  0  0
 14 15  2  0  0  0
 14 16  1  0  0  0
 16 17  1  0  0  0
 16 21  1  0  0  0
 16 18  1  0  0  0
 18 19  1  0  0  0
 18 54  1  0  0  0
 18 55  1  0  0  0
 19 20  1  0  0  0
 19 27  1  0  0  0
 20 21  1  0  0  0
 20 56  1  0  0  0
 20 57  1  0  0  0
 21 26  1  0  0  0
 21 22  1  0  0  0
 22 23  1  0  0  0
 22 58  1  0  0  0
 22 59  1  0  0  0
 23 24  1  0  0  0
 23 60  1  0  0  0
 23 61  1  0  0  0
 24 25  1  0  0  0
 24 62  1  0  0  0
 24 79  1  0  0  0
 25 26  1  0  0  0
 25 63  1  0  0  0
 25 64  1  0  0  0
 26 65  1  0  0  0
 26 66  1  0  0  0
 27 28  2  0  0  0
 27 29  1  0  0  0
 29 30  1  0  0  0
 29 31  1  0  0  0
 29 34  1  0  0  0
 31 32  1  0  0  0
 31 33  1  0  0  0
 31 67  1  0  0  0
 32 68  1  0  0  0
 32 69  1  0  0  0
 32 70  1  0  0  0
 33 71  1  0  0  0
 33 72  1  0  0  0
 33 73  1  0  0  0
 34 35  1  0  0  0
 35 40  2  0  0  0
 35 36  1  0  0  0
 36 37  2  0  0  0
 36 74  1  0  0  0
 37 38  1  0  0  0
 37 75  1  0  0  0
 38 39  2  0  0  0
 38 76  1  0  0  0
 39 40  1  0  0  0
 39 77  1  0  0  0
 40 78  1  0  0  0
M  CHG  1  24   1
M  END
> <i_i_glide_confnum>
24

> <i_i_glide_lignum>
346

> <i_i_glide_posenum>
395

> <i_i_glide_rotatable_bonds>
11

> <i_m_Source_File_Index>
4871

> <b_m_subgroup_collapsed>
0

> <r_i_docking_score>
1.93031

> <r_i_glide_ecoul>
-3.12221

> <r_i_glide_eff_state_penalty>
0

> <r_i_glide_einternal>
26.9586

> <r_i_glide_emodel>
-1.02255

> <r_i_glide_energy>
-35.57

> <r_i_glide_erotb>
0.633045

> <r_i_glide_esite>
-0.0213644

> <r_i_glide_evdw>
-32.4478

> <r_i_glide_gscore>
1.93031

> <r_i_glide_hbond>
0

> <r_i_glide_ligand_efficiency>
0.0521707

> <r_i_glide_ligand_efficiency_ln>
0.41864

> <r_i_glide_ligand_efficiency_sa>
0.173844

> <r_i_glide_lipo>
-1.68748

> <r_i_glide_metal>
0

> <r_i_glide_rewards>
5.09683

> <s_i_glide_gridfile>
wee1_glide-grid

> <s_m_Source_File>
wee1_decoys_glide_SP.sdf

> <s_m_Source_Path>
/Users/zhangxujun/Desktop

> <s_m_entry_id>
5146

> <s_m_entry_name>
wee1_decoys_glide_SP.4871

> <s_m_subgroup_title>
wee1_decoys_glide_SP

> <s_m_subgroupid>
wee1_decoys_glide_SP


$$$$
