@<TRIPOS>MOLECULE
ZINC10029383_5132
55   57    1
SMALL
USER_CHARGES


@<TRIPOS>ATOM
      1 C1         -2.0861   50.8939   21.0285 C.3       1 UNK         0.0000 
      2 C2         -1.5307   51.6965   19.8575 C.2       1 UNK         0.0000 
      3 O3         -2.2720   52.4962   19.2818 O.2       1 UNK         0.0000 
      4 N4         -0.2444   51.4484   19.5383 N.am      1 UNK         0.0000 
      5 C5          0.5570   52.0289   18.5390 C.ar      1 UNK         0.0000 
      6 C6          0.2458   53.2154   17.8586 C.ar      1 UNK         0.0000 
      7 C7          1.1112   53.7110   16.8867 C.ar      1 UNK         0.0000 
      8 C8          2.2815   53.0154   16.5767 C.ar      1 UNK         0.0000 
      9 C9          2.5999   51.8428   17.2588 C.ar      1 UNK         0.0000 
     10 C10         1.7442   51.3567   18.2418 C.ar      1 UNK         0.0000 
     11 S11         3.3817   53.6247   15.3013 S.o2      1 UNK         0.0000 
     12 O12         2.6255   54.6273   14.5411 O.2       1 UNK         0.0000 
     13 O13         3.9548   52.4472   14.6406 O.2       1 UNK         0.0000 
     14 N14         4.6754   54.4569   16.1808 N.pl3     1 UNK         0.0000 
     15 C15         5.8341   53.6988   16.7147 C.3       1 UNK         0.0000 
     16 C16         5.8804   53.6967   18.2560 C.3       1 UNK         0.0000 
     17 C17         5.6574   55.0923   18.8891 C.3       1 UNK         0.0000 
     18 C18         4.4260   55.7995   18.2774 C.3       1 UNK         0.0000 
     19 C19         4.4441   55.8080   16.7370 C.3       1 UNK         0.0000 
     20 N20         5.6614   55.0867   20.3553 N.am      1 UNK         0.0000 
     21 C21         6.7340   55.3307   21.1344 C.2       1 UNK         0.0000 
     22 O22         7.8384   55.6274   20.6818 O.2       1 UNK         0.0000 
     23 C23         6.5267   55.2587   22.5607 C.2       1 UNK         0.0000 
     24 C24         5.5957   54.4963   23.1781 C.2       1 UNK         0.0000 
     25 C25         5.3956   54.4524   24.6420 C.ar      1 UNK         0.0000 
     26 C26         6.4945   54.4984   25.5129 C.ar      1 UNK         0.0000 
     27 C27         6.3091   54.4953   26.8973 C.ar      1 UNK         0.0000 
     28 C28         5.0196   54.4568   27.4273 C.ar      1 UNK         0.0000 
     29 C29         3.9188   54.4129   26.5719 C.ar      1 UNK         0.0000 
     30 C30         4.0993   54.4181   25.1875 C.ar      1 UNK         0.0000 
     31 Cl31        2.6910   54.3986   24.1777 Cl        1 UNK         0.0000 
     32 Cl32        4.7801   54.4893   29.1373 Cl        1 UNK         0.0000 
     33 H33        -1.2922   50.5491   21.6943 H         1 UNK         0.0000 
     34 H34        -2.7785   51.5047   21.6116 H         1 UNK         0.0000 
     35 H35        -2.6300   50.0225   20.6586 H         1 UNK         0.0000 
     36 H36         0.1988   50.6906   20.0337 H         1 UNK         0.0000 
     37 H37        -0.6436   53.7822   18.0811 H         1 UNK         0.0000 
     38 H38         0.8653   54.6275   16.3710 H         1 UNK         0.0000 
     39 H39         3.5044   51.2969   17.0266 H         1 UNK         0.0000 
     40 H40         2.0135   50.4427   18.7531 H         1 UNK         0.0000 
     41 H41         6.7411   54.1219   16.2788 H         1 UNK         0.0000 
     42 H42         5.7783   52.6720   16.3532 H         1 UNK         0.0000 
     43 H43         6.8367   53.2847   18.5795 H         1 UNK         0.0000 
     44 H44         5.1148   53.0078   18.6161 H         1 UNK         0.0000 
     45 H45         6.5038   55.6996   18.5556 H         1 UNK         0.0000 
     46 H46         3.5094   55.3089   18.6160 H         1 UNK         0.0000 
     47 H47         4.3732   56.8294   18.6300 H         1 UNK         0.0000 
     48 H48         5.2115   56.4778   16.3442 H         1 UNK         0.0000 
     49 H49         3.4915   56.1851   16.3637 H         1 UNK         0.0000 
     50 H50         4.7863   54.8530   20.7983 H         1 UNK         0.0000 
     51 H51         7.2084   55.8698   23.1365 H         1 UNK         0.0000 
     52 H52         4.9356   53.8661   22.5964 H         1 UNK         0.0000 
     53 H53         7.5022   54.5292   25.1183 H         1 UNK         0.0000 
     54 H54         7.1603   54.5294   27.5643 H         1 UNK         0.0000 
     55 H55         2.9196   54.3882   26.9836 H         1 UNK         0.0000 
@<TRIPOS>BOND
     1    1    2 1    
     2    1   33 1    
     3    1   34 1    
     4    1   35 1    
     5    2    3 2    
     6    2    4 am   BACKBONE|DICT|INTERRES
     7    4    5 1    
     8    4   36 1    
     9    5   10 ar   
    10    5    6 ar   
    11    6    7 ar   
    12    6   37 1    
    13    7    8 ar   
    14    7   38 1    
    15    8    9 ar   
    16    8   11 1    
    17    9   10 ar   
    18    9   39 1    
    19   10   40 1    
    20   11   12 2    
    21   11   13 2    
    22   11   14 1    
    23   14   19 1    
    24   14   15 1    
    25   15   16 1    
    26   15   41 1    
    27   15   42 1    
    28   16   17 1    
    29   16   43 1    
    30   16   44 1    
    31   17   18 1    
    32   17   20 1    
    33   17   45 1    
    34   18   19 1    
    35   18   46 1    
    36   18   47 1    
    37   19   48 1    
    38   19   49 1    
    39   20   21 am   BACKBONE|DICT|INTERRES
    40   20   50 1    
    41   21   22 2    
    42   21   23 1    
    43   23   24 2    
    44   23   51 1    
    45   24   25 1    
    46   24   52 1    
    47   25   30 ar   
    48   25   26 ar   
    49   26   27 ar   
    50   26   53 1    
    51   27   28 ar   
    52   27   54 1    
    53   28   29 ar   
    54   28   32 1    
    55   29   30 ar   
    56   29   55 1    
    57   30   31 1    
@<TRIPOS>SUBSTRUCTURE
     1 UNK         1 GROUP             0       ****    0 ROOT    
