@<TRIPOS>MOLECULE
ZINC36760997_1479
43   45    1
SMALL
USER_CHARGES


@<TRIPOS>ATOM
      1 C1          6.7430   54.0963   27.6183 C.3       1 UNK         0.0000 
      2 C2          5.9788   54.2562   26.3114 C.ar      1 UNK         0.0000 
      3 C3          6.7044   54.4480   25.1337 C.ar      1 UNK         0.0000 
      4 C4          6.0627   54.5254   23.9034 C.ar      1 UNK         0.0000 
      5 C5          4.6667   54.4877   23.8334 C.ar      1 UNK         0.0000 
      6 C6          3.9389   54.3996   25.0277 C.ar      1 UNK         0.0000 
      7 C7          4.5734   54.2112   26.2597 C.ar      1 UNK         0.0000 
      8 S8          3.6286   53.8860   27.7701 S.o2      1 UNK         0.0000 
      9 O9          3.7666   55.1089   28.5646 O.2       1 UNK         0.0000 
     10 O10         4.1483   52.6375   28.3345 O.2       1 UNK         0.0000 
     11 N11         1.8747   53.6057   27.4376 N.pl3     1 UNK         0.0000 
     12 C12         1.4570   52.8327   26.2350 C.3       1 UNK         0.0000 
     13 C13         0.1821   52.0042   26.2848 C.ar      1 UNK         0.0000 
     14 C14        -0.2648   51.3304   25.1429 C.ar      1 UNK         0.0000 
     15 C15        -1.4786   50.6503   25.1389 C.ar      1 UNK         0.0000 
     16 C16        -2.2660   50.6399   26.2856 C.ar      1 UNK         0.0000 
     17 C17        -1.8258   51.2964   27.4318 C.ar      1 UNK         0.0000 
     18 C18        -0.6002   51.9722   27.4520 C.ar      1 UNK         0.0000 
     19 C19        -0.0803   52.6153   28.7267 C.3       1 UNK         0.0000 
     20 C20         0.7888   53.8750   28.4519 C.3       1 UNK         0.0000 
     21 H21         0.2266   54.7309   28.0815 H         1 UNK         0.0000 
     22 C22         1.3273   54.3500   29.8144 C.2       1 UNK         0.0000 
     23 O23         2.0137   53.5872   30.4817 O.2       1 UNK         0.0000 
     24 N24         1.1043   55.6033   30.2144 N.am      1 UNK         0.0000 
     25 N25         3.9734   54.4782   22.5226 N.pl3     1 UNK         0.0000 
     26 O26         4.6537   54.4957   21.5010 O.co2     1 UNK         0.0000 
     27 O27         2.7472   54.4219   22.5166 O.co2     1 UNK         0.0000 
     28 H28         7.7707   54.4493   27.5372 H         1 UNK         0.0000 
     29 H29         6.2923   54.6872   28.4151 H         1 UNK         0.0000 
     30 H30         6.7568   53.0518   27.9313 H         1 UNK         0.0000 
     31 H31         7.7811   54.4969   25.1451 H         1 UNK         0.0000 
     32 H32         6.6608   54.6146   23.0053 H         1 UNK         0.0000 
     33 H33         2.8717   54.4571   24.9648 H         1 UNK         0.0000 
     34 H34         2.3044   52.2867   25.8237 H         1 UNK         0.0000 
     35 H35         1.1823   53.5751   25.4882 H         1 UNK         0.0000 
     36 H36         0.3312   51.3451   24.2410 H         1 UNK         0.0000 
     37 H37        -1.8089   50.1300   24.2525 H         1 UNK         0.0000 
     38 H38        -3.2022   50.1005   26.2986 H         1 UNK         0.0000 
     39 H39        -2.4265   51.2393   28.3288 H         1 UNK         0.0000 
     40 H40        -0.9063   52.8365   29.4037 H         1 UNK         0.0000 
     41 H41         0.5298   51.8357   29.1895 H         1 UNK         0.0000 
     42 H42         0.6436   56.2676   29.6140 H         1 UNK         0.0000 
     43 H43         1.4871   55.9089   31.0974 H         1 UNK         0.0000 
@<TRIPOS>BOND
     1    1    2 1    
     2    1   28 1    
     3    1   29 1    
     4    1   30 1    
     5    2    7 ar   
     6    2    3 ar   
     7    3    4 ar   
     8    3   31 1    
     9    4    5 ar   
    10    4   32 1    
    11    5    6 ar   
    12    5   25 1    
    13    6    7 ar   
    14    6   33 1    
    15    7    8 1    
    16    8    9 2    
    17    8   10 2    
    18    8   11 1    
    19   11   20 1    
    20   11   12 1    
    21   12   13 1    
    22   12   34 1    
    23   12   35 1    
    24   13   18 ar   
    25   13   14 ar   
    26   14   15 ar   
    27   14   36 1    
    28   15   16 ar   
    29   15   37 1    
    30   16   17 ar   
    31   16   38 1    
    32   17   18 ar   
    33   17   39 1    
    34   18   19 1    
    35   19   20 1    
    36   19   40 1    
    37   19   41 1    
    38   20   21 1    
    39   20   22 1    
    40   22   23 2    
    41   22   24 am   BACKBONE|DICT|INTERRES
    42   24   42 1    
    43   24   43 1    
    44   25   26 2    
    45   25   27 1    
@<TRIPOS>SUBSTRUCTURE
     1 UNK         1 GROUP             0       ****    0 ROOT    
