@<TRIPOS>MOLECULE
ZINC21882287_2716
52   55    1
SMALL
USER_CHARGES


@<TRIPOS>ATOM
      1 C1         -1.5246   47.8734   23.7999 C.ar      1 UNK         0.0000 
      2 C2         -2.0013   48.2272   25.0635 C.ar      1 UNK         0.0000 
      3 C3         -1.5030   49.3747   25.6815 C.ar      1 UNK         0.0000 
      4 N4         -0.5626   50.1088   25.0557 N.pl3     1 UNK         0.0000 
      5 C5         -0.0483   49.7999   23.8429 C.ar      1 UNK         0.0000 
      6 C6         -0.5492   48.6649   23.1863 C.ar      1 UNK         0.0000 
      7 N7          0.9513   50.6433   23.2560 N.pl3     1 UNK         0.0000 
      8 C8          2.0553   50.0577   22.4657 C.3       1 UNK         0.0000 
      9 C9          2.6996   51.0504   21.4776 C.3       1 UNK         0.0000 
     10 N10         3.0538   52.3400   22.0812 N.pl3     1 UNK         0.0000 
     11 C11         1.8914   52.9184   22.7667 C.3       1 UNK         0.0000 
     12 C12         1.2697   51.9742   23.8135 C.3       1 UNK         0.0000 
     13 C13         4.0515   53.1635   21.5599 C.ar      1 UNK         0.0000 
     14 C14         4.3053   53.1511   20.1809 C.ar      1 UNK         0.0000 
     15 C15         5.2438   54.0059   19.6122 C.ar      1 UNK         0.0000 
     16 C16         5.9606   54.8967   20.4140 C.ar      1 UNK         0.0000 
     17 C17         5.7495   54.8881   21.7956 C.ar      1 UNK         0.0000 
     18 C18         4.8043   54.0378   22.3813 C.ar      1 UNK         0.0000 
     19 N19         4.5835   54.0117   23.7741 N.am      1 UNK         0.0000 
     20 C20         5.3050   54.4967   24.8092 C.2       1 UNK         0.0000 
     21 O21         6.3553   55.1324   24.7186 O.2       1 UNK         0.0000 
     22 C22         4.7446   54.1440   26.1652 C.ar      1 UNK         0.0000 
     23 C23         5.6162   53.9326   27.2407 C.ar      1 UNK         0.0000 
     24 C24         5.1199   53.5097   28.4690 C.ar      1 UNK         0.0000 
     25 C25         3.7522   53.3006   28.6294 C.ar      1 UNK         0.0000 
     26 C26         2.8686   53.5600   27.5876 C.ar      1 UNK         0.0000 
     27 C27         3.3619   53.9848   26.3591 C.ar      1 UNK         0.0000 
     28 Cl28        3.1490   52.6822   30.1172 Cl        1 UNK         0.0000 
     29 C29         6.9276   55.8624   19.8247 C.2       1 UNK         0.0000 
     30 O30         7.1043   56.9248   20.4633 O.co2     1 UNK         0.0000 
     31 O31         7.4869   55.5564   18.7494 O.co2     1 UNK         0.0000 
     32 H32        -1.9042   46.9958   23.3011 H         1 UNK         0.0000 
     33 H33        -2.7402   47.6226   25.5693 H         1 UNK         0.0000 
     34 H34        -1.7965   49.7065   26.6697 H         1 UNK         0.0000 
     35 H35        -0.2042   48.3946   22.1998 H         1 UNK         0.0000 
     36 H36         2.7992   49.6678   23.1605 H         1 UNK         0.0000 
     37 H37         1.7028   49.1985   21.8997 H         1 UNK         0.0000 
     38 H38         1.9827   51.2625   20.6826 H         1 UNK         0.0000 
     39 H39         3.5772   50.5952   21.0147 H         1 UNK         0.0000 
     40 H40         2.0990   53.9002   23.1910 H         1 UNK         0.0000 
     41 H41         1.1514   53.1024   21.9842 H         1 UNK         0.0000 
     42 H42         1.9135   51.8627   24.6863 H         1 UNK         0.0000 
     43 H43         0.3464   52.4311   24.1733 H         1 UNK         0.0000 
     44 H44         3.7549   52.4936   19.5224 H         1 UNK         0.0000 
     45 H45         5.4004   53.9813   18.5422 H         1 UNK         0.0000 
     46 H46         6.3165   55.5799   22.4020 H         1 UNK         0.0000 
     47 H47         3.7929   53.4448   24.0333 H         1 UNK         0.0000 
     48 H48         6.6853   54.0591   27.1255 H         1 UNK         0.0000 
     49 H49         5.8022   53.3191   29.2808 H         1 UNK         0.0000 
     50 H50         1.8064   53.4114   27.7225 H         1 UNK         0.0000 
     51 H51         2.6583   54.1684   25.5596 H         1 UNK         0.0000 
     52 H52        -0.1963   50.9192   25.5322 H         1 UNK         0.0000 
@<TRIPOS>BOND
     1    1    6 ar   
     2    1    2 ar   
     3    1   32 1    
     4    2    3 ar   
     5    2   33 1    
     6    3    4 ar   
     7    3   34 1    
     8    4    5 ar   
     9    4   52 1    
    10    5    6 ar   
    11    5    7 1    
    12    6   35 1    
    13    7   12 1    
    14    7    8 1    
    15    8    9 1    
    16    8   36 1    
    17    8   37 1    
    18    9   10 1    
    19    9   38 1    
    20    9   39 1    
    21   10   11 1    
    22   10   13 1    
    23   11   12 1    
    24   11   40 1    
    25   11   41 1    
    26   12   42 1    
    27   12   43 1    
    28   13   18 ar   
    29   13   14 ar   
    30   14   15 ar   
    31   14   44 1    
    32   15   16 ar   
    33   15   45 1    
    34   16   17 ar   
    35   16   29 1    
    36   17   18 ar   
    37   17   46 1    
    38   18   19 1    
    39   19   20 am   BACKBONE|DICT|INTERRES
    40   19   47 1    
    41   20   21 2    
    42   20   22 1    
    43   22   27 ar   
    44   22   23 ar   
    45   23   24 ar   
    46   23   48 1    
    47   24   25 ar   
    48   24   49 1    
    49   25   26 ar   
    50   25   28 1    
    51   26   27 ar   
    52   26   50 1    
    53   27   51 1    
    54   29   30 2    
    55   29   31 1    
@<TRIPOS>SUBSTRUCTURE
     1 UNK         1 GROUP             0       ****    0 ROOT    
