ZINC39836294_4144
                    3D
 Schrodinger Suite 2024-2.
 62 66  0  0  1  0            999 V2000
    1.0772   47.2319   17.3241 C   0  0  0  0  0  0
    0.7463   48.1843   18.4883 C   0  0  1  0  0  0
    0.0026   48.8953   18.1188 H   0  0  0  0  0  0
    0.2025   47.4074   19.6995 C   0  0  0  0  0  0
   -0.3130   48.3377   20.8212 C   0  0  0  0  0  0
    0.7003   49.4638   21.0997 C   0  0  0  0  0  0
    1.7372   49.7278   20.1818 C   0  0  0  0  0  0
    2.7402   51.0354   20.6721 S   0  0  0  0  0  0
    1.7653   51.3109   22.0919 C   0  0  0  0  0  0
    0.7477   50.3399   22.2328 C   0  0  0  0  0  0
   -0.1872   50.3602   23.3590 C   0  0  0  0  0  0
   -0.4291   51.3970   23.9836 O   0  0  0  0  0  0
   -0.7163   49.1763   23.7085 N   0  0  0  0  0  0
   -1.6055   48.9460   24.8507 C   0  0  1  0  0  0
   -1.2221   49.5553   25.6779 H   0  0  0  0  0  0
   -3.0779   49.3087   24.5515 C   0  0  0  0  0  0
   -3.6725   48.2220   23.6327 C   0  0  0  0  0  0
   -2.8018   46.6391   24.1476 S   0  0  0  0  0  0
   -3.6950   45.7815   24.9371 O   0  0  0  0  0  0
   -2.0963   46.0821   22.9907 O   0  0  0  0  0  0
   -1.5741   47.4761   25.2833 C   0  0  0  0  0  0
    2.0155   52.3577   22.9826 N   0  0  0  0  0  0
    2.9788   53.3005   22.9414 C   0  0  0  0  0  0
    3.8534   53.3902   22.0785 O   0  0  0  0  0  0
    2.9434   54.3314   24.0780 C   0  0  0  0  0  0
    4.2111   54.3445   24.9490 C   0  0  0  0  0  0
    5.4301   54.6841   24.3571 C   0  0  0  0  0  0
    6.5999   54.7651   25.0885 C   0  0  0  0  0  0
    6.5946   54.4975   26.4481 C   0  0  0  0  0  0
    5.3944   54.1417   27.0992 C   0  0  0  0  0  0
    4.1711   54.0628   26.3559 C   0  0  0  0  0  0
    2.9920   53.6903   27.0723 C   0  0  0  0  0  0
    3.0346   53.4147   28.4366 C   0  0  0  0  0  0
    4.2297   53.5005   29.1362 C   0  0  0  0  0  0
    5.4007   53.8633   28.4829 C   0  0  0  0  0  0
    2.0171   48.9593   18.8971 C   0  0  0  0  0  0
    1.8279   46.4921   17.6129 H   0  0  0  0  0  0
    0.1931   46.6908   16.9865 H   0  0  0  0  0  0
    1.4731   47.7799   16.4670 H   0  0  0  0  0  0
   -0.6132   46.7555   19.3834 H   0  0  0  0  0  0
    0.9664   46.7256   20.0708 H   0  0  0  0  0  0
   -0.4969   47.7119   21.6901 H   0  0  0  0  0  0
   -1.2737   48.7701   20.5356 H   0  0  0  0  0  0
   -0.4293   48.3614   23.1923 H   0  0  0  0  0  0
   -3.6292   49.3613   25.4911 H   0  0  0  0  0  0
   -3.1621   50.3054   24.1089 H   0  0  0  0  0  0
   -4.7544   48.0916   23.6717 H   0  0  0  0  0  0
   -3.3863   48.4271   22.6001 H   0  0  0  0  0  0
   -0.6231   46.9492   25.2802 H   0  0  0  0  0  0
   -2.0048   47.4157   26.2846 H   0  0  0  0  0  0
    1.3615   52.3953   23.7539 H   0  0  0  0  0  0
    2.0177   54.2651   24.6405 H   0  0  0  0  0  0
    2.8839   55.2967   23.5825 H   0  0  0  0  0  0
    5.4778   54.8967   23.3002 H   0  0  0  0  0  0
    7.5106   55.0377   24.5829 H   0  0  0  0  0  0
    7.5069   54.5491   27.0237 H   0  0  0  0  0  0
    2.0431   53.5881   26.5730 H   0  0  0  0  0  0
    2.1308   53.1222   28.9530 H   0  0  0  0  0  0
    4.2596   53.2817   30.1938 H   0  0  0  0  0  0
    6.3288   53.9341   29.0267 H   0  0  0  0  0  0
    2.3154   49.6382   18.0940 H   0  0  0  0  0  0
    2.8511   48.2723   19.0580 H   0  0  0  0  0  0
  1  2  1  0  0  0
  1 37  1  0  0  0
  1 38  1  0  0  0
  1 39  1  0  0  0
  2  3  1  0  0  0
  2 36  1  0  0  0
  2  4  1  0  0  0
  4  5  1  0  0  0
  4 40  1  0  0  0
  4 41  1  0  0  0
  5  6  1  0  0  0
  5 42  1  0  0  0
  5 43  1  0  0  0
  6 10  1  0  0  0
  6  7  2  0  0  0
  7  8  1  0  0  0
  7 36  1  0  0  0
  8  9  1  0  0  0
  9 10  2  0  0  0
  9 22  1  0  0  0
 10 11  1  0  0  0
 11 12  2  0  0  0
 11 13  1  0  0  0
 13 14  1  0  0  0
 13 44  1  0  0  0
 14 15  1  0  0  0
 14 21  1  0  0  0
 14 16  1  0  0  0
 16 17  1  0  0  0
 16 45  1  0  0  0
 16 46  1  0  0  0
 17 18  1  0  0  0
 17 47  1  0  0  0
 17 48  1  0  0  0
 18 19  2  0  0  0
 18 20  2  0  0  0
 18 21  1  0  0  0
 21 49  1  0  0  0
 21 50  1  0  0  0
 22 23  1  0  0  0
 22 51  1  0  0  0
 23 24  2  0  0  0
 23 25  1  0  0  0
 25 26  1  0  0  0
 25 52  1  0  0  0
 25 53  1  0  0  0
 26 31  2  0  0  0
 26 27  1  0  0  0
 27 28  2  0  0  0
 27 54  1  0  0  0
 28 29  1  0  0  0
 28 55  1  0  0  0
 29 30  2  0  0  0
 29 56  1  0  0  0
 30 35  1  0  0  0
 30 31  1  0  0  0
 31 32  1  0  0  0
 32 33  2  0  0  0
 32 57  1  0  0  0
 33 34  1  0  0  0
 33 58  1  0  0  0
 34 35  2  0  0  0
 34 59  1  0  0  0
 35 60  1  0  0  0
 36 61  1  0  0  0
 36 62  1  0  0  0
M  END
> <i_i_glide_confnum>
145

> <i_i_glide_lignum>
4145

> <i_i_glide_posenum>
21

> <i_i_glide_rotatable_bonds>
7

> <i_m_Source_File_Index>
2269

> <b_m_subgroup_collapsed>
0

> <r_i_docking_score>
-5.80325

> <r_i_glide_ecoul>
-3.98619

> <r_i_glide_eff_state_penalty>
0

> <r_i_glide_einternal>
10.6999

> <r_i_glide_emodel>
-59.7495

> <r_i_glide_energy>
-47.3746

> <r_i_glide_erotb>
0.496087

> <r_i_glide_esite>
-0.181846

> <r_i_glide_evdw>
-43.3884

> <r_i_glide_gscore>
-5.80325

> <r_i_glide_hbond>
0

> <r_i_glide_ligand_efficiency>
-0.170684

> <r_i_glide_ligand_efficiency_ln>
-1.2821

> <r_i_glide_ligand_efficiency_sa>
-0.552949

> <r_i_glide_lipo>
-3.03446

> <r_i_glide_metal>
0

> <r_i_glide_rewards>
-0.315684

> <s_i_glide_gridfile>
wee1_glide-grid

> <s_m_Source_File>
wee1_decoys_glide_SP.sdf

> <s_m_Source_Path>
/Users/zhangxujun/Desktop

> <s_m_entry_id>
2544

> <s_m_entry_name>
wee1_decoys_glide_SP.2269

> <s_m_subgroup_title>
wee1_decoys_glide_SP

> <s_m_subgroupid>
wee1_decoys_glide_SP


$$$$
