@<TRIPOS>MOLECULE
ZINC12658186_156
64   67    1
SMALL
USER_CHARGES


@<TRIPOS>ATOM
      1 C1          5.8152   52.6824   15.3790 C.3       1 UNK         0.0000 
      2 C2          4.9815   54.3423   17.2214 C.3       1 UNK         0.0000 
      3 H3          5.9316   54.7507   16.8673 H         1 UNK         0.0000 
      4 C4          3.8200   55.0741   16.5195 C.3       1 UNK         0.0000 
      5 C5          2.4551   54.9376   17.2146 C.3       1 UNK         0.0000 
      6 C6          2.0834   53.5206   17.6507 C.ar      1 UNK         0.0000 
      7 C7          1.0364   52.8807   16.9858 C.ar      1 UNK         0.0000 
      8 C8          0.6400   51.5809   17.3051 C.ar      1 UNK         0.0000 
      9 C9          1.3297   50.8988   18.3061 C.ar      1 UNK         0.0000 
     10 C10         2.3881   51.5170   18.9978 C.ar      1 UNK         0.0000 
     11 C11         2.7870   52.8481   18.6850 C.ar      1 UNK         0.0000 
     12 C12         3.9118   53.5336   19.4514 C.ar      1 UNK         0.0000 
     13 C13         4.9024   54.3929   18.7530 C.ar      1 UNK         0.0000 
     14 C14         5.7907   55.2428   19.3264 C.ar      1 UNK         0.0000 
     15 C15         6.1184   55.5891   20.7002 C.ar      1 UNK         0.0000 
     16 O16         6.7083   56.6593   20.8823 O.2       1 UNK         0.0000 
     17 C17         5.7889   54.6802   21.8150 C.ar      1 UNK         0.0000 
     18 C18         4.8712   53.6933   21.8170 C.ar      1 UNK         0.0000 
     19 C19         3.9311   53.3010   20.7876 C.ar      1 UNK         0.0000 
     20 N20         6.6196   54.9076   22.9067 N.pl3     1 UNK         0.0000 
     21 C21         6.8508   54.0682   24.0807 C.3       1 UNK         0.0000 
     22 C22         5.9650   54.3377   25.2981 C.ar      1 UNK         0.0000 
     23 C23         4.5732   54.4452   25.1913 C.ar      1 UNK         0.0000 
     24 C24         3.7866   54.4959   26.3397 C.ar      1 UNK         0.0000 
     25 C25         4.3876   54.4949   27.5954 C.ar      1 UNK         0.0000 
     26 C26         5.7722   54.4402   27.7124 C.ar      1 UNK         0.0000 
     27 C27         6.5556   54.3473   26.5668 C.ar      1 UNK         0.0000 
     28 F28         3.6219   54.5551   28.7086 F         1 UNK         0.0000 
     29 O29         3.0975   50.7856   19.9349 O.3       1 UNK         0.0000 
     30 C30         2.3699   50.2616   21.0459 C.3       1 UNK         0.0000 
     31 O31         0.9332   49.6161   18.6120 O.3       1 UNK         0.0000 
     32 C32         1.7361   48.5981   18.0298 C.3       1 UNK         0.0000 
     33 O33        -0.3986   50.9148   16.6773 O.3       1 UNK         0.0000 
     34 C34        -1.1132   51.5545   15.6257 C.3       1 UNK         0.0000 
     35 H35         5.7435   51.6163   15.1579 H         1 UNK         0.0000 
     36 H36         5.3252   53.2800   14.6100 H         1 UNK         0.0000 
     37 H37         6.8524   52.9841   15.5333 H         1 UNK         0.0000 
     38 H38         4.0589   56.1381   16.4693 H         1 UNK         0.0000 
     39 H39         3.7339   54.7587   15.4788 H         1 UNK         0.0000 
     40 H40         2.4158   55.5918   18.0805 H         1 UNK         0.0000 
     41 H41         1.6899   55.3390   16.5479 H         1 UNK         0.0000 
     42 H42         0.5248   53.4204   16.2044 H         1 UNK         0.0000 
     43 H43         6.4283   55.8030   18.6558 H         1 UNK         0.0000 
     44 H44         4.8089   53.0750   22.6982 H         1 UNK         0.0000 
     45 H45         3.0974   52.7578   21.1993 H         1 UNK         0.0000 
     46 H46         7.1584   55.7640   22.9222 H         1 UNK         0.0000 
     47 H47         7.9029   54.0970   24.3482 H         1 UNK         0.0000 
     48 H48         6.6585   53.0390   23.7894 H         1 UNK         0.0000 
     49 H49         4.0816   54.4420   24.2327 H         1 UNK         0.0000 
     50 H50         2.7104   54.5116   26.2597 H         1 UNK         0.0000 
     51 H51         6.2350   54.4443   28.6890 H         1 UNK         0.0000 
     52 H52         7.6213   54.2482   26.6842 H         1 UNK         0.0000 
     53 H53         3.0275   50.2208   21.9141 H         1 UNK         0.0000 
     54 H54         1.5050   50.8703   21.3168 H         1 UNK         0.0000 
     55 H55         2.0333   49.2436   20.8520 H         1 UNK         0.0000 
     56 H56         1.2736   47.6272   18.2057 H         1 UNK         0.0000 
     57 H57         1.8372   48.7264   16.9504 H         1 UNK         0.0000 
     58 H58         2.7287   48.5739   18.4811 H         1 UNK         0.0000 
     59 H59        -1.8830   50.8790   15.2526 H         1 UNK         0.0000 
     60 H60        -1.6103   52.4620   15.9720 H         1 UNK         0.0000 
     61 H61        -0.4573   51.8003   14.7891 H         1 UNK         0.0000 
     62 N62         5.0653   52.8953   16.7061 N.4       1 UNK         0.0000 
     63 H63         5.4910   52.3028   17.4153 H         1 UNK         0.0000 
     64 H64         4.1195   52.5454   16.6194 H         1 UNK         0.0000 
@<TRIPOS>BOND
     1    1   35 1    
     2    1   36 1    
     3    1   37 1    
     4    1   62 1    
     5    2    3 1    
     6    2   13 1    
     7    2    4 1    
     8    2   62 1    
     9    4    5 1    
    10    4   38 1    
    11    4   39 1    
    12    5    6 1    
    13    5   40 1    
    14    5   41 1    
    15    6   11 ar   
    16    6    7 ar   
    17    7    8 ar   
    18    7   42 1    
    19    8    9 ar   
    20    8   33 1    
    21    9   10 ar   
    22    9   31 1    
    23   10   11 ar   
    24   10   29 1    
    25   11   12 1    
    26   12   19 ar   
    27   12   13 ar   
    28   13   14 ar   
    29   14   15 ar   
    30   14   43 1    
    31   15   16 2    
    32   15   17 ar   
    33   17   18 ar   
    34   17   20 1    
    35   18   19 ar   
    36   18   44 1    
    37   19   45 1    
    38   20   21 1    
    39   20   46 1    
    40   21   22 1    
    41   21   47 1    
    42   21   48 1    
    43   22   27 ar   
    44   22   23 ar   
    45   23   24 ar   
    46   23   49 1    
    47   24   25 ar   
    48   24   50 1    
    49   25   26 ar   
    50   25   28 1    
    51   26   27 ar   
    52   26   51 1    
    53   27   52 1    
    54   29   30 1    
    55   30   53 1    
    56   30   54 1    
    57   30   55 1    
    58   31   32 1    
    59   32   56 1    
    60   32   57 1    
    61   32   58 1    
    62   33   34 1    
    63   34   59 1    
    64   34   60 1    
    65   34   61 1    
    66   62   63 1    
    67   62   64 1    
@<TRIPOS>SUBSTRUCTURE
     1 UNK         1 GROUP             0       ****    0 ROOT    
