@<TRIPOS>MOLECULE
ZINC00691897_4516
69   72    1
SMALL
USER_CHARGES


@<TRIPOS>ATOM
      1 C1          0.4876   52.0802   30.0313 C.3       1 UNK         0.0000 
      2 C2          1.6393   52.2619   29.0210 C.3       1 UNK         0.0000 
      3 C3          2.7937   53.2360   29.4316 C.3       1 UNK         0.0000 
      4 C4          3.5108   52.6563   30.6810 C.3       1 UNK         0.0000 
      5 C5          2.1724   54.6102   29.8038 C.3       1 UNK         0.0000 
      6 C6          3.8527   53.3773   28.2595 C.3       1 UNK         0.0000 
      7 H7          4.4116   52.4400   28.2094 H         1 UNK         0.0000 
      8 C8          4.9031   54.4928   28.5044 C.3       1 UNK         0.0000 
      9 C9          6.0562   54.4190   27.4937 C.3       1 UNK         0.0000 
     10 C10         5.5430   54.4269   26.0555 C.ar      1 UNK         0.0000 
     11 C11         4.2323   53.9914   25.7702 C.ar      1 UNK         0.0000 
     12 C12         3.8489   53.8884   24.4341 C.ar      1 UNK         0.0000 
     13 C13         4.7510   54.2386   23.4174 C.ar      1 UNK         0.0000 
     14 C14         4.6228   54.1973   21.9974 C.2       1 UNK         0.0000 
     15 C15         5.7370   54.6915   21.3182 C.2       1 UNK         0.0000 
     16 S16         6.9553   55.2935   22.4473 S.3       1 UNK         0.0000 
     17 C17         6.0053   54.7570   23.8233 C.ar      1 UNK         0.0000 
     18 N18         6.4047   54.8704   25.0919 N.ar      1 UNK         0.0000 
     19 C19         5.9044   54.8580   19.8842 C.2       1 UNK         0.0000 
     20 O20         4.9448   54.8116   19.1142 O.2       1 UNK         0.0000 
     21 N21         7.1784   54.9245   19.4574 N.am      1 UNK         0.0000 
     22 C22         7.5729   54.8092   18.0525 C.3       1 UNK         0.0000 
     23 C23         7.4169   56.0982   17.2192 C.3       1 UNK         0.0000 
     24 C24         8.3007   57.2577   17.6569 C.ar      1 UNK         0.0000 
     25 C25         7.7275   58.4776   18.0240 C.ar      1 UNK         0.0000 
     26 C26         8.5377   59.5490   18.3859 C.ar      1 UNK         0.0000 
     27 C27         9.9281   59.4164   18.3864 C.ar      1 UNK         0.0000 
     28 C28        10.5231   58.2015   18.0247 C.ar      1 UNK         0.0000 
     29 C29         9.6939   57.1252   17.6566 C.ar      1 UNK         0.0000 
     30 O30        11.9073   58.1374   18.0441 O.3       1 UNK         0.0000 
     31 C31        12.5626   56.9876   17.5241 C.3       1 UNK         0.0000 
     32 O32        10.6914   60.4967   18.7607 O.3       1 UNK         0.0000 
     33 C33        11.2953   61.1882   17.6729 C.3       1 UNK         0.0000 
     34 N34         3.5048   53.6979   21.3847 N.pl3     1 UNK         0.0000 
     35 C35         3.2219   53.6618   26.8684 C.3       1 UNK         0.0000 
     36 H36        -0.2003   51.3045   29.6878 H         1 UNK         0.0000 
     37 H37        -0.1008   52.9896   30.1480 H         1 UNK         0.0000 
     38 H38         0.8300   51.7840   31.0227 H         1 UNK         0.0000 
     39 H39         2.0610   51.2799   28.7948 H         1 UNK         0.0000 
     40 H40         1.1666   52.6002   28.0985 H         1 UNK         0.0000 
     41 H41         4.3024   53.3044   31.0489 H         1 UNK         0.0000 
     42 H42         2.8377   52.4968   31.5203 H         1 UNK         0.0000 
     43 H43         3.9732   51.6941   30.4564 H         1 UNK         0.0000 
     44 H44         2.9242   55.3458   30.0816 H         1 UNK         0.0000 
     45 H45         1.5964   55.0314   28.9784 H         1 UNK         0.0000 
     46 H46         1.5035   54.5404   30.6583 H         1 UNK         0.0000 
     47 H47         4.4092   55.4567   28.4826 H         1 UNK         0.0000 
     48 H48         5.3353   54.4258   29.4997 H         1 UNK         0.0000 
     49 H49         6.7534   55.2399   27.6607 H         1 UNK         0.0000 
     50 H50         6.6211   53.5002   27.6566 H         1 UNK         0.0000 
     51 H51         2.8618   53.5351   24.1808 H         1 UNK         0.0000 
     52 H52         7.9150   55.0729   20.1303 H         1 UNK         0.0000 
     53 H53         8.6304   54.5461   18.0915 H         1 UNK         0.0000 
     54 H54         7.0928   53.9614   17.5591 H         1 UNK         0.0000 
     55 H55         7.6413   55.8778   16.1748 H         1 UNK         0.0000 
     56 H56         6.3673   56.3966   17.2170 H         1 UNK         0.0000 
     57 H57         6.6529   58.6106   18.0136 H         1 UNK         0.0000 
     58 H58         8.0700   60.4894   18.6484 H         1 UNK         0.0000 
     59 H59        10.1256   56.1817   17.3607 H         1 UNK         0.0000 
     60 H60        13.6403   57.1279   17.5918 H         1 UNK         0.0000 
     61 H61        12.3148   56.0834   18.0778 H         1 UNK         0.0000 
     62 H62        12.3184   56.8342   16.4721 H         1 UNK         0.0000 
     63 H63        11.8940   62.0122   18.0583 H         1 UNK         0.0000 
     64 H64        11.9585   60.5476   17.0903 H         1 UNK         0.0000 
     65 H65        10.5417   61.6063   17.0039 H         1 UNK         0.0000 
     66 H66         3.4011   53.7765   20.3792 H         1 UNK         0.0000 
     67 H67         2.6974   53.3713   21.8908 H         1 UNK         0.0000 
     68 H68         2.6387   52.8008   26.5420 H         1 UNK         0.0000 
     69 H69         2.5206   54.4921   26.9419 H         1 UNK         0.0000 
@<TRIPOS>BOND
     1    1    2 1    
     2    1   36 1    
     3    1   37 1    
     4    1   38 1    
     5    2    3 1    
     6    2   39 1    
     7    2   40 1    
     8    3    4 1    
     9    3    5 1    
    10    3    6 1    
    11    4   41 1    
    12    4   42 1    
    13    4   43 1    
    14    5   44 1    
    15    5   45 1    
    16    5   46 1    
    17    6    7 1    
    18    6   35 1    
    19    6    8 1    
    20    8    9 1    
    21    8   47 1    
    22    8   48 1    
    23    9   10 1    
    24    9   49 1    
    25    9   50 1    
    26   10   18 ar   
    27   10   11 ar   
    28   11   12 ar   
    29   11   35 1    
    30   12   13 ar   
    31   12   51 1    
    32   13   17 ar   
    33   13   14 1    
    34   14   15 2    
    35   14   34 1    
    36   15   16 1    
    37   15   19 1    
    38   16   17 1    
    39   17   18 ar   
    40   19   20 2    
    41   19   21 am   BACKBONE|DICT|INTERRES
    42   21   22 1    
    43   21   52 1    
    44   22   23 1    
    45   22   53 1    
    46   22   54 1    
    47   23   24 1    
    48   23   55 1    
    49   23   56 1    
    50   24   29 ar   
    51   24   25 ar   
    52   25   26 ar   
    53   25   57 1    
    54   26   27 ar   
    55   26   58 1    
    56   27   28 ar   
    57   27   32 1    
    58   28   29 ar   
    59   28   30 1    
    60   29   59 1    
    61   30   31 1    
    62   31   60 1    
    63   31   61 1    
    64   31   62 1    
    65   32   33 1    
    66   33   63 1    
    67   33   64 1    
    68   33   65 1    
    69   34   66 1    
    70   34   67 1    
    71   35   68 1    
    72   35   69 1    
@<TRIPOS>SUBSTRUCTURE
     1 UNK         1 GROUP             0       ****    0 ROOT    
