ZINC14269416_2808
                    3D
 Schrodinger Suite 2024-2.
 54 58  0  0  1  0            999 V2000
    0.9100   48.2617   16.7431 C   0  0  0  0  0  0
    0.7989   48.8318   18.1500 C   0  0  0  0  0  0
    0.3321   48.0118   19.1813 C   0  0  0  0  0  0
    0.2484   48.4958   20.4860 C   0  0  0  0  0  0
    0.6441   49.8008   20.7893 C   0  0  0  0  0  0
    1.0994   50.6232   19.7510 C   0  0  0  0  0  0
    1.1789   50.1537   18.4374 C   0  0  0  0  0  0
    1.6642   51.1022   17.3485 C   0  0  0  0  0  0
    0.5958   50.3177   22.1913 C   0  0  0  0  0  0
    0.3041   49.6497   23.2954 N   0  0  0  0  0  0
    0.4470   50.5804   24.2913 C   0  0  0  0  0  0
    0.3021   50.4986   25.6909 C   0  0  0  0  0  0
    0.5468   51.6572   26.4471 C   0  0  0  0  0  0
    0.8912   52.8656   25.8164 C   0  0  0  0  0  0
    1.0398   52.9725   24.4358 C   0  0  0  0  0  0
    0.8123   51.8069   23.7109 C   0  0  0  0  0  0
    0.9052   51.6366   22.3716 O   0  0  0  0  0  0
    0.4235   51.6022   27.8514 N   0  0  0  0  0  0
    1.1889   52.2373   28.7912 C   0  0  0  0  0  0
    0.5129   52.4970   30.2938 S   0  0  0  0  0  0
    2.4575   52.5648   28.3803 N   0  0  0  0  0  0
    3.4374   53.3428   28.9048 C   0  0  0  0  0  0
    3.5505   53.6570   30.0929 O   0  0  0  0  0  0
    4.4554   53.7991   27.8830 C   0  0  0  0  0  0
    5.7735   54.1024   28.2524 C   0  0  0  0  0  0
    6.7066   54.5125   27.2970 C   0  0  0  0  0  0
    6.3220   54.6482   25.9655 C   0  0  0  0  0  0
    5.0149   54.3473   25.5815 C   0  0  0  0  0  0
    4.0998   53.9438   26.5330 C   0  0  0  0  0  0
    4.5619   54.4888   24.2851 O   0  0  0  0  0  0
    5.6087   54.5117   23.3145 C   0  0  0  0  0  0
    6.7252   55.4699   23.7938 C   0  0  0  0  0  0
    7.2690   55.0204   25.0403 O   0  0  0  0  0  0
    0.1237   48.6615   16.1022 H   0  0  0  0  0  0
    1.8714   48.5271   16.3011 H   0  0  0  0  0  0
    0.8533   47.1722   16.7394 H   0  0  0  0  0  0
    0.0340   46.9947   18.9760 H   0  0  0  0  0  0
   -0.1172   47.8466   21.2656 H   0  0  0  0  0  0
    1.4061   51.6374   19.9630 H   0  0  0  0  0  0
    2.7037   50.8967   17.1011 H   0  0  0  0  0  0
    1.0713   50.9883   16.4433 H   0  0  0  0  0  0
    1.5748   52.1458   17.6478 H   0  0  0  0  0  0
    0.0232   49.5664   26.1666 H   0  0  0  0  0  0
    1.1017   53.7418   26.4136 H   0  0  0  0  0  0
    1.3310   53.8942   23.9527 H   0  0  0  0  0  0
   -0.4267   51.1674   28.1844 H   0  0  0  0  0  0
    2.6378   52.3092   27.4212 H   0  0  0  0  0  0
    6.0915   54.0261   29.2796 H   0  0  0  0  0  0
    7.7184   54.7341   27.6036 H   0  0  0  0  0  0
    3.1172   53.7505   26.1747 H   0  0  0  0  0  0
    6.0188   53.5064   23.1943 H   0  0  0  0  0  0
    5.2075   54.8272   22.3504 H   0  0  0  0  0  0
    7.5050   55.5533   23.0399 H   0  0  0  0  0  0
    6.3044   56.4634   23.9527 H   0  0  0  0  0  0
  1  2  1  0  0  0
  1 34  1  0  0  0
  1 35  1  0  0  0
  1 36  1  0  0  0
  2  7  2  0  0  0
  2  3  1  0  0  0
  3  4  2  0  0  0
  3 37  1  0  0  0
  4  5  1  0  0  0
  4 38  1  0  0  0
  5  6  2  0  0  0
  5  9  1  0  0  0
  6  7  1  0  0  0
  6 39  1  0  0  0
  7  8  1  0  0  0
  8 40  1  0  0  0
  8 41  1  0  0  0
  8 42  1  0  0  0
  9 17  1  0  0  0
  9 10  2  0  0  0
 10 11  1  0  0  0
 11 16  2  0  0  0
 11 12  1  0  0  0
 12 13  2  0  0  0
 12 43  1  0  0  0
 13 14  1  0  0  0
 13 18  1  0  0  0
 14 15  2  0  0  0
 14 44  1  0  0  0
 15 16  1  0  0  0
 15 45  1  0  0  0
 16 17  1  0  0  0
 18 19  1  0  0  0
 18 46  1  0  0  0
 19 20  2  0  0  0
 19 21  1  0  0  0
 21 22  1  0  0  0
 21 47  1  0  0  0
 22 23  2  0  0  0
 22 24  1  0  0  0
 24 29  2  0  0  0
 24 25  1  0  0  0
 25 26  2  0  0  0
 25 48  1  0  0  0
 26 27  1  0  0  0
 26 49  1  0  0  0
 27 33  1  0  0  0
 27 28  2  0  0  0
 28 29  1  0  0  0
 28 30  1  0  0  0
 29 50  1  0  0  0
 30 31  1  0  0  0
 31 32  1  0  0  0
 31 51  1  0  0  0
 31 52  1  0  0  0
 32 33  1  0  0  0
 32 53  1  0  0  0
 32 54  1  0  0  0
M  END
> <i_i_glide_confnum>
16

> <i_i_glide_lignum>
2809

> <i_i_glide_posenum>
38

> <i_i_glide_rotatable_bonds>
6

> <i_m_Source_File_Index>
4251

> <b_m_subgroup_collapsed>
0

> <r_i_docking_score>
-6.79828

> <r_i_glide_ecoul>
-5.18734

> <r_i_glide_eff_state_penalty>
0

> <r_i_glide_einternal>
5.95073

> <r_i_glide_emodel>
-69.1653

> <r_i_glide_energy>
-49.734

> <r_i_glide_erotb>
0.476452

> <r_i_glide_esite>
-0.0101263

> <r_i_glide_evdw>
-44.5467

> <r_i_glide_gscore>
-6.79828

> <r_i_glide_hbond>
-0.608

> <r_i_glide_ligand_efficiency>
-0.206008

> <r_i_glide_ligand_efficiency_ln>
-1.5119

> <r_i_glide_ligand_efficiency_sa>
-0.660779

> <r_i_glide_lipo>
-2.44534

> <r_i_glide_metal>
0

> <r_i_glide_rewards>
-1.20583

> <s_i_glide_gridfile>
wee1_glide-grid

> <s_m_Source_File>
wee1_decoys_glide_SP.sdf

> <s_m_Source_Path>
/Users/zhangxujun/Desktop

> <s_m_entry_id>
4526

> <s_m_entry_name>
wee1_decoys_glide_SP.4251

> <s_m_subgroup_title>
wee1_decoys_glide_SP

> <s_m_subgroupid>
wee1_decoys_glide_SP


$$$$
