ZINC25953209_1434
                    3D
 Schrodinger Suite 2024-2.
 47 50  0  0  1  0            999 V2000
   -3.3095   50.8969   27.2818 C   0  0  0  0  0  0
   -2.2966   51.4436   26.3097 C   0  0  0  0  0  0
   -1.0216   51.9598   26.4410 C   0  0  0  0  0  0
   -0.5711   52.3326   25.1646 C   0  0  0  0  0  0
   -1.5887   51.9343   24.2895 C   0  0  0  0  0  0
   -2.6357   51.4329   24.9972 O   0  0  0  0  0  0
   -1.7789   51.9576   22.7895 C   0  0  0  0  0  0
    0.7267   52.8957   24.8758 C   0  0  0  0  0  0
    1.6299   52.8447   25.7139 O   0  0  0  0  0  0
    0.8199   53.5315   23.6826 N   0  0  0  0  0  0
    2.0344   54.0956   23.2732 N   0  0  0  0  0  0
    2.9870   53.3112   22.7288 C   0  0  0  0  0  0
    2.8133   52.1397   22.3911 O   0  0  0  0  0  0
    4.2317   53.9759   22.4341 C   0  0  0  0  0  0
    4.6983   54.2594   21.1608 C   0  0  0  0  0  0
    5.9501   54.8479   21.3177 C   0  0  0  0  0  0
    6.2829   54.8958   22.5864 N   0  0  0  0  0  0
    5.2012   54.4966   23.2984 N   0  0  0  0  0  0
    5.3302   54.4220   24.7228 C   0  0  0  0  0  0
    4.2204   54.5910   25.5639 C   0  0  0  0  0  0
    4.3422   54.4949   26.9450 C   0  0  0  0  0  0
    5.5864   54.2420   27.5083 C   0  0  0  0  0  0
    6.7056   54.0963   26.6986 C   0  0  0  0  0  0
    6.5821   54.1891   25.3144 C   0  0  0  0  0  0
    6.8256   55.2984   20.2497 C   0  0  0  0  0  0
    6.6547   55.4159   18.8767 C   0  0  0  0  0  0
    7.8468   55.9174   18.3579 C   0  0  0  0  0  0
    8.6991   56.0833   19.4335 C   0  0  0  0  0  0
    8.0815   55.7033   20.5807 O   0  0  0  0  0  0
   -2.9728   50.9947   28.3140 H   0  0  0  0  0  0
   -3.4873   49.8351   27.1096 H   0  0  0  0  0  0
   -4.2685   51.4078   27.1991 H   0  0  0  0  0  0
   -0.4795   52.0683   27.3701 H   0  0  0  0  0  0
   -0.8384   51.8335   22.2507 H   0  0  0  0  0  0
   -2.4325   51.1534   22.4555 H   0  0  0  0  0  0
   -2.2285   52.8943   22.4661 H   0  0  0  0  0  0
    0.1175   53.5159   22.9580 H   0  0  0  0  0  0
    2.1621   55.0522   23.5646 H   0  0  0  0  0  0
    4.1968   54.0447   20.2262 H   0  0  0  0  0  0
    3.2516   54.8408   25.1810 H   0  0  0  0  0  0
    3.4740   54.6241   27.5753 H   0  0  0  0  0  0
    5.6913   54.1738   28.5825 H   0  0  0  0  0  0
    7.6654   53.9025   27.1521 H   0  0  0  0  0  0
    7.4654   54.0545   24.7067 H   0  0  0  0  0  0
    5.7655   55.1677   18.3181 H   0  0  0  0  0  0
    8.0646   56.1325   17.3217 H   0  0  0  0  0  0
    9.7125   56.4449   19.5303 H   0  0  0  0  0  0
  1  2  1  0  0  0
  1 30  1  0  0  0
  1 31  1  0  0  0
  1 32  1  0  0  0
  2  6  1  0  0  0
  2  3  2  0  0  0
  3  4  1  0  0  0
  3 33  1  0  0  0
  4  5  2  0  0  0
  4  8  1  0  0  0
  5  6  1  0  0  0
  5  7  1  0  0  0
  7 34  1  0  0  0
  7 35  1  0  0  0
  7 36  1  0  0  0
  8  9  2  0  0  0
  8 10  1  0  0  0
 10 11  1  0  0  0
 10 37  1  0  0  0
 11 12  1  0  0  0
 11 38  1  0  0  0
 12 13  2  0  0  0
 12 14  1  0  0  0
 14 18  1  0  0  0
 14 15  2  0  0  0
 15 16  1  0  0  0
 15 39  1  0  0  0
 16 17  2  0  0  0
 16 25  1  0  0  0
 17 18  1  0  0  0
 18 19  1  0  0  0
 19 24  2  0  0  0
 19 20  1  0  0  0
 20 21  2  0  0  0
 20 40  1  0  0  0
 21 22  1  0  0  0
 21 41  1  0  0  0
 22 23  2  0  0  0
 22 42  1  0  0  0
 23 24  1  0  0  0
 23 43  1  0  0  0
 24 44  1  0  0  0
 25 29  1  0  0  0
 25 26  2  0  0  0
 26 27  1  0  0  0
 26 45  1  0  0  0
 27 28  2  0  0  0
 27 46  1  0  0  0
 28 29  1  0  0  0
 28 47  1  0  0  0
M  END
> <i_i_glide_confnum>
15

> <i_i_glide_lignum>
1435

> <i_i_glide_posenum>
367

> <i_i_glide_rotatable_bonds>
7

> <i_m_Source_File_Index>
5179

> <b_m_subgroup_collapsed>
0

> <r_i_docking_score>
-5.17355

> <r_i_glide_ecoul>
-0.664009

> <r_i_glide_eff_state_penalty>
0

> <r_i_glide_einternal>
7.97799

> <r_i_glide_emodel>
-55.0302

> <r_i_glide_energy>
-43.6472

> <r_i_glide_erotb>
0.895818

> <r_i_glide_esite>
0

> <r_i_glide_evdw>
-42.9832

> <r_i_glide_gscore>
-5.17355

> <r_i_glide_hbond>
0

> <r_i_glide_ligand_efficiency>
-0.178398

> <r_i_glide_ligand_efficiency_ln>
-1.18461

> <r_i_glide_ligand_efficiency_sa>
-0.548096

> <r_i_glide_lipo>
-2.47267

> <r_i_glide_metal>
0

> <r_i_glide_rewards>
-1.34793

> <s_i_glide_gridfile>
wee1_glide-grid

> <s_m_Source_File>
wee1_decoys_glide_SP.sdf

> <s_m_Source_Path>
/Users/zhangxujun/Desktop

> <s_m_entry_id>
5454

> <s_m_entry_name>
wee1_decoys_glide_SP.5179

> <s_m_subgroup_title>
wee1_decoys_glide_SP

> <s_m_subgroupid>
wee1_decoys_glide_SP


$$$$
