ZINC22851811_5605
                    3D
 Schrodinger Suite 2024-2.
 60 65  0  0  1  0            999 V2000
   -4.0979   45.1906   22.6310 C   0  0  0  0  0  0
   -4.0603   45.7807   23.9260 O   0  0  0  0  0  0
   -3.1092   46.7473   24.1896 C   0  0  0  0  0  0
   -3.3212   47.5514   25.3049 C   0  0  0  0  0  0
   -2.4277   48.5699   25.6235 C   0  0  0  0  0  0
   -1.2756   48.7938   24.8566 C   0  0  0  0  0  0
   -1.0639   47.9658   23.7447 C   0  0  0  0  0  0
   -1.9650   46.9573   23.4105 C   0  0  0  0  0  0
   -0.4120   49.8533   25.1548 N   0  0  0  0  0  0
   -0.0858   50.2496   26.5367 C   0  0  0  0  0  0
    0.4191   51.7051   26.7057 C   0  0  0  0  0  0
    1.5038   52.0968   25.7897 N   0  0  0  0  0  0
    1.1121   51.7290   24.4227 C   0  0  0  0  0  0
    0.6769   50.2621   24.2592 C   0  0  0  0  0  0
    2.0110   53.4924   25.9147 C   0  0  1  0  0  0
    1.1724   54.0980   25.5713 H   0  0  0  0  0  0
    2.1851   53.9753   27.3869 C   0  0  0  0  0  0
    1.0288   54.3120   28.0971 C   0  0  0  0  0  0
    1.0916   54.8886   29.3581 C   0  0  0  0  0  0
    2.3157   55.1701   29.9221 C   0  0  0  0  0  0
    3.4857   54.7516   29.2919 C   0  0  0  0  0  0
    3.4135   54.1204   28.0529 C   0  0  0  0  0  0
    3.1186   53.8619   24.8801 C   0  0  0  0  0  0
    2.9369   54.1164   23.5151 C   0  0  0  0  0  0
    4.1266   54.2964   22.8320 N   0  0  0  0  0  0
    5.2505   54.3376   23.5896 C   0  0  0  0  0  0
    4.8542   54.0976   25.2566 S   0  0  0  0  0  0
    6.3046   54.5912   22.8582 N   0  0  0  0  0  0
    5.7749   54.7307   21.6515 C   0  0  0  0  0  0
    4.4781   54.4971   21.5336 N   0  0  0  0  0  0
    6.5725   55.1514   20.5071 C   0  0  0  0  0  0
    6.2903   55.3529   19.1615 C   0  0  0  0  0  0
    7.4808   55.7363   18.5427 C   0  0  0  0  0  0
    8.4454   55.7512   19.5341 C   0  0  0  0  0  0
    7.8928   55.4109   20.7253 O   0  0  0  0  0  0
    1.7256   54.1854   22.8770 O   0  0  0  0  0  0
   -5.0043   44.5902   22.5402 H   0  0  0  0  0  0
   -4.1189   45.9446   21.8394 H   0  0  0  0  0  0
   -3.2446   44.5304   22.4722 H   0  0  0  0  0  0
   -4.1966   47.3978   25.9197 H   0  0  0  0  0  0
   -2.6475   49.1818   26.4825 H   0  0  0  0  0  0
   -0.1934   48.0939   23.1219 H   0  0  0  0  0  0
   -1.7548   46.3493   22.5451 H   0  0  0  0  0  0
   -0.9242   50.0967   27.2127 H   0  0  0  0  0  0
    0.7100   49.5862   26.8806 H   0  0  0  0  0  0
    0.7407   51.7992   27.7413 H   0  0  0  0  0  0
   -0.4460   52.3430   26.5193 H   0  0  0  0  0  0
    0.2769   52.3508   24.0979 H   0  0  0  0  0  0
    1.9526   51.8332   23.7415 H   0  0  0  0  0  0
    0.4050   50.1170   23.2134 H   0  0  0  0  0  0
    1.5333   49.6178   24.4668 H   0  0  0  0  0  0
    0.0574   54.1050   27.6824 H   0  0  0  0  0  0
    0.2014   55.1264   29.9161 H   0  0  0  0  0  0
    2.3112   55.6756   30.8795 H   0  0  0  0  0  0
    4.4459   54.8985   29.7653 H   0  0  0  0  0  0
    4.3395   53.7502   27.6587 H   0  0  0  0  0  0
    5.3296   55.2228   18.6842 H   0  0  0  0  0  0
    7.6241   55.9629   17.4962 H   0  0  0  0  0  0
    9.5033   55.9727   19.5446 H   0  0  0  0  0  0
    1.8301   54.4211   21.9465 H   0  0  0  0  0  0
  1  2  1  0  0  0
  1 37  1  0  0  0
  1 38  1  0  0  0
  1 39  1  0  0  0
  2  3  1  0  0  0
  3  8  2  0  0  0
  3  4  1  0  0  0
  4  5  2  0  0  0
  4 40  1  0  0  0
  5  6  1  0  0  0
  5 41  1  0  0  0
  6  7  2  0  0  0
  6  9  1  0  0  0
  7  8  1  0  0  0
  7 42  1  0  0  0
  8 43  1  0  0  0
  9 14  1  0  0  0
  9 10  1  0  0  0
 10 11  1  0  0  0
 10 44  1  0  0  0
 10 45  1  0  0  0
 11 12  1  0  0  0
 11 46  1  0  0  0
 11 47  1  0  0  0
 12 13  1  0  0  0
 12 15  1  0  0  0
 13 14  1  0  0  0
 13 48  1  0  0  0
 13 49  1  0  0  0
 14 50  1  0  0  0
 14 51  1  0  0  0
 15 16  1  0  0  0
 15 17  1  0  0  0
 15 23  1  0  0  0
 17 22  2  0  0  0
 17 18  1  0  0  0
 18 19  2  0  0  0
 18 52  1  0  0  0
 19 20  1  0  0  0
 19 53  1  0  0  0
 20 21  2  0  0  0
 20 54  1  0  0  0
 21 22  1  0  0  0
 21 55  1  0  0  0
 22 56  1  0  0  0
 23 27  1  0  0  0
 23 24  2  0  0  0
 24 25  1  0  0  0
 24 36  1  0  0  0
 25 30  1  0  0  0
 25 26  1  0  0  0
 26 27  1  0  0  0
 26 28  2  0  0  0
 28 29  1  0  0  0
 29 30  2  0  0  0
 29 31  1  0  0  0
 31 35  1  0  0  0
 31 32  2  0  0  0
 32 33  1  0  0  0
 32 57  1  0  0  0
 33 34  2  0  0  0
 33 58  1  0  0  0
 34 35  1  0  0  0
 34 59  1  0  0  0
 36 60  1  0  0  0
M  END
> <i_i_glide_confnum>
48

> <i_i_glide_lignum>
5606

> <i_i_glide_posenum>
211

> <i_i_glide_rotatable_bonds>
7

> <i_m_Source_File_Index>
1576

> <b_m_subgroup_collapsed>
0

> <r_i_docking_score>
-5.87201

> <r_i_glide_ecoul>
-5.46779

> <r_i_glide_eff_state_penalty>
0

> <r_i_glide_einternal>
6.52733

> <r_i_glide_emodel>
-56.5542

> <r_i_glide_energy>
-43.2096

> <r_i_glide_erotb>
0.427595

> <r_i_glide_esite>
-0.035631

> <r_i_glide_evdw>
-37.7418

> <r_i_glide_gscore>
-5.87201

> <r_i_glide_hbond>
-0.34736

> <r_i_glide_ligand_efficiency>
-0.167772

> <r_i_glide_ligand_efficiency_ln>
-1.28904

> <r_i_glide_ligand_efficiency_sa>
-0.548793

> <r_i_glide_lipo>
-2.4031

> <r_i_glide_metal>
0

> <r_i_glide_rewards>
-0.806258

> <s_i_glide_gridfile>
wee1_glide-grid

> <s_m_Source_File>
wee1_decoys_glide_SP.sdf

> <s_m_Source_Path>
/Users/zhangxujun/Desktop

> <s_m_entry_id>
1851

> <s_m_entry_name>
wee1_decoys_glide_SP.1576

> <s_m_subgroup_title>
wee1_decoys_glide_SP

> <s_m_subgroupid>
wee1_decoys_glide_SP


$$$$
