@<TRIPOS>MOLECULE
ZINC39636788_1276
66   69    1
SMALL
USER_CHARGES


@<TRIPOS>ATOM
      1 C1          2.9071   52.5900   29.1559 C.3       1 UNK         0.0000 
      2 C2          2.2140   53.6224   28.2313 C.3       1 UNK         0.0000 
      3 H3          2.2826   54.6232   28.6629 H         1 UNK         0.0000 
      4 C4          0.6889   53.3108   28.0835 C.2       1 UNK         0.0000 
      5 O5         -0.0834   53.7844   28.9199 O.2       1 UNK         0.0000 
      6 N6          0.2311   52.5751   27.0321 N.am      1 UNK         0.0000 
      7 C7         -1.1769   52.3779   26.6766 C.3       1 UNK         0.0000 
      8 C8         -1.1468   51.5149   25.3907 C.3       1 UNK         0.0000 
      9 H9         -1.9863   50.8238   25.4056 H         1 UNK         0.0000 
     10 C10         0.2089   50.7422   25.4657 C.3       1 UNK         0.0000 
     11 C11         1.1043   51.7238   26.2455 C.3       1 UNK         0.0000 
     12 C12         0.9437   50.2266   24.1858 C.3       1 UNK         0.0000 
     13 C13         0.1534   49.1450   23.4277 C.3       1 UNK         0.0000 
     14 N14        -0.1031   47.9753   24.3936 N.4       1 UNK         0.0000 
     15 C15        -0.8186   48.4158   25.6812 C.3       1 UNK         0.0000 
     16 C16         0.0737   49.4841   26.3328 C.3       1 UNK         0.0000 
     17 C17        -1.2069   52.2835   24.0598 C.2       1 UNK         0.0000 
     18 O18        -0.5373   53.2967   23.8974 O.2       1 UNK         0.0000 
     19 N19        -1.9865   51.7514   23.1059 N.am      1 UNK         0.0000 
     20 C20        -1.9352   52.0965   21.6904 C.3       1 UNK         0.0000 
     21 C21        -1.5729   50.9006   20.8299 C.ar      1 UNK         0.0000 
     22 C22        -2.5672   50.0430   20.3512 C.ar      1 UNK         0.0000 
     23 C23        -2.2222   48.9492   19.5575 C.ar      1 UNK         0.0000 
     24 C24        -0.8864   48.7104   19.2356 C.ar      1 UNK         0.0000 
     25 C25         0.1163   49.5708   19.6968 C.ar      1 UNK         0.0000 
     26 C26        -0.2399   50.6768   20.4762 C.ar      1 UNK         0.0000 
     27 C27         1.5884   49.3213   19.3777 C.3       1 UNK         0.0000 
     28 F28         2.3130   49.4586   20.4903 F         1 UNK         0.0000 
     29 F29         1.8003   48.0953   18.8903 F         1 UNK         0.0000 
     30 F30         1.9898   50.2213   18.4814 F         1 UNK         0.0000 
     31 O31         2.7549   53.7288   26.9068 O.3       1 UNK         0.0000 
     32 C32         4.0403   54.1004   26.5791 C.ar      1 UNK         0.0000 
     33 C33         5.0375   54.4989   27.4773 C.ar      1 UNK         0.0000 
     34 C34         6.2892   54.8893   26.9968 C.ar      1 UNK         0.0000 
     35 C35         6.5403   54.8809   25.6264 C.ar      1 UNK         0.0000 
     36 C36         5.5535   54.4932   24.7288 C.ar      1 UNK         0.0000 
     37 C37         4.3098   54.1011   25.2101 C.ar      1 UNK         0.0000 
     38 H38         2.4162   52.5456   30.1295 H         1 UNK         0.0000 
     39 H39         2.8811   51.5869   28.7350 H         1 UNK         0.0000 
     40 H40         3.9521   52.8175   29.3478 H         1 UNK         0.0000 
     41 H41        -1.6673   51.8107   27.4690 H         1 UNK         0.0000 
     42 H42        -1.7481   53.2969   26.5523 H         1 UNK         0.0000 
     43 H43         1.5906   52.3444   25.4911 H         1 UNK         0.0000 
     44 H44         1.8480   51.2461   26.8815 H         1 UNK         0.0000 
     45 H45         1.1842   51.0474   23.5083 H         1 UNK         0.0000 
     46 H46         1.9045   49.8012   24.4730 H         1 UNK         0.0000 
     47 H47        -0.8275   49.4595   23.0790 H         1 UNK         0.0000 
     48 H48         0.7199   48.7404   22.5885 H         1 UNK         0.0000 
     49 H49        -0.6317   47.2460   23.9363 H         1 UNK         0.0000 
     50 H50        -1.8290   48.7270   25.4226 H         1 UNK         0.0000 
     51 H51        -0.8963   47.5297   26.3094 H         1 UNK         0.0000 
     52 H52         1.0451   49.0533   26.5817 H         1 UNK         0.0000 
     53 H53        -0.3617   49.7649   27.2831 H         1 UNK         0.0000 
     54 H54        -2.6290   51.0175   23.3617 H         1 UNK         0.0000 
     55 H55        -2.8956   52.4964   21.3870 H         1 UNK         0.0000 
     56 H56        -1.2216   52.8960   21.4884 H         1 UNK         0.0000 
     57 H57        -3.6055   50.2118   20.5975 H         1 UNK         0.0000 
     58 H58        -2.9915   48.2855   19.1915 H         1 UNK         0.0000 
     59 H59        -0.6371   47.8563   18.6228 H         1 UNK         0.0000 
     60 H60         0.5300   51.3496   20.8311 H         1 UNK         0.0000 
     61 H61         4.8519   54.5565   28.5373 H         1 UNK         0.0000 
     62 H62         7.0605   55.2073   27.6814 H         1 UNK         0.0000 
     63 H63         7.5038   55.1774   25.2411 H         1 UNK         0.0000 
     64 H64         5.7507   54.4937   23.6666 H         1 UNK         0.0000 
     65 H65         3.5381   53.8060   24.5138 H         1 UNK         0.0000 
     66 H66         0.7947   47.5880   24.6647 H         1 UNK         0.0000 
@<TRIPOS>BOND
     1    1    2 1    
     2    1   38 1    
     3    1   39 1    
     4    1   40 1    
     5    2    3 1    
     6    2    4 1    
     7    2   31 1    
     8    4    5 2    
     9    4    6 am   BACKBONE|DICT|INTERRES
    10    6   11 1    
    11    6    7 1    
    12    7    8 1    
    13    7   41 1    
    14    7   42 1    
    15    8    9 1    
    16    8   10 1    
    17    8   17 1    
    18   10   16 1    
    19   10   11 1    
    20   10   12 1    
    21   11   43 1    
    22   11   44 1    
    23   12   13 1    
    24   12   45 1    
    25   12   46 1    
    26   13   14 1    
    27   13   47 1    
    28   13   48 1    
    29   14   15 1    
    30   14   49 1    
    31   14   66 1    
    32   15   16 1    
    33   15   50 1    
    34   15   51 1    
    35   16   52 1    
    36   16   53 1    
    37   17   18 2    
    38   17   19 am   BACKBONE|DICT|INTERRES
    39   19   20 1    
    40   19   54 1    
    41   20   21 1    
    42   20   55 1    
    43   20   56 1    
    44   21   26 ar   
    45   21   22 ar   
    46   22   23 ar   
    47   22   57 1    
    48   23   24 ar   
    49   23   58 1    
    50   24   25 ar   
    51   24   59 1    
    52   25   26 ar   
    53   25   27 1    
    54   26   60 1    
    55   27   28 1    
    56   27   29 1    
    57   27   30 1    
    58   31   32 1    
    59   32   37 ar   
    60   32   33 ar   
    61   33   34 ar   
    62   33   61 1    
    63   34   35 ar   
    64   34   62 1    
    65   35   36 ar   
    66   35   63 1    
    67   36   37 ar   
    68   36   64 1    
    69   37   65 1    
@<TRIPOS>SUBSTRUCTURE
     1 UNK         1 GROUP             0       ****    0 ROOT    
