ZINC02103053_4869
                    3D
 Schrodinger Suite 2024-2.
 49 51  0  0  1  0            999 V2000
    1.4715   54.4944   16.5123 C   0  0  0  0  0  0
    2.8110   53.8148   16.1883 C   0  0  0  0  0  0
    3.7098   53.5851   17.4229 C   0  0  2  0  0  0
    3.8837   54.5731   17.8539 H   0  0  0  0  0  0
    5.0886   53.0544   16.9805 C   0  0  0  0  0  0
    3.0153   52.7050   18.5104 C   0  0  2  0  0  0
    2.0414   53.1343   18.7512 H   0  0  0  0  0  0
    3.7834   52.5550   19.8279 C   0  0  0  0  0  0
    3.8513   51.5040   20.4793 O   0  0  0  0  0  0
    4.3019   53.7537   20.2360 O   0  0  0  0  0  0
    4.5909   53.9720   21.5650 C   0  0  0  0  0  0
    5.8330   54.4969   21.9261 C   0  0  0  0  0  0
    6.1432   54.7386   23.2679 C   0  0  0  0  0  0
    5.1922   54.4968   24.2707 C   0  0  0  0  0  0
    3.9405   53.9921   23.8861 C   0  0  0  0  0  0
    3.6384   53.7389   22.5581 C   0  0  0  0  0  0
    2.9409   53.7090   24.7856 O   0  0  0  0  0  0
    3.1822   53.9583   26.0888 C   0  0  0  0  0  0
    4.3244   54.4868   26.5921 C   0  0  0  0  0  0
    5.4643   54.8079   25.7131 C   0  0  0  0  0  0
    6.5408   55.2888   26.0812 O   0  0  0  0  0  0
    4.5356   54.7550   27.9140 O   0  0  0  0  0  0
    3.7066   54.1872   28.8554 C   0  0  0  0  0  0
    4.1412   53.0242   29.4840 C   0  0  0  0  0  0
    3.3444   52.4009   30.4359 C   0  0  0  0  0  0
    2.0713   52.8942   30.7116 C   0  0  0  0  0  0
    1.6204   54.0550   30.0816 C   0  0  0  0  0  0
    2.4515   54.7246   29.1827 C   0  0  0  0  0  0
    1.9044   56.2014   28.4829 Cl  0  0  0  0  0  0
    1.0950   52.0974   31.8873 Cl  0  0  0  0  0  0
    1.0470   54.9607   15.6205 H   0  0  0  0  0  0
    1.5883   55.2749   17.2672 H   0  0  0  0  0  0
    0.7389   53.7763   16.8841 H   0  0  0  0  0  0
    2.6278   52.8706   15.6750 H   0  0  0  0  0  0
    3.3426   54.4399   15.4683 H   0  0  0  0  0  0
    5.0018   52.0967   16.4683 H   0  0  0  0  0  0
    5.5748   53.7476   16.2929 H   0  0  0  0  0  0
    5.7647   52.9143   17.8261 H   0  0  0  0  0  0
    6.5562   54.7296   21.1595 H   0  0  0  0  0  0
    7.1085   55.1540   23.5167 H   0  0  0  0  0  0
    2.6590   53.3636   22.3033 H   0  0  0  0  0  0
    2.3180   53.6936   26.6810 H   0  0  0  0  0  0
    5.1050   52.6095   29.2342 H   0  0  0  0  0  0
    3.7303   51.5437   30.9623 H   0  0  0  0  0  0
    0.6443   54.4528   30.3208 H   0  0  0  0  0  0
    2.2255   50.7993   18.8032 H   0  0  0  0  0  0
    2.1577   51.2960   17.2198 H   0  0  0  0  0  0
    2.7044   51.2967   18.0668 N   0  3  0  0  0  0
    3.5925   50.8189   17.8858 H   0  0  0  0  0  0
  1  2  1  0  0  0
  1 31  1  0  0  0
  1 32  1  0  0  0
  1 33  1  0  0  0
  2  3  1  0  0  0
  2 34  1  0  0  0
  2 35  1  0  0  0
  3  4  1  0  0  0
  3  5  1  0  0  0
  3  6  1  0  0  0
  5 36  1  0  0  0
  5 37  1  0  0  0
  5 38  1  0  0  0
  6  7  1  0  0  0
  6  8  1  0  0  0
  6 48  1  0  0  0
  8  9  2  0  0  0
  8 10  1  0  0  0
 10 11  1  0  0  0
 11 16  2  0  0  0
 11 12  1  0  0  0
 12 13  2  0  0  0
 12 39  1  0  0  0
 13 14  1  0  0  0
 13 40  1  0  0  0
 14 20  1  0  0  0
 14 15  2  0  0  0
 15 16  1  0  0  0
 15 17  1  0  0  0
 16 41  1  0  0  0
 17 18  1  0  0  0
 18 19  2  0  0  0
 18 42  1  0  0  0
 19 20  1  0  0  0
 19 22  1  0  0  0
 20 21  2  0  0  0
 22 23  1  0  0  0
 23 28  2  0  0  0
 23 24  1  0  0  0
 24 25  2  0  0  0
 24 43  1  0  0  0
 25 26  1  0  0  0
 25 44  1  0  0  0
 26 27  2  0  0  0
 26 30  1  0  0  0
 27 28  1  0  0  0
 27 45  1  0  0  0
 28 29  1  0  0  0
 46 48  1  0  0  0
 47 48  1  0  0  0
 48 49  1  0  0  0
M  CHG  1  48   1
M  END
> <i_i_glide_confnum>
126

> <i_i_glide_lignum>
4870

> <i_i_glide_posenum>
115

> <i_i_glide_rotatable_bonds>
7

> <i_m_Source_File_Index>
3622

> <b_m_subgroup_collapsed>
0

> <r_i_docking_score>
-6.04994

> <r_i_glide_ecoul>
-5.46883

> <r_i_glide_eff_state_penalty>
0

> <r_i_glide_einternal>
7.90383

> <r_i_glide_emodel>
-63.896

> <r_i_glide_energy>
-48.4412

> <r_i_glide_erotb>
0.625654

> <r_i_glide_esite>
-0.130769

> <r_i_glide_evdw>
-42.9723

> <r_i_glide_gscore>
-6.04994

> <r_i_glide_hbond>
-0.546154

> <r_i_glide_ligand_efficiency>
-0.208619

> <r_i_glide_ligand_efficiency_ln>
-1.38528

> <r_i_glide_ligand_efficiency_sa>
-0.640943

> <r_i_glide_lipo>
-3.1021

> <r_i_glide_metal>
0

> <r_i_glide_rewards>
0.07237

> <s_i_glide_gridfile>
wee1_glide-grid

> <s_m_Source_File>
wee1_decoys_glide_SP.sdf

> <s_m_Source_Path>
/Users/zhangxujun/Desktop

> <s_m_entry_id>
3897

> <s_m_entry_name>
wee1_decoys_glide_SP.3622

> <s_m_subgroup_title>
wee1_decoys_glide_SP

> <s_m_subgroupid>
wee1_decoys_glide_SP


$$$$
