@<TRIPOS>MOLECULE
ZINC38621037_3992
66   70    1
SMALL
USER_CHARGES


@<TRIPOS>ATOM
      1 C1         -8.2403   45.3561   28.8890 C.3       1 UNK         0.0000 
      2 C2         -6.9556   46.1318   29.1153 C.ar      1 UNK         0.0000 
      3 C3         -6.7905   46.8975   30.2720 C.ar      1 UNK         0.0000 
      4 C4         -5.6162   47.6217   30.4691 C.ar      1 UNK         0.0000 
      5 C5         -4.6025   47.5834   29.5125 C.ar      1 UNK         0.0000 
      6 C6         -4.7487   46.8229   28.3494 C.ar      1 UNK         0.0000 
      7 C7         -5.9406   46.1017   28.1541 C.ar      1 UNK         0.0000 
      8 N8         -3.6956   46.8968   27.4165 N.am      1 UNK         0.0000 
      9 C9         -3.4878   46.1265   26.3163 C.2       1 UNK         0.0000 
     10 O10        -4.0962   45.0773   26.0798 O.2       1 UNK         0.0000 
     11 C11        -2.4842   46.6262   25.3179 C.2       1 UNK         0.0000 
     12 O12        -2.4091   46.1056   24.1998 O.2       1 UNK         0.0000 
     13 N13        -1.6870   47.6525   25.6817 N.am      1 UNK         0.0000 
     14 C14        -0.7229   48.3139   24.7935 C.3       1 UNK         0.0000 
     15 C15        -0.5770   49.8525   25.0151 C.3       1 UNK         0.0000 
     16 H16         0.0388   49.9929   25.9067 H         1 UNK         0.0000 
     17 C17        -1.9571   50.4946   25.2484 C.ar      1 UNK         0.0000 
     18 C18        -2.8223   50.7830   24.1692 C.ar      1 UNK         0.0000 
     19 C19        -4.1081   51.2969   24.3884 C.ar      1 UNK         0.0000 
     20 C20        -4.5067   51.4854   25.7065 C.ar      1 UNK         0.0000 
     21 C21        -3.6780   51.2088   26.7568 C.ar      1 UNK         0.0000 
     22 C22        -2.3891   50.7260   26.5664 C.ar      1 UNK         0.0000 
     23 O23        -4.3206   51.4865   27.9210 O.3       1 UNK         0.0000 
     24 C24        -5.6593   51.6950   27.5602 C.3       1 UNK         0.0000 
     25 O25        -5.6906   51.9535   26.1819 O.3       1 UNK         0.0000 
     26 N26         0.1172   50.5275   23.8882 N.3       1 UNK         0.0000 
     27 C27         0.5356   51.8819   24.2796 C.3       1 UNK         0.0000 
     28 C28         1.1609   52.6512   23.0939 C.3       1 UNK         0.0000 
     29 N29         2.3047   51.9580   22.4789 N.pl3     1 UNK         0.0000 
     30 C30         1.9629   50.5519   22.2050 C.3       1 UNK         0.0000 
     31 C31         1.3049   49.8150   23.3914 C.3       1 UNK         0.0000 
     32 C32         3.2035   52.6617   21.6763 C.ar      1 UNK         0.0000 
     33 C33         3.5063   52.2258   20.3751 C.ar      1 UNK         0.0000 
     34 C34         4.4400   52.8968   19.5881 C.ar      1 UNK         0.0000 
     35 C35         5.1049   54.0106   20.0911 C.ar      1 UNK         0.0000 
     36 C36         4.8441   54.4426   21.3882 C.ar      1 UNK         0.0000 
     37 C37         3.9087   53.7731   22.1797 C.ar      1 UNK         0.0000 
     38 F38         3.7229   54.2034   23.4510 F         1 UNK         0.0000 
     39 H39        -8.1058   44.3056   29.1469 H         1 UNK         0.0000 
     40 H40        -8.5417   45.4133   27.8422 H         1 UNK         0.0000 
     41 H41        -9.0647   45.7643   29.4755 H         1 UNK         0.0000 
     42 H42        -7.5709   46.9365   31.0182 H         1 UNK         0.0000 
     43 H43        -5.4921   48.2211   31.3587 H         1 UNK         0.0000 
     44 H44        -3.7023   48.1595   29.6795 H         1 UNK         0.0000 
     45 H45        -6.1097   45.5293   27.2556 H         1 UNK         0.0000 
     46 H46        -3.0300   47.6381   27.6191 H         1 UNK         0.0000 
     47 H47        -1.6955   47.9929   26.6442 H         1 UNK         0.0000 
     48 H48         0.2434   47.8235   24.9252 H         1 UNK         0.0000 
     49 H49        -0.9955   48.1430   23.7492 H         1 UNK         0.0000 
     50 H50        -2.4956   50.5939   23.1568 H         1 UNK         0.0000 
     51 H51        -4.7671   51.5133   23.5611 H         1 UNK         0.0000 
     52 H52        -1.7526   50.4972   27.4097 H         1 UNK         0.0000 
     53 H53        -6.0955   52.5208   28.1216 H         1 UNK         0.0000 
     54 H54        -6.2319   50.7888   27.7711 H         1 UNK         0.0000 
     55 H55        -0.3287   52.4534   24.6206 H         1 UNK         0.0000 
     56 H56         1.2593   51.8425   25.0962 H         1 UNK         0.0000 
     57 H57         1.4256   53.6569   23.4169 H         1 UNK         0.0000 
     58 H58         0.3927   52.7611   22.3267 H         1 UNK         0.0000 
     59 H59         2.8475   49.9974   21.8884 H         1 UNK         0.0000 
     60 H60         1.2511   50.5401   21.3778 H         1 UNK         0.0000 
     61 H61         2.0416   49.6975   24.1850 H         1 UNK         0.0000 
     62 H62         1.0392   48.8249   23.0241 H         1 UNK         0.0000 
     63 H63         3.0152   51.3638   19.9479 H         1 UNK         0.0000 
     64 H64         4.6529   52.5393   18.5896 H         1 UNK         0.0000 
     65 H65         5.8297   54.5277   19.4795 H         1 UNK         0.0000 
     66 H66         5.3756   55.2948   21.7845 H         1 UNK         0.0000 
@<TRIPOS>BOND
     1    1    2 1    
     2    1   39 1    
     3    1   40 1    
     4    1   41 1    
     5    2    7 ar   
     6    2    3 ar   
     7    3    4 ar   
     8    3   42 1    
     9    4    5 ar   
    10    4   43 1    
    11    5    6 ar   
    12    5   44 1    
    13    6    7 ar   
    14    6    8 1    
    15    7   45 1    
    16    8    9 am   BACKBONE|DICT|INTERRES
    17    8   46 1    
    18    9   10 2    
    19    9   11 1    
    20   11   12 2    
    21   11   13 am   BACKBONE|DICT|INTERRES
    22   13   14 1    
    23   13   47 1    
    24   14   15 1    
    25   14   48 1    
    26   14   49 1    
    27   15   16 1    
    28   15   17 1    
    29   15   26 1    
    30   17   22 ar   
    31   17   18 ar   
    32   18   19 ar   
    33   18   50 1    
    34   19   20 ar   
    35   19   51 1    
    36   20   25 1    
    37   20   21 ar   
    38   21   22 ar   
    39   21   23 1    
    40   22   52 1    
    41   23   24 1    
    42   24   25 1    
    43   24   53 1    
    44   24   54 1    
    45   26   31 1    
    46   26   27 1    
    47   27   28 1    
    48   27   55 1    
    49   27   56 1    
    50   28   29 1    
    51   28   57 1    
    52   28   58 1    
    53   29   30 1    
    54   29   32 1    
    55   30   31 1    
    56   30   59 1    
    57   30   60 1    
    58   31   61 1    
    59   31   62 1    
    60   32   37 ar   
    61   32   33 ar   
    62   33   34 ar   
    63   33   63 1    
    64   34   35 ar   
    65   34   64 1    
    66   35   36 ar   
    67   35   65 1    
    68   36   37 ar   
    69   36   66 1    
    70   37   38 1    
@<TRIPOS>SUBSTRUCTURE
     1 UNK         1 GROUP             0       ****    0 ROOT    
