ZINC20183141_6038
                    3D
 Schrodinger Suite 2024-2.
 67 71  0  0  1  0            999 V2000
   12.2249   49.8385   16.6740 C   0  0  0  0  0  0
   11.0002   50.2590   15.8840 C   0  0  0  0  0  0
   10.6966   49.6268   14.6798 C   0  0  0  0  0  0
    9.5712   50.0103   13.9549 C   0  0  0  0  0  0
    8.7419   51.0381   14.4158 C   0  0  0  0  0  0
    9.0606   51.7131   15.6138 C   0  0  0  0  0  0
   10.1826   51.2944   16.3436 C   0  0  0  0  0  0
    8.2500   52.7229   16.1253 N   0  0  0  0  0  0
    8.8135   53.9837   16.6376 C   0  0  0  0  0  0
    8.4196   54.3529   18.0863 C   0  0  0  0  0  0
    6.9565   54.2082   18.2901 N   0  0  0  0  0  0
    6.1392   53.5790   17.2287 C   0  0  0  0  0  0
    6.9324   52.3780   16.6743 C   0  0  0  0  0  0
    6.3565   54.6579   19.4437 C   0  0  0  0  0  0
    6.7047   56.1717   20.0858 S   0  0  0  0  0  0
    5.5043   53.7507   20.0232 N   0  0  0  0  0  0
    4.8405   53.7557   21.2662 C   0  0  0  0  0  0
    3.5045   53.3531   21.2904 C   0  0  0  0  0  0
    2.7867   53.3187   22.4855 C   0  0  0  0  0  0
    3.4308   53.6975   23.6828 C   0  0  0  0  0  0
    4.7986   54.1024   23.6974 C   0  0  0  0  0  0
    5.4951   54.0965   22.4586 C   0  0  0  0  0  0
    5.3812   54.4960   24.9427 C   0  0  0  0  0  0
    4.6128   54.4438   26.1091 C   0  0  0  0  0  0
    3.2912   53.9940   26.0736 C   0  0  0  0  0  0
    2.7591   53.6617   24.8816 N   0  3  0  0  0  0
    2.4904   53.8729   27.2538 N   0  0  0  0  0  0
    1.2377   53.0945   27.3391 C   0  0  0  0  0  0
    0.6097   53.5565   28.6480 C   0  0  0  0  0  0
    1.8077   53.7732   29.5414 C   0  0  0  0  0  0
    2.8782   54.3367   28.6059 C   0  0  0  0  0  0
    6.8264   54.9655   25.0051 C   0  0  0  0  0  0
    7.5496   51.4339   13.5508 C   0  0  0  0  0  0
   12.5178   50.5973   17.4015 H   0  0  0  0  0  0
   12.0424   48.8968   17.1910 H   0  0  0  0  0  0
   13.0726   49.6903   16.0019 H   0  0  0  0  0  0
   11.3282   48.8390   14.2961 H   0  0  0  0  0  0
    9.3572   49.5092   13.0224 H   0  0  0  0  0  0
   10.4181   51.7754   17.2816 H   0  0  0  0  0  0
    9.8987   53.9951   16.5356 H   0  0  0  0  0  0
    8.4281   54.7479   15.9617 H   0  0  0  0  0  0
    8.9388   53.6980   18.7824 H   0  0  0  0  0  0
    8.7691   55.3647   18.2981 H   0  0  0  0  0  0
    5.9237   54.2985   16.4383 H   0  0  0  0  0  0
    5.1749   53.2235   17.5910 H   0  0  0  0  0  0
    6.3193   51.8777   15.9252 H   0  0  0  0  0  0
    7.1044   51.6967   17.5105 H   0  0  0  0  0  0
    5.2036   53.0031   19.4128 H   0  0  0  0  0  0
    3.0050   53.0835   20.3695 H   0  0  0  0  0  0
    1.7500   53.0158   22.4949 H   0  0  0  0  0  0
    6.5389   54.3760   22.4364 H   0  0  0  0  0  0
    5.0580   54.7305   27.0511 H   0  0  0  0  0  0
    0.5840   53.2966   26.4908 H   0  0  0  0  0  0
    1.4949   52.0335   27.3429 H   0  0  0  0  0  0
    0.0720   54.4957   28.5012 H   0  0  0  0  0  0
   -0.0964   52.8278   29.0505 H   0  0  0  0  0  0
    2.1377   52.8180   29.9559 H   0  0  0  0  0  0
    1.5879   54.4371   30.3793 H   0  0  0  0  0  0
    3.8753   53.9836   28.8689 H   0  0  0  0  0  0
    2.8716   55.4277   28.5977 H   0  0  0  0  0  0
    7.1039   55.2460   26.0201 H   0  0  0  0  0  0
    7.5002   54.1746   24.6746 H   0  0  0  0  0  0
    6.9801   55.8300   24.3590 H   0  0  0  0  0  0
    7.3300   52.4992   13.6367 H   0  0  0  0  0  0
    7.7558   51.2495   12.4949 H   0  0  0  0  0  0
    6.6621   50.8651   13.8289 H   0  0  0  0  0  0
    1.8025   53.3446   24.8726 H   0  0  0  0  0  0
  1  2  1  0  0  0
  1 34  1  0  0  0
  1 35  1  0  0  0
  1 36  1  0  0  0
  2  7  2  0  0  0
  2  3  1  0  0  0
  3  4  2  0  0  0
  3 37  1  0  0  0
  4  5  1  0  0  0
  4 38  1  0  0  0
  5  6  2  0  0  0
  5 33  1  0  0  0
  6  7  1  0  0  0
  6  8  1  0  0  0
  7 39  1  0  0  0
  8 13  1  0  0  0
  8  9  1  0  0  0
  9 10  1  0  0  0
  9 40  1  0  0  0
  9 41  1  0  0  0
 10 11  1  0  0  0
 10 42  1  0  0  0
 10 43  1  0  0  0
 11 12  1  0  0  0
 11 14  1  0  0  0
 12 13  1  0  0  0
 12 44  1  0  0  0
 12 45  1  0  0  0
 13 46  1  0  0  0
 13 47  1  0  0  0
 14 15  2  0  0  0
 14 16  1  0  0  0
 16 17  1  0  0  0
 16 48  1  0  0  0
 17 22  2  0  0  0
 17 18  1  0  0  0
 18 19  2  0  0  0
 18 49  1  0  0  0
 19 20  1  0  0  0
 19 50  1  0  0  0
 20 26  2  0  0  0
 20 21  1  0  0  0
 21 22  1  0  0  0
 21 23  2  0  0  0
 22 51  1  0  0  0
 23 24  1  0  0  0
 23 32  1  0  0  0
 24 25  2  0  0  0
 24 52  1  0  0  0
 25 26  1  0  0  0
 25 27  1  0  0  0
 26 67  1  0  0  0
 27 31  1  0  0  0
 27 28  1  0  0  0
 28 29  1  0  0  0
 28 53  1  0  0  0
 28 54  1  0  0  0
 29 30  1  0  0  0
 29 55  1  0  0  0
 29 56  1  0  0  0
 30 31  1  0  0  0
 30 57  1  0  0  0
 30 58  1  0  0  0
 31 59  1  0  0  0
 31 60  1  0  0  0
 32 61  1  0  0  0
 32 62  1  0  0  0
 32 63  1  0  0  0
 33 64  1  0  0  0
 33 65  1  0  0  0
 33 66  1  0  0  0
M  CHG  1  26   1
M  END
> <i_i_glide_confnum>
890

> <i_i_glide_lignum>
6039

> <i_i_glide_posenum>
69

> <i_i_glide_rotatable_bonds>
5

> <i_m_Source_File_Index>
2874

> <b_m_subgroup_collapsed>
0

> <r_i_docking_score>
-5.72975

> <r_i_glide_ecoul>
-2.0665

> <r_i_glide_eff_state_penalty>
0

> <r_i_glide_einternal>
7.49256

> <r_i_glide_emodel>
-57.3597

> <r_i_glide_energy>
-45.8931

> <r_i_glide_erotb>
0.474306

> <r_i_glide_esite>
-0.0224354

> <r_i_glide_evdw>
-43.8266

> <r_i_glide_gscore>
-5.72975

> <r_i_glide_hbond>
0

> <r_i_glide_ligand_efficiency>
-0.173629

> <r_i_glide_ligand_efficiency_ln>
-1.27427

> <r_i_glide_ligand_efficiency_sa>
-0.556921

> <r_i_glide_lipo>
-3.13995

> <r_i_glide_metal>
0

> <r_i_glide_rewards>
-0.54037

> <s_i_glide_gridfile>
wee1_glide-grid

> <s_m_Source_File>
wee1_decoys_glide_SP.sdf

> <s_m_Source_Path>
/Users/zhangxujun/Desktop

> <s_m_entry_id>
3149

> <s_m_entry_name>
wee1_decoys_glide_SP.2874

> <s_m_subgroup_title>
wee1_decoys_glide_SP

> <s_m_subgroupid>
wee1_decoys_glide_SP


$$$$
