@<TRIPOS>MOLECULE
ZINC36185372_5401
78   83    1
SMALL
USER_CHARGES


@<TRIPOS>ATOM
      1 C1          3.6107   54.4705   23.5578 C.3       1 UNK         0.0000 
      2 C2          2.4190   53.4851   23.6779 C.3       1 UNK         0.0000 
      3 C3          2.5029   52.8936   25.1054 C.3       1 UNK         0.0000 
      4 C4          1.1074   54.2684   23.5964 C.3       1 UNK         0.0000 
      5 C5          2.3980   52.4469   22.5246 C.ar      1 UNK         0.0000 
      6 C6          2.7825   52.8441   21.2377 C.ar      1 UNK         0.0000 
      7 C7          2.6475   51.9916   20.1506 C.ar      1 UNK         0.0000 
      8 C8          2.1358   50.7051   20.3219 C.ar      1 UNK         0.0000 
      9 C9          1.7955   50.2716   21.6099 C.ar      1 UNK         0.0000 
     10 C10         1.9114   51.1398   22.6976 C.ar      1 UNK         0.0000 
     11 C11         1.8961   49.8492   19.1035 C.2       1 UNK         0.0000 
     12 O12         1.4618   50.3676   18.0693 O.2       1 UNK         0.0000 
     13 N13         2.2132   48.5400   19.2228 N.am      1 UNK         0.0000 
     14 N14         2.0214   47.6737   18.1309 N.am      1 UNK         0.0000 
     15 C15         0.7926   47.1789   17.8414 C.2       1 UNK         0.0000 
     16 O16        -0.2088   47.3975   18.5345 O.2       1 UNK         0.0000 
     17 C17         0.7025   46.2821   16.5820 C.3       1 UNK         0.0000 
     18 H18         1.1210   46.8625   15.7570 H         1 UNK         0.0000 
     19 C19        -0.7511   45.8135   16.2842 C.3       1 UNK         0.0000 
     20 H20        -1.1715   45.3800   17.1976 H         1 UNK         0.0000 
     21 C21        -0.7528   44.7946   15.1522 C.3       1 UNK         0.0000 
     22 H22        -0.3345   45.1784   14.2174 H         1 UNK         0.0000 
     23 C23         0.0851   43.6258   15.6831 C.3       1 UNK         0.0000 
     24 H24        -0.2925   43.2558   16.6400 H         1 UNK         0.0000 
     25 C25         1.4862   44.1674   15.8434 C.3       1 UNK         0.0000 
     26 H26         1.8821   44.6059   14.9214 H         1 UNK         0.0000 
     27 O27         1.5059   45.1150   16.8827 O.3       1 UNK         0.0000 
     28 O28         2.1680   43.0116   16.1496 O.3       1 UNK         0.0000 
     29 C29         1.6094   42.0053   15.3370 C.3       1 UNK         0.0000 
     30 O30         0.4185   42.5559   14.8270 O.3       1 UNK         0.0000 
     31 C31         1.3230   40.7598   16.1901 C.3       1 UNK         0.0000 
     32 C32         2.6407   40.2035   16.7795 C.3       1 UNK         0.0000 
     33 C33         3.6863   39.9126   15.6800 C.3       1 UNK         0.0000 
     34 C34         3.9027   41.1209   14.7416 C.3       1 UNK         0.0000 
     35 C35         2.5613   41.6535   14.1851 C.3       1 UNK         0.0000 
     36 O36        -2.1484   44.6413   15.0097 O.3       1 UNK         0.0000 
     37 C37        -2.7206   45.9063   15.2445 C.3       1 UNK         0.0000 
     38 O38        -1.6728   46.7131   15.7275 O.3       1 UNK         0.0000 
     39 C39        -3.8479   45.8031   16.2848 C.3       1 UNK         0.0000 
     40 C40        -4.4283   47.2057   16.5780 C.3       1 UNK         0.0000 
     41 C41        -4.9077   47.9068   15.2883 C.3       1 UNK         0.0000 
     42 C42        -3.8214   47.9201   14.1904 C.3       1 UNK         0.0000 
     43 C43        -3.2448   46.5072   13.9346 C.3       1 UNK         0.0000 
     44 H44         3.6935   55.1065   24.4402 H         1 UNK         0.0000 
     45 H45         3.5075   55.1401   22.7050 H         1 UNK         0.0000 
     46 H46         4.5581   53.9401   23.4552 H         1 UNK         0.0000 
     47 H47         1.7609   52.1229   25.3034 H         1 UNK         0.0000 
     48 H48         3.4918   52.4985   25.3071 H         1 UNK         0.0000 
     49 H49         2.3462   53.6602   25.8658 H         1 UNK         0.0000 
     50 H50         0.2369   53.6122   23.5582 H         1 UNK         0.0000 
     51 H51         0.9917   54.8966   24.4718 H         1 UNK         0.0000 
     52 H52         1.1044   54.8976   22.7088 H         1 UNK         0.0000 
     53 H53         3.1361   53.8425   21.0359 H         1 UNK         0.0000 
     54 H54         2.9165   52.3499   19.1662 H         1 UNK         0.0000 
     55 H55         1.3858   49.2858   21.7748 H         1 UNK         0.0000 
     56 H56         1.5920   50.7821   23.6623 H         1 UNK         0.0000 
     57 H57         2.3108   48.0553   20.1033 H         1 UNK         0.0000 
     58 H58         2.8391   47.5993   17.5352 H         1 UNK         0.0000 
     59 H59         0.6052   41.0060   16.9715 H         1 UNK         0.0000 
     60 H60         0.8715   40.0003   15.5497 H         1 UNK         0.0000 
     61 H61         3.0543   40.9162   17.4965 H         1 UNK         0.0000 
     62 H62         2.4385   39.2924   17.3447 H         1 UNK         0.0000 
     63 H63         4.6335   39.6155   16.1332 H         1 UNK         0.0000 
     64 H64         3.3562   39.0561   15.0894 H         1 UNK         0.0000 
     65 H65         4.4257   41.9140   15.2811 H         1 UNK         0.0000 
     66 H66         4.5582   40.8353   13.9163 H         1 UNK         0.0000 
     67 H67         2.0941   40.8744   13.5804 H         1 UNK         0.0000 
     68 H68         2.6974   42.5171   13.5368 H         1 UNK         0.0000 
     69 H69        -4.6368   45.1708   15.8736 H         1 UNK         0.0000 
     70 H70        -3.4808   45.3187   17.1905 H         1 UNK         0.0000 
     71 H71        -5.2551   47.1255   17.2844 H         1 UNK         0.0000 
     72 H72        -3.6711   47.8194   17.0694 H         1 UNK         0.0000 
     73 H73        -5.7944   47.3962   14.9114 H         1 UNK         0.0000 
     74 H74        -5.2223   48.9280   15.5120 H         1 UNK         0.0000 
     75 H75        -4.2332   48.3239   13.2646 H         1 UNK         0.0000 
     76 H76        -3.0168   48.5979   14.4809 H         1 UNK         0.0000 
     77 H77        -2.4420   46.5265   13.1954 H         1 UNK         0.0000 
     78 H78        -4.0349   45.8617   13.5489 H         1 UNK         0.0000 
@<TRIPOS>BOND
     1    1    2 1    
     2    1   44 1    
     3    1   45 1    
     4    1   46 1    
     5    2    3 1    
     6    2    4 1    
     7    2    5 1    
     8    3   47 1    
     9    3   48 1    
    10    3   49 1    
    11    4   50 1    
    12    4   51 1    
    13    4   52 1    
    14    5   10 ar   
    15    5    6 ar   
    16    6    7 ar   
    17    6   53 1    
    18    7    8 ar   
    19    7   54 1    
    20    8    9 ar   
    21    8   11 1    
    22    9   10 ar   
    23    9   55 1    
    24   10   56 1    
    25   11   12 2    
    26   11   13 am   BACKBONE|DICT|INTERRES
    27   13   14 1    
    28   13   57 1    
    29   14   15 am   BACKBONE|DICT|INTERRES
    30   14   58 1    
    31   15   16 2    
    32   15   17 1    
    33   17   18 1    
    34   17   27 1    
    35   17   19 1    
    36   19   20 1    
    37   19   38 1    
    38   19   21 1    
    39   21   22 1    
    40   21   23 1    
    41   21   36 1    
    42   23   24 1    
    43   23   30 1    
    44   23   25 1    
    45   25   26 1    
    46   25   27 1    
    47   25   28 1    
    48   28   29 1    
    49   29   35 1    
    50   29   30 1    
    51   29   31 1    
    52   31   32 1    
    53   31   59 1    
    54   31   60 1    
    55   32   33 1    
    56   32   61 1    
    57   32   62 1    
    58   33   34 1    
    59   33   63 1    
    60   33   64 1    
    61   34   35 1    
    62   34   65 1    
    63   34   66 1    
    64   35   67 1    
    65   35   68 1    
    66   36   37 1    
    67   37   43 1    
    68   37   38 1    
    69   37   39 1    
    70   39   40 1    
    71   39   69 1    
    72   39   70 1    
    73   40   41 1    
    74   40   71 1    
    75   40   72 1    
    76   41   42 1    
    77   41   73 1    
    78   41   74 1    
    79   42   43 1    
    80   42   75 1    
    81   42   76 1    
    82   43   77 1    
    83   43   78 1    
@<TRIPOS>SUBSTRUCTURE
     1 UNK         1 GROUP             0       ****    0 ROOT    
