@<TRIPOS>MOLECULE
ZINC63323716_3088
63   67    1
SMALL
USER_CHARGES


@<TRIPOS>ATOM
      1 C1         -1.7541   43.5938   16.8622 C.3       1 UNK         0.0000 
      2 O2         -0.4797   44.0356   16.4078 O.3       1 UNK         0.0000 
      3 C3          0.0256   45.2319   16.8787 C.ar      1 UNK         0.0000 
      4 C4          1.2416   45.6475   16.3381 C.ar      1 UNK         0.0000 
      5 C5          1.8290   46.8398   16.7507 C.ar      1 UNK         0.0000 
      6 C6          1.2055   47.6312   17.7165 C.ar      1 UNK         0.0000 
      7 C7         -0.0147   47.2191   18.2700 C.ar      1 UNK         0.0000 
      8 C8         -0.6011   46.0282   17.8493 C.ar      1 UNK         0.0000 
      9 N9          1.9044   48.7907   18.0912 N.am      1 UNK         0.0000 
     10 C10         1.5670   49.7768   18.9512 C.2       1 UNK         0.0000 
     11 O11         0.4627   49.9076   19.4806 O.2       1 UNK         0.0000 
     12 C12         2.7046   50.7640   19.2481 C.3       1 UNK         0.0000 
     13 S13         2.2738   52.3396   20.0684 S.3       1 UNK         0.0000 
     14 C14         2.0785   51.8695   21.8077 C.2       1 UNK         0.0000 
     15 N15         1.9248   50.7084   22.2717 N.2       1 UNK         0.0000 
     16 N16         1.4863   50.8692   23.5910 N.pl3     1 UNK         0.0000 
     17 C17         1.7771   52.2177   24.0606 C.3       1 UNK         0.0000 
     18 H18         2.7045   52.1711   24.6247 H         1 UNK         0.0000 
     19 N19         1.9932   52.8549   22.7693 N.pl3     1 UNK         0.0000 
     20 C20         2.6270   54.1775   22.7214 C.3       1 UNK         0.0000 
     21 C21         4.0123   54.2299   23.3559 C.ar      1 UNK         0.0000 
     22 C22         4.1446   54.4943   24.7238 C.ar      1 UNK         0.0000 
     23 C23         5.4088   54.6024   25.2951 C.ar      1 UNK         0.0000 
     24 C24         6.5369   54.4580   24.4930 C.ar      1 UNK         0.0000 
     25 C25         6.4134   54.1898   23.1325 C.ar      1 UNK         0.0000 
     26 C26         5.1493   54.0601   22.5630 C.ar      1 UNK         0.0000 
     27 C27         0.7155   52.9511   24.9056 C.3       1 UNK         0.0000 
     28 C28         0.3144   52.3109   26.2230 C.2       1 UNK         0.0000 
     29 C29         0.4680   52.7227   27.5009 C.2       1 UNK         0.0000 
     30 C30         1.1513   53.8926   28.0797 C.2       1 UNK         0.0000 
     31 C31         1.1285   54.1241   29.4089 C.2       1 UNK         0.0000 
     32 C32         0.4108   53.1802   30.2561 C.2       1 UNK         0.0000 
     33 C33        -0.2253   52.0970   29.7403 C.2       1 UNK         0.0000 
     34 C34        -0.2124   51.8584   28.3606 C.2       1 UNK         0.0000 
     35 N35        -0.7783   50.8967   27.6817 N.pl3     1 UNK         0.0000 
     36 C36        -0.5010   51.0381   26.2505 C.3       1 UNK         0.0000 
     37 H37        -2.0068   42.6568   16.3661 H         1 UNK         0.0000 
     38 H38        -2.5373   44.3150   16.6224 H         1 UNK         0.0000 
     39 H39        -1.7539   43.4083   17.9375 H         1 UNK         0.0000 
     40 H40         1.7322   45.0401   15.5922 H         1 UNK         0.0000 
     41 H41         2.7747   47.1431   16.3207 H         1 UNK         0.0000 
     42 H42        -0.5219   47.7948   19.0276 H         1 UNK         0.0000 
     43 H43        -1.5408   45.7388   18.2923 H         1 UNK         0.0000 
     44 H44         2.8099   48.8965   17.6252 H         1 UNK         0.0000 
     45 H45         3.4728   50.2520   19.8273 H         1 UNK         0.0000 
     46 H46         3.1463   51.0390   18.2912 H         1 UNK         0.0000 
     47 H47         1.8629   50.0982   24.1269 H         1 UNK         0.0000 
     48 H48         2.7044   54.5251   21.6914 H         1 UNK         0.0000 
     49 H49         1.9776   54.8964   23.2196 H         1 UNK         0.0000 
     50 H50         3.2730   54.6309   25.3443 H         1 UNK         0.0000 
     51 H51         5.5134   54.8079   26.3504 H         1 UNK         0.0000 
     52 H52         7.5197   54.5529   24.9261 H         1 UNK         0.0000 
     53 H53         7.2996   54.0973   22.5229 H         1 UNK         0.0000 
     54 H54         5.0537   53.8599   21.5052 H         1 UNK         0.0000 
     55 H55         1.0859   53.9521   25.1219 H         1 UNK         0.0000 
     56 H56        -0.1915   53.0859   24.3145 H         1 UNK         0.0000 
     57 H57         1.6861   54.5945   27.4570 H         1 UNK         0.0000 
     58 H58         1.6221   54.9870   29.8325 H         1 UNK         0.0000 
     59 H59         0.3744   53.3438   31.3252 H         1 UNK         0.0000 
     60 H60        -0.7519   51.4323   30.4146 H         1 UNK         0.0000 
     61 H61        -1.4546   51.1034   25.7251 H         1 UNK         0.0000 
     62 H62         0.0415   50.1482   25.9277 H         1 UNK         0.0000 
     63 H63        -1.2959   50.1079   28.0816 H         1 UNK         0.0000 
@<TRIPOS>BOND
     1    1    2 1    
     2    1   37 1    
     3    1   38 1    
     4    1   39 1    
     5    2    3 1    
     6    3    8 ar   
     7    3    4 ar   
     8    4    5 ar   
     9    4   40 1    
    10    5    6 ar   
    11    5   41 1    
    12    6    7 ar   
    13    6    9 1    
    14    7    8 ar   
    15    7   42 1    
    16    8   43 1    
    17    9   10 am   BACKBONE|DICT|INTERRES
    18    9   44 1    
    19   10   11 2    
    20   10   12 1    
    21   12   13 1    
    22   12   45 1    
    23   12   46 1    
    24   13   14 1    
    25   14   19 1    
    26   14   15 2    
    27   15   16 1    
    28   16   17 1    
    29   16   47 1    
    30   17   18 1    
    31   17   19 1    
    32   17   27 1    
    33   19   20 1    
    34   20   21 1    
    35   20   48 1    
    36   20   49 1    
    37   21   26 ar   
    38   21   22 ar   
    39   22   23 ar   
    40   22   50 1    
    41   23   24 ar   
    42   23   51 1    
    43   24   25 ar   
    44   24   52 1    
    45   25   26 ar   
    46   25   53 1    
    47   26   54 1    
    48   27   28 1    
    49   27   55 1    
    50   27   56 1    
    51   28   36 1    
    52   28   29 2    
    53   29   34 1    
    54   29   30 1    
    55   30   31 2    
    56   30   57 1    
    57   31   32 1    
    58   31   58 1    
    59   32   33 2    
    60   32   59 1    
    61   33   34 1    
    62   33   60 1    
    63   34   35 2    
    64   35   36 1    
    65   35   63 1    
    66   36   61 1    
    67   36   62 1    
@<TRIPOS>SUBSTRUCTURE
     1 UNK         1 GROUP             0       ****    0 ROOT    
