ZINC14881248_5081
                    3D
 Schrodinger Suite 2024-2.
 73 77  0  0  1  0            999 V2000
    0.0092   55.5032   16.4358 C   0  0  0  0  0  0
   -0.4027   54.0627   16.1100 C   0  0  0  0  0  0
   -1.7483   53.6561   16.2511 C   0  0  0  0  0  0
   -2.1232   52.3274   15.9782 C   0  0  0  0  0  0
   -1.1462   51.4198   15.5440 C   0  0  0  0  0  0
    0.1748   51.8191   15.3882 C   0  0  0  0  0  0
    0.5596   53.1296   15.6690 C   0  0  0  0  0  0
    2.0272   53.4970   15.4843 C   0  0  0  0  0  0
    3.0700   52.3981   17.5182 C   0  0  0  0  0  0
    3.6599   52.7126   18.9044 C   0  0  0  0  0  0
    4.9172   53.6358   18.9118 C   0  0  1  0  0  0
    4.6237   54.8743   18.0165 C   0  0  0  0  0  0
    4.0367   54.5605   16.6285 C   0  0  0  0  0  0
    5.3526   54.1016   20.3260 C   0  0  0  0  0  0
    6.5064   54.8991   20.4478 C   0  0  0  0  0  0
    7.0164   55.2974   21.6876 C   0  0  0  0  0  0
    6.3048   54.8954   22.8188 C   0  0  0  0  0  0
    5.1140   54.1401   22.7414 C   0  0  0  0  0  0
    4.6487   53.7294   21.4875 C   0  0  0  0  0  0
    4.6772   53.9989   24.0889 C   0  0  0  0  0  0
    5.6373   54.6181   24.8884 C   0  0  0  0  0  0
    6.6213   55.1763   24.1181 O   0  0  0  0  0  0
    5.7431   54.7411   26.3227 C   0  0  0  0  0  0
    6.7048   55.2961   26.8517 O   0  0  0  0  0  0
    4.7116   54.2168   27.0074 N   0  0  0  0  0  0
    4.5681   54.2250   28.4687 C   0  0  0  0  0  0
    3.7372   53.0304   28.9879 C   0  0  2  0  0  0
    4.3276   52.1199   28.8635 H   0  0  0  0  0  0
    2.3941   52.8131   28.2903 C   0  0  0  0  0  0
    1.6025   52.0599   29.3300 C   0  0  0  0  0  0
    2.0900   52.6678   30.6466 C   0  0  0  0  0  0
    3.3765   53.2340   30.3560 O   0  0  0  0  0  0
    5.9517   52.8968   18.2781 O   0  0  0  0  0  0
   -3.4514   51.9746   16.1547 O   0  0  0  0  0  0
   -3.8711   50.6382   15.8915 C   0  0  0  0  0  0
   -2.8092   54.6567   16.7139 C   0  0  0  0  0  0
   -0.7941   56.2182   16.2665 H   0  0  0  0  0  0
    0.3247   55.5802   17.4762 H   0  0  0  0  0  0
    0.8172   55.8631   15.8020 H   0  0  0  0  0  0
   -1.3921   50.3934   15.3203 H   0  0  0  0  0  0
    0.9025   51.0922   15.0513 H   0  0  0  0  0  0
    2.1298   54.4035   14.8883 H   0  0  0  0  0  0
    2.5993   52.7170   14.9750 H   0  0  0  0  0  0
    3.7569   51.8304   16.8824 H   0  0  0  0  0  0
    2.1326   51.8495   17.6285 H   0  0  0  0  0  0
    3.9024   51.7754   19.4120 H   0  0  0  0  0  0
    2.8689   53.1488   19.5174 H   0  0  0  0  0  0
    3.9753   55.5687   18.5541 H   0  0  0  0  0  0
    5.5374   55.4504   17.8771 H   0  0  0  0  0  0
    4.7156   53.9775   15.9993 H   0  0  0  0  0  0
    3.7587   55.4865   16.1202 H   0  0  0  0  0  0
    7.0625   55.1663   19.5611 H   0  0  0  0  0  0
    7.9313   55.8674   21.7752 H   0  0  0  0  0  0
    3.7555   53.1292   21.4500 H   0  0  0  0  0  0
    3.7945   53.4817   24.4354 H   0  0  0  0  0  0
    3.9388   53.8320   26.4859 H   0  0  0  0  0  0
    4.0760   55.1593   28.7438 H   0  0  0  0  0  0
    5.5455   54.2193   28.9548 H   0  0  0  0  0  0
    2.4940   52.3009   27.3320 H   0  0  0  0  0  0
    1.9306   53.7738   28.0538 H   0  0  0  0  0  0
    1.8362   50.9961   29.2815 H   0  0  0  0  0  0
    0.5243   52.1674   29.1950 H   0  0  0  0  0  0
    2.1501   51.9038   31.4233 H   0  0  0  0  0  0
    1.4043   53.4645   30.9399 H   0  0  0  0  0  0
    5.7275   51.9459   18.2909 H   0  0  0  0  0  0
   -4.9405   50.5512   16.0860 H   0  0  0  0  0  0
   -3.7028   50.3623   14.8484 H   0  0  0  0  0  0
   -3.3599   49.9231   16.5394 H   0  0  0  0  0  0
   -3.7889   54.2109   16.8810 H   0  0  0  0  0  0
   -2.4994   55.1272   17.6465 H   0  0  0  0  0  0
   -2.9327   55.4448   15.9707 H   0  0  0  0  0  0
    2.7470   53.7412   16.8291 N   0  3  1  0  0  0
    2.1115   54.2636   17.4175 H   0  0  0  0  0  0
  1  2  1  0  0  0
  1 37  1  0  0  0
  1 38  1  0  0  0
  1 39  1  0  0  0
  2  7  2  0  0  0
  2  3  1  0  0  0
  3  4  2  0  0  0
  3 36  1  0  0  0
  4  5  1  0  0  0
  4 34  1  0  0  0
  5  6  2  0  0  0
  5 40  1  0  0  0
  6  7  1  0  0  0
  6 41  1  0  0  0
  7  8  1  0  0  0
  8 42  1  0  0  0
  8 43  1  0  0  0
  8 72  1  0  0  0
  9 10  1  0  0  0
  9 44  1  0  0  0
  9 45  1  0  0  0
  9 72  1  0  0  0
 10 11  1  0  0  0
 10 46  1  0  0  0
 10 47  1  0  0  0
 11 12  1  0  0  0
 11 14  1  0  0  0
 11 33  1  0  0  0
 12 13  1  0  0  0
 12 48  1  0  0  0
 12 49  1  0  0  0
 13 50  1  0  0  0
 13 51  1  0  0  0
 13 72  1  0  0  0
 14 19  2  0  0  0
 14 15  1  0  0  0
 15 16  2  0  0  0
 15 52  1  0  0  0
 16 17  1  0  0  0
 16 53  1  0  0  0
 17 22  1  0  0  0
 17 18  2  0  0  0
 18 19  1  0  0  0
 18 20  1  0  0  0
 19 54  1  0  0  0
 20 21  2  0  0  0
 20 55  1  0  0  0
 21 22  1  0  0  0
 21 23  1  0  0  0
 23 24  2  0  0  0
 23 25  1  0  0  0
 25 26  1  0  0  0
 25 56  1  0  0  0
 26 27  1  0  0  0
 26 57  1  0  0  0
 26 58  1  0  0  0
 27 28  1  0  0  0
 27 32  1  0  0  0
 27 29  1  0  0  0
 29 30  1  0  0  0
 29 59  1  0  0  0
 29 60  1  0  0  0
 30 31  1  0  0  0
 30 61  1  0  0  0
 30 62  1  0  0  0
 31 32  1  0  0  0
 31 63  1  0  0  0
 31 64  1  0  0  0
 33 65  1  0  0  0
 34 35  1  0  0  0
 35 66  1  0  0  0
 35 67  1  0  0  0
 35 68  1  0  0  0
 36 69  1  0  0  0
 36 70  1  0  0  0
 36 71  1  0  0  0
 72 73  1  0  0  0
M  CHG  1  72   1
M  END
> <i_i_glide_confnum>
289

> <i_i_glide_lignum>
5082

> <i_i_glide_posenum>
109

> <i_i_glide_rotatable_bonds>
9

> <i_m_Source_File_Index>
2303

> <b_m_subgroup_collapsed>
0

> <r_i_docking_score>
-6.60485

> <r_i_glide_ecoul>
-10.6865

> <r_i_glide_eff_state_penalty>
0

> <r_i_glide_einternal>
12.3456

> <r_i_glide_emodel>
-64.4181

> <r_i_glide_energy>
-47.9432

> <r_i_glide_erotb>
0.501678

> <r_i_glide_esite>
-0.00502079

> <r_i_glide_evdw>
-37.2567

> <r_i_glide_gscore>
-6.60485

> <r_i_glide_hbond>
-0.683719

> <r_i_glide_ligand_efficiency>
-0.183468

> <r_i_glide_ligand_efficiency_ln>
-1.441

> <r_i_glide_ligand_efficiency_sa>
-0.605798

> <r_i_glide_lipo>
-2.36486

> <r_i_glide_metal>
0

> <r_i_glide_rewards>
-0.58711

> <s_i_glide_gridfile>
wee1_glide-grid

> <s_m_Source_File>
wee1_decoys_glide_SP.sdf

> <s_m_Source_Path>
/Users/zhangxujun/Desktop

> <s_m_entry_id>
2578

> <s_m_entry_name>
wee1_decoys_glide_SP.2303

> <s_m_subgroup_title>
wee1_decoys_glide_SP

> <s_m_subgroupid>
wee1_decoys_glide_SP


$$$$
