@<TRIPOS>MOLECULE
ZINC50252566_1647
31   32    1
SMALL
USER_CHARGES


@<TRIPOS>ATOM
      1 C1         -0.7953   51.0600   27.6183 C.3       1 UNK         0.0000 
      2 N2          0.2128   51.7734   28.3849 N.pl3     1 UNK         0.0000 
      3 C3          1.5067   52.0319   28.0198 C.ar      1 UNK         0.0000 
      4 C4          2.0438   52.7948   29.0406 C.ar      1 UNK         0.0000 
      5 C5          0.9970   52.9135   29.9662 C.ar      1 UNK         0.0000 
      6 N6         -0.1058   52.3180   29.5675 N.2       1 UNK         0.0000 
      7 S7          3.6985   53.5173   29.1374 S.o2      1 UNK         0.0000 
      8 O8          4.5995   52.3934   28.8815 O.2       1 UNK         0.0000 
      9 O9          3.7330   54.0947   30.4809 O.2       1 UNK         0.0000 
     10 N10         3.6832   54.6040   28.0200 N.2       1 UNK         0.0000 
     11 C11         4.1321   54.3318   26.7508 C.ar      1 UNK         0.0000 
     12 C12         3.1722   54.1378   25.7517 C.ar      1 UNK         0.0000 
     13 C13         3.5240   54.0373   24.4081 C.ar      1 UNK         0.0000 
     14 C14         4.8654   54.0978   24.0246 C.ar      1 UNK         0.0000 
     15 C15         5.8459   54.2307   25.0141 C.ar      1 UNK         0.0000 
     16 C16         5.4944   54.3510   26.3616 C.ar      1 UNK         0.0000 
     17 N17         6.5364   54.5171   27.2819 N.pl3     1 UNK         0.0000 
     18 C18         5.2537   54.0390   22.5478 C.3       1 UNK         0.0000 
     19 F19         4.2750   54.4966   21.7669 F         1 UNK         0.0000 
     20 F20         5.5037   52.7756   22.2102 F         1 UNK         0.0000 
     21 F21         6.3434   54.7690   22.3101 F         1 UNK         0.0000 
     22 H22        -1.0704   51.6555   26.7495 H         1 UNK         0.0000 
     23 H23        -0.3986   50.0963   27.2883 H         1 UNK         0.0000 
     24 H24        -1.6857   50.8875   28.2267 H         1 UNK         0.0000 
     25 H25         1.9066   51.6912   27.0778 H         1 UNK         0.0000 
     26 H26         1.0413   53.4478   30.9038 H         1 UNK         0.0000 
     27 H27         2.1251   54.1138   26.0159 H         1 UNK         0.0000 
     28 H28         2.7455   53.9252   23.6669 H         1 UNK         0.0000 
     29 H29         6.8876   54.2658   24.7279 H         1 UNK         0.0000 
     30 H30         6.2544   54.5634   28.2533 H         1 UNK         0.0000 
     31 H31         7.4324   54.1197   27.0460 H         1 UNK         0.0000 
@<TRIPOS>BOND
     1    1    2 1    
     2    1   22 1    
     3    1   23 1    
     4    1   24 1    
     5    2    6 ar   
     6    2    3 ar   
     7    3    4 ar   
     8    3   25 1    
     9    4    5 ar   
    10    4    7 1    
    11    5    6 ar   
    12    5   26 1    
    13    7    8 2    
    14    7    9 2    
    15    7   10 1    
    16   10   11 1    
    17   11   16 ar   
    18   11   12 ar   
    19   12   13 ar   
    20   12   27 1    
    21   13   14 ar   
    22   13   28 1    
    23   14   15 ar   
    24   14   18 1    
    25   15   16 ar   
    26   15   29 1    
    27   16   17 1    
    28   17   30 1    
    29   17   31 1    
    30   18   19 1    
    31   18   20 1    
    32   18   21 1    
@<TRIPOS>SUBSTRUCTURE
     1 UNK         1 GROUP             0       ****    0 ROOT    
