ZINC58278104_4601
                    3D
 Schrodinger Suite 2024-2.
 51 53  0  0  1  0            999 V2000
    4.5110   54.7612   29.0507 C   0  0  0  0  0  0
    4.4045   53.7117   27.9254 C   0  0  1  0  0  0
    2.9828   53.1340   27.8427 C   0  0  0  0  0  0
    2.1866   53.2645   26.6940 C   0  0  0  0  0  0
    0.9304   52.6688   26.6345 C   0  0  0  0  0  0
    0.4385   51.9585   27.7355 C   0  0  0  0  0  0
    1.2208   51.8375   28.8815 C   0  0  0  0  0  0
    2.4857   52.4140   28.9338 C   0  0  0  0  0  0
   -0.7997   51.2967   27.7487 N   0  0  0  0  0  0
   -1.8995   51.5453   27.0151 C   0  0  0  0  0  0
   -2.0299   52.4971   26.2448 O   0  0  0  0  0  0
   -2.8362   50.6150   27.2818 N   0  0  0  0  0  0
   -4.1714   50.5290   26.8499 C   0  0  0  0  0  0
   -4.8595   49.3791   27.2456 C   0  0  0  0  0  0
   -6.1910   49.1979   26.8800 C   0  0  0  0  0  0
   -6.8352   50.1689   26.1165 C   0  0  0  0  0  0
   -6.1611   51.3207   25.7174 C   0  0  0  0  0  0
   -4.8306   51.5061   26.0848 C   0  0  0  0  0  0
    4.9123   54.1912   26.6342 N   0  0  0  0  0  0
    6.1829   54.4966   26.3173 C   0  0  0  0  0  0
    7.1042   54.4943   27.1274 O   0  0  0  0  0  0
    6.3973   54.8462   24.9342 C   0  0  0  0  0  0
    5.8003   54.2007   23.9054 C   0  0  0  0  0  0
    5.9678   54.4967   22.4721 C   0  0  0  0  0  0
    7.0076   55.2967   21.9752 C   0  0  0  0  0  0
    7.0711   55.5502   20.6032 C   0  0  0  0  0  0
    6.1006   55.0089   19.7592 C   0  0  0  0  0  0
    5.0939   54.2242   20.3222 C   0  0  0  0  0  0
    5.0185   53.9688   21.6533 N   0  0  0  0  0  0
    4.3054   54.3248   30.0278 H   0  0  0  0  0  0
    5.5060   55.2020   29.1093 H   0  0  0  0  0  0
    3.7981   55.5713   28.8967 H   0  0  0  0  0  0
    5.0440   52.8646   28.1893 H   0  0  0  0  0  0
    2.5282   53.8063   25.8259 H   0  0  0  0  0  0
    0.3565   52.7579   25.7244 H   0  0  0  0  0  0
    0.8496   51.2967   29.7374 H   0  0  0  0  0  0
    3.0819   52.2927   29.8259 H   0  0  0  0  0  0
   -0.8802   50.5469   28.4197 H   0  0  0  0  0  0
   -2.5218   49.8231   27.8349 H   0  0  0  0  0  0
   -4.3631   48.6217   27.8386 H   0  0  0  0  0  0
   -6.7210   48.3082   27.1882 H   0  0  0  0  0  0
   -7.8681   50.0275   25.8328 H   0  0  0  0  0  0
   -6.6689   52.0691   25.1261 H   0  0  0  0  0  0
   -4.3407   52.4123   25.7664 H   0  0  0  0  0  0
    4.2446   54.1906   25.8809 H   0  0  0  0  0  0
    7.0889   55.6590   24.7730 H   0  0  0  0  0  0
    5.1338   53.3747   24.1189 H   0  0  0  0  0  0
    7.7618   55.7132   22.6250 H   0  0  0  0  0  0
    7.8722   56.1488   20.1956 H   0  0  0  0  0  0
    6.1309   55.1865   18.6939 H   0  0  0  0  0  0
    4.3247   53.7845   19.7025 H   0  0  0  0  0  0
  1  2  1  0  0  0
  1 30  1  0  0  0
  1 31  1  0  0  0
  1 32  1  0  0  0
  2  3  1  0  0  0
  2 19  1  0  0  0
  2 33  1  0  0  0
  3  8  2  0  0  0
  3  4  1  0  0  0
  4  5  2  0  0  0
  4 34  1  0  0  0
  5  6  1  0  0  0
  5 35  1  0  0  0
  6  7  2  0  0  0
  6  9  1  0  0  0
  7  8  1  0  0  0
  7 36  1  0  0  0
  8 37  1  0  0  0
  9 10  1  0  0  0
  9 38  1  0  0  0
 10 11  2  0  0  0
 10 12  1  0  0  0
 12 13  1  0  0  0
 12 39  1  0  0  0
 13 18  2  0  0  0
 13 14  1  0  0  0
 14 15  2  0  0  0
 14 40  1  0  0  0
 15 16  1  0  0  0
 15 41  1  0  0  0
 16 17  2  0  0  0
 16 42  1  0  0  0
 17 18  1  0  0  0
 17 43  1  0  0  0
 18 44  1  0  0  0
 19 20  1  0  0  0
 19 45  1  0  0  0
 20 21  2  0  0  0
 20 22  1  0  0  0
 22 23  2  0  0  0
 22 46  1  0  0  0
 23 24  1  0  0  0
 23 47  1  0  0  0
 24 29  2  0  0  0
 24 25  1  0  0  0
 25 26  2  0  0  0
 25 48  1  0  0  0
 26 27  1  0  0  0
 26 49  1  0  0  0
 27 28  2  0  0  0
 27 50  1  0  0  0
 28 29  1  0  0  0
 28 51  1  0  0  0
M  END
> <i_i_glide_confnum>
173

> <i_i_glide_lignum>
4602

> <i_i_glide_posenum>
340

> <i_i_glide_rotatable_bonds>
9

> <i_m_Source_File_Index>
2727

> <b_m_subgroup_collapsed>
0

> <r_i_docking_score>
-6.52478

> <r_i_glide_ecoul>
-5.12285

> <r_i_glide_eff_state_penalty>
0

> <r_i_glide_einternal>
9.72503

> <r_i_glide_emodel>
-63.0594

> <r_i_glide_energy>
-47.0862

> <r_i_glide_erotb>
0.912305

> <r_i_glide_esite>
-0.236652

> <r_i_glide_evdw>
-41.9633

> <r_i_glide_gscore>
-6.52478

> <r_i_glide_hbond>
-0.335128

> <r_i_glide_ligand_efficiency>
-0.224993

> <r_i_glide_ligand_efficiency_ln>
-1.49401

> <r_i_glide_ligand_efficiency_sa>
-0.691248

> <r_i_glide_lipo>
-2.74421

> <r_i_glide_metal>
0

> <r_i_glide_rewards>
-1.25451

> <s_i_glide_gridfile>
wee1_glide-grid

> <s_m_Source_File>
wee1_decoys_glide_SP.sdf

> <s_m_Source_Path>
/Users/zhangxujun/Desktop

> <s_m_entry_id>
3002

> <s_m_entry_name>
wee1_decoys_glide_SP.2727

> <s_m_subgroup_title>
wee1_decoys_glide_SP

> <s_m_subgroupid>
wee1_decoys_glide_SP


$$$$
