@<TRIPOS>MOLECULE
ZINC32273124_535
50   52    1
SMALL
USER_CHARGES


@<TRIPOS>ATOM
      1 C1          6.9795   53.1836   17.3968 C.3       1 UNK         0.0000 
      2 N2          5.8223   53.9408   16.9101 N.am      1 UNK         0.0000 
      3 C3          5.8704   54.2140   15.4721 C.3       1 UNK         0.0000 
      4 C4          4.7490   54.2891   17.6705 C.2       1 UNK         0.0000 
      5 O5          3.6732   54.6456   17.1801 O.2       1 UNK         0.0000 
      6 C6          4.8872   54.2777   19.1751 C.ar      1 UNK         0.0000 
      7 C7          5.9664   54.9112   19.8051 C.ar      1 UNK         0.0000 
      8 C8          6.0751   54.8967   21.1929 C.ar      1 UNK         0.0000 
      9 C9          5.1035   54.2530   21.9603 C.ar      1 UNK         0.0000 
     10 C10         4.0145   53.6331   21.3385 C.ar      1 UNK         0.0000 
     11 C11         3.9047   53.6549   19.9520 C.ar      1 UNK         0.0000 
     12 N12         5.2998   54.2181   23.3467 N.am      1 UNK         0.0000 
     13 C13         4.3640   54.3288   24.3183 C.2       1 UNK         0.0000 
     14 O14         3.1726   54.4966   24.0574 O.2       1 UNK         0.0000 
     15 C15         4.8920   54.2752   25.7524 C.ar      1 UNK         0.0000 
     16 C16         6.2797   54.4370   25.9553 C.ar      1 UNK         0.0000 
     17 C17         6.8436   54.3441   27.2152 C.ar      1 UNK         0.0000 
     18 C18         6.0424   54.0967   28.3091 C.ar      1 UNK         0.0000 
     19 C19         4.6715   53.9675   28.1487 C.ar      1 UNK         0.0000 
     20 C20         4.0552   54.0383   26.8876 C.ar      1 UNK         0.0000 
     21 N21         2.6839   53.9497   26.7970 N.2       1 UNK         0.0000 
     22 S22         1.7540   53.1003   27.7391 S.o2      1 UNK         0.0000 
     23 O23         2.4400   52.1107   28.5815 O.2       1 UNK         0.0000 
     24 O24         0.7039   53.9056   28.3718 O.2       1 UNK         0.0000 
     25 C25         0.8601   52.0967   26.5294 C.ar      1 UNK         0.0000 
     26 C26         0.6997   52.4964   25.1946 C.ar      1 UNK         0.0000 
     27 C27         0.0157   51.6837   24.2957 C.ar      1 UNK         0.0000 
     28 C28        -0.5250   50.4770   24.7313 C.ar      1 UNK         0.0000 
     29 C29        -0.4061   50.0907   26.0632 C.ar      1 UNK         0.0000 
     30 C30         0.2761   50.9041   26.9625 C.ar      1 UNK         0.0000 
     31 Cl31       -1.3567   49.4594   23.6130 Cl        1 UNK         0.0000 
     32 H32         6.8783   52.8608   18.4325 H         1 UNK         0.0000 
     33 H33         7.8897   53.7807   17.3088 H         1 UNK         0.0000 
     34 H34         7.1135   52.2777   16.8002 H         1 UNK         0.0000 
     35 H35         5.0274   54.8118   15.1240 H         1 UNK         0.0000 
     36 H36         6.7831   54.7565   15.2228 H         1 UNK         0.0000 
     37 H37         5.8716   53.2777   14.9114 H         1 UNK         0.0000 
     38 H38         6.7261   55.4126   19.2221 H         1 UNK         0.0000 
     39 H39         6.9200   55.3771   21.6630 H         1 UNK         0.0000 
     40 H40         3.2563   53.1261   21.9159 H         1 UNK         0.0000 
     41 H41         3.0546   53.1781   19.4845 H         1 UNK         0.0000 
     42 H42         6.2595   54.1974   23.6483 H         1 UNK         0.0000 
     43 H43         6.9623   54.6380   25.1427 H         1 UNK         0.0000 
     44 H44         7.9046   54.4712   27.3537 H         1 UNK         0.0000 
     45 H45         6.4938   54.0520   29.2816 H         1 UNK         0.0000 
     46 H46         4.0835   53.8346   29.0427 H         1 UNK         0.0000 
     47 H47         1.0998   53.4347   24.8459 H         1 UNK         0.0000 
     48 H48        -0.0910   51.9899   23.2656 H         1 UNK         0.0000 
     49 H49        -0.8382   49.1610   26.4061 H         1 UNK         0.0000 
     50 H50         0.3585   50.5954   27.9953 H         1 UNK         0.0000 
@<TRIPOS>BOND
     1    1    2 1    
     2    1   32 1    
     3    1   33 1    
     4    1   34 1    
     5    2    3 1    
     6    2    4 am   BACKBONE|DICT|INTERRES
     7    3   35 1    
     8    3   36 1    
     9    3   37 1    
    10    4    5 2    
    11    4    6 1    
    12    6   11 ar   
    13    6    7 ar   
    14    7    8 ar   
    15    7   38 1    
    16    8    9 ar   
    17    8   39 1    
    18    9   10 ar   
    19    9   12 1    
    20   10   11 ar   
    21   10   40 1    
    22   11   41 1    
    23   12   13 am   BACKBONE|DICT|INTERRES
    24   12   42 1    
    25   13   14 2    
    26   13   15 1    
    27   15   20 ar   
    28   15   16 ar   
    29   16   17 ar   
    30   16   43 1    
    31   17   18 ar   
    32   17   44 1    
    33   18   19 ar   
    34   18   45 1    
    35   19   20 ar   
    36   19   46 1    
    37   20   21 1    
    38   21   22 1    
    39   22   23 2    
    40   22   24 2    
    41   22   25 1    
    42   25   30 ar   
    43   25   26 ar   
    44   26   27 ar   
    45   26   47 1    
    46   27   28 ar   
    47   27   48 1    
    48   28   29 ar   
    49   28   31 1    
    50   29   30 ar   
    51   29   49 1    
    52   30   50 1    
@<TRIPOS>SUBSTRUCTURE
     1 UNK         1 GROUP             0       ****    0 ROOT    
