@<TRIPOS>MOLECULE
ZINC03336210_3266
60   64    1
SMALL
USER_CHARGES


@<TRIPOS>ATOM
      1 C1          5.3361   53.9296   26.2509 C.3       1 UNK         0.0000 
      2 C2          5.7256   54.1007   24.8045 C.2       1 UNK         0.0000 
      3 C3          6.9248   54.1785   24.1275 C.2       1 UNK         0.0000 
      4 C4          6.6486   54.3762   22.7929 C.2       1 UNK         0.0000 
      5 C5          5.2805   54.3221   22.6660 C.2       1 UNK         0.0000 
      6 O6          4.7179   54.1978   23.9013 O.3       1 UNK         0.0000 
      7 C7          4.3390   54.4178   21.4900 C.3       1 UNK         0.0000 
      8 H8          3.7447   55.2967   21.6804 H         1 UNK         0.0000 
      9 C9          3.3473   53.2490   21.5303 C.2       1 UNK         0.0000 
     10 C10         3.5162   52.1775   20.7315 C.2       1 UNK         0.0000 
     11 N11         4.4133   52.2412   19.6820 N.pl3     1 UNK         0.0000 
     12 C12         5.1014   53.3853   19.3103 C.2       1 UNK         0.0000 
     13 C13         5.0720   54.4859   20.1139 C.2       1 UNK         0.0000 
     14 C14         5.8507   55.6959   19.7516 C.2       1 UNK         0.0000 
     15 O15         6.2785   56.5064   20.5756 O.2       1 UNK         0.0000 
     16 C16         6.2789   55.7897   18.2802 C.3       1 UNK         0.0000 
     17 C17         6.8827   54.4681   17.7426 C.3       1 UNK         0.0000 
     18 C18         5.8789   53.2933   17.9864 C.3       1 UNK         0.0000 
     19 C19         8.2328   54.2000   18.4518 C.3       1 UNK         0.0000 
     20 C20         7.0601   54.6311   16.2180 C.3       1 UNK         0.0000 
     21 S21         2.6206   50.6366   20.9178 S.3       1 UNK         0.0000 
     22 C22         2.4945   49.9634   19.2370 C.3       1 UNK         0.0000 
     23 C23         1.7701   48.6200   19.1157 C.2       1 UNK         0.0000 
     24 O24         1.1589   48.1398   20.0709 O.2       1 UNK         0.0000 
     25 N25         1.9036   48.0380   17.9075 N.am      1 UNK         0.0000 
     26 C26         1.3977   46.8112   17.4448 C.ar      1 UNK         0.0000 
     27 C27         0.3756   46.0720   18.0897 C.ar      1 UNK         0.0000 
     28 C28        -0.0620   44.8467   17.5686 C.ar      1 UNK         0.0000 
     29 C29         0.5256   44.3987   16.3916 C.ar      1 UNK         0.0000 
     30 C30         1.5007   45.1144   15.7562 C.ar      1 UNK         0.0000 
     31 C31         1.9686   46.3251   16.2567 C.ar      1 UNK         0.0000 
     32 O32         1.9047   44.4393   14.6488 O.3       1 UNK         0.0000 
     33 C33         0.9986   43.3768   14.5022 C.3       1 UNK         0.0000 
     34 O34         0.2913   43.2482   15.7086 O.3       1 UNK         0.0000 
     35 C35         2.3328   53.2590   22.5394 C.1       1 UNK         0.0000 
     36 N36         1.5110   53.3039   23.3542 N.1       1 UNK         0.0000 
     37 H37         6.2078   53.7818   26.8897 H         1 UNK         0.0000 
     38 H38         4.6860   53.0654   26.3897 H         1 UNK         0.0000 
     39 H39         4.8026   54.8020   26.6278 H         1 UNK         0.0000 
     40 H40         7.9119   54.1059   24.5122 H         1 UNK         0.0000 
     41 H41         7.3734   54.5018   22.0036 H         1 UNK         0.0000 
     42 H42         4.6159   51.4042   19.1321 H         1 UNK         0.0000 
     43 H43         6.9686   56.6268   18.1658 H         1 UNK         0.0000 
     44 H44         5.3813   56.0508   17.7175 H         1 UNK         0.0000 
     45 H45         6.4409   52.3625   17.9173 H         1 UNK         0.0000 
     46 H46         5.1069   53.2456   17.2150 H         1 UNK         0.0000 
     47 H47         8.9344   55.0191   18.2853 H         1 UNK         0.0000 
     48 H48         8.1207   54.0968   19.5278 H         1 UNK         0.0000 
     49 H49         8.7080   53.2939   18.0748 H         1 UNK         0.0000 
     50 H50         7.7452   55.4455   15.9819 H         1 UNK         0.0000 
     51 H51         7.4719   53.7261   15.7681 H         1 UNK         0.0000 
     52 H52         6.1166   54.8449   15.7139 H         1 UNK         0.0000 
     53 H53         2.0069   50.6926   18.5908 H         1 UNK         0.0000 
     54 H54         3.5044   49.8076   18.8813 H         1 UNK         0.0000 
     55 H55         2.5705   48.4904   17.2853 H         1 UNK         0.0000 
     56 H56        -0.0963   46.4291   18.9923 H         1 UNK         0.0000 
     57 H57        -0.8330   44.2799   18.0697 H         1 UNK         0.0000 
     58 H58         2.7534   46.8718   15.7502 H         1 UNK         0.0000 
     59 H59         1.5274   42.4525   14.2666 H         1 UNK         0.0000 
     60 H60         0.2971   43.6120   13.6983 H         1 UNK         0.0000 
@<TRIPOS>BOND
     1    1    2 1    
     2    1   37 1    
     3    1   38 1    
     4    1   39 1    
     5    2    6 1    
     6    2    3 2    
     7    3    4 1    
     8    3   40 1    
     9    4    5 2    
    10    4   41 1    
    11    5    6 1    
    12    5    7 1    
    13    7    8 1    
    14    7   13 1    
    15    7    9 1    
    16    9   10 2    
    17    9   35 1    
    18   10   11 1    
    19   10   21 1    
    20   11   12 1    
    21   11   42 1    
    22   12   18 1    
    23   12   13 2    
    24   13   14 1    
    25   14   15 2    
    26   14   16 1    
    27   16   17 1    
    28   16   43 1    
    29   16   44 1    
    30   17   18 1    
    31   17   19 1    
    32   17   20 1    
    33   18   45 1    
    34   18   46 1    
    35   19   47 1    
    36   19   48 1    
    37   19   49 1    
    38   20   50 1    
    39   20   51 1    
    40   20   52 1    
    41   21   22 1    
    42   22   23 1    
    43   22   53 1    
    44   22   54 1    
    45   23   24 2    
    46   23   25 am   BACKBONE|DICT|INTERRES
    47   25   26 1    
    48   25   55 1    
    49   26   31 ar   
    50   26   27 ar   
    51   27   28 ar   
    52   27   56 1    
    53   28   29 ar   
    54   28   57 1    
    55   29   34 1    
    56   29   30 ar   
    57   30   31 ar   
    58   30   32 1    
    59   31   58 1    
    60   32   33 1    
    61   33   34 1    
    62   33   59 1    
    63   33   60 1    
    64   35   36 3    
@<TRIPOS>SUBSTRUCTURE
     1 UNK         1 GROUP             0       ****    0 ROOT    
