@<TRIPOS>MOLECULE
ZINC43398798_3887
29   30    1
SMALL
USER_CHARGES


@<TRIPOS>ATOM
      1 C1          0.6830   52.9786   23.3873 C.3       1 UNK         0.0000 
      2 C2          2.0763   53.4362   23.7628 C.ar      1 UNK         0.0000 
      3 C3          3.0850   53.5650   22.8180 C.ar      1 UNK         0.0000 
      4 C4          4.3438   53.9714   23.2507 C.ar      1 UNK         0.0000 
      5 C5          4.5995   54.2729   24.6062 C.ar      1 UNK         0.0000 
      6 C6          3.5031   54.1111   25.5001 C.ar      1 UNK         0.0000 
      7 N7          2.2728   53.6976   25.0719 N.ar      1 UNK         0.0000 
      8 O8          3.6222   54.4172   26.8527 O.3       1 UNK         0.0000 
      9 C9          2.6528   54.1752   27.8108 C.ar      1 UNK         0.0000 
     10 C10         1.9591   52.9606   27.9060 C.ar      1 UNK         0.0000 
     11 C11         0.9818   52.7787   28.8842 C.ar      1 UNK         0.0000 
     12 C12         0.7135   53.7922   29.8028 C.ar      1 UNK         0.0000 
     13 C13         1.4258   54.9898   29.7409 C.ar      1 UNK         0.0000 
     14 C14         2.3940   55.1722   28.7543 C.ar      1 UNK         0.0000 
     15 Cl15        1.1061   56.2479   30.8794 Cl        1 UNK         0.0000 
     16 Cl16        0.1021   51.2981   28.9468 Cl        1 UNK         0.0000 
     17 C17         5.9832   54.7110   25.0070 C.2       1 UNK         0.0000 
     18 S18         6.6806   54.4916   26.5035 S.2       1 UNK         0.0000 
     19 N19         6.7033   55.2942   24.0172 N.pl3     1 UNK         0.0000 
     20 H20         0.5644   52.8943   22.3083 H         1 UNK         0.0000 
     21 H21         0.4772   52.0028   23.8274 H         1 UNK         0.0000 
     22 H22        -0.0607   53.6850   23.7604 H         1 UNK         0.0000 
     23 H23         2.9042   53.3448   21.7757 H         1 UNK         0.0000 
     24 H24         5.1168   54.0386   22.4977 H         1 UNK         0.0000 
     25 H25         2.1668   52.1633   27.2103 H         1 UNK         0.0000 
     26 H26        -0.0418   53.6445   30.5628 H         1 UNK         0.0000 
     27 H27         2.9477   56.0967   28.7165 H         1 UNK         0.0000 
     28 H28         6.2868   55.4341   23.1094 H         1 UNK         0.0000 
     29 H29         7.6811   55.5177   24.1598 H         1 UNK         0.0000 
@<TRIPOS>BOND
     1    1    2 1    
     2    1   20 1    
     3    1   21 1    
     4    1   22 1    
     5    2    7 ar   
     6    2    3 ar   
     7    3    4 ar   
     8    3   23 1    
     9    4    5 ar   
    10    4   24 1    
    11    5    6 ar   
    12    5   17 1    
    13    6    7 ar   
    14    6    8 1    
    15    8    9 1    
    16    9   14 ar   
    17    9   10 ar   
    18   10   11 ar   
    19   10   25 1    
    20   11   12 ar   
    21   11   16 1    
    22   12   13 ar   
    23   12   26 1    
    24   13   14 ar   
    25   13   15 1    
    26   14   27 1    
    27   17   18 2    
    28   17   19 1    
    29   19   28 1    
    30   19   29 1    
@<TRIPOS>SUBSTRUCTURE
     1 UNK         1 GROUP             0       ****    0 ROOT    
