@<TRIPOS>MOLECULE
ZINC64746094_760
60   64    1
SMALL
USER_CHARGES


@<TRIPOS>ATOM
      1 C1         -3.9310   50.7801   28.1697 C.3       1 UNK         0.0000 
      2 N2         -2.7045   50.4969   27.2826 N.4       1 UNK         0.0000 
      3 C3         -1.4803   51.2978   27.7436 C.3       1 UNK         0.0000 
      4 C4         -0.2925   50.8689   26.8718 C.3       1 UNK         0.0000 
      5 N5         -0.5151   51.1209   25.4365 N.pl3     1 UNK         0.0000 
      6 C6         -1.7251   50.4357   24.9489 C.3       1 UNK         0.0000 
      7 C7         -2.9962   50.7248   25.7869 C.3       1 UNK         0.0000 
      8 C8          0.4138   51.7620   24.6572 C.2       1 UNK         0.0000 
      9 N9          1.3745   52.4921   25.1575 N.2       1 UNK         0.0000 
     10 N10         2.1766   52.9308   24.1469 N.pl3     1 UNK         0.0000 
     11 C11         3.3250   53.7073   24.0590 C.ar      1 UNK         0.0000 
     12 C12         3.6323   53.6904   22.6789 C.ar      1 UNK         0.0000 
     13 N13         2.7153   53.0172   21.9910 N.2       1 UNK         0.0000 
     14 C14         1.8572   52.5673   22.8691 C.ar      1 UNK         0.0000 
     15 S15         0.3921   51.6083   22.8945 S.3       1 UNK         0.0000 
     16 C16         4.8146   54.2872   21.9504 C.ar      1 UNK         0.0000 
     17 C17         4.7948   54.4127   20.5515 C.ar      1 UNK         0.0000 
     18 C18         5.8756   54.9625   19.8682 C.ar      1 UNK         0.0000 
     19 C19         6.9883   55.3999   20.5772 C.ar      1 UNK         0.0000 
     20 C20         7.0262   55.2950   21.9618 C.ar      1 UNK         0.0000 
     21 C21         5.9555   54.7178   22.6439 C.ar      1 UNK         0.0000 
     22 Br22        8.4945   56.0976   19.6511 Br        1 UNK         0.0000 
     23 N23         3.9190   54.3207   25.1434 N.pl3     1 UNK         0.0000 
     24 C24         3.8625   53.9007   26.5430 C.3       1 UNK         0.0000 
     25 C25         5.1936   54.2128   27.2592 C.3       1 UNK         0.0000 
     26 C26         5.5581   53.3014   28.4519 C.3       1 UNK         0.0000 
     27 C27         4.4008   52.6737   29.2614 C.3       1 UNK         0.0000 
     28 C28         3.2805   53.6409   29.6722 C.3       1 UNK         0.0000 
     29 C29         2.2020   53.8132   28.5906 C.3       1 UNK         0.0000 
     30 C30         2.6416   54.5043   27.2884 C.3       1 UNK         0.0000 
     31 H31        -4.2016   51.8308   28.0653 H         1 UNK         0.0000 
     32 H32        -4.7339   50.1236   27.8316 H         1 UNK         0.0000 
     33 H33        -3.6467   50.5320   29.1961 H         1 UNK         0.0000 
     34 H34        -1.3008   50.9974   28.7809 H         1 UNK         0.0000 
     35 H35        -1.6979   52.3655   27.6781 H         1 UNK         0.0000 
     36 H36         0.6081   51.3659   27.2279 H         1 UNK         0.0000 
     37 H37        -0.0783   49.8018   26.9707 H         1 UNK         0.0000 
     38 H38        -1.4725   49.3739   24.9787 H         1 UNK         0.0000 
     39 H39        -1.9244   50.6608   23.9007 H         1 UNK         0.0000 
     40 H40        -3.7864   50.0152   25.5272 H         1 UNK         0.0000 
     41 H41        -3.3481   51.7510   25.6732 H         1 UNK         0.0000 
     42 H42         3.9357   54.0899   19.9787 H         1 UNK         0.0000 
     43 H43         5.8504   55.0431   18.7907 H         1 UNK         0.0000 
     44 H44         7.9040   55.6301   22.4932 H         1 UNK         0.0000 
     45 H45         6.0282   54.6109   23.7132 H         1 UNK         0.0000 
     46 H46         4.5071   55.1284   25.0022 H         1 UNK         0.0000 
     47 H47         3.7468   52.8179   26.5164 H         1 UNK         0.0000 
     48 H48         6.0222   54.1529   26.5511 H         1 UNK         0.0000 
     49 H49         5.1888   55.2540   27.5883 H         1 UNK         0.0000 
     50 H50         6.1902   52.4960   28.0818 H         1 UNK         0.0000 
     51 H51         6.1973   53.8773   29.1205 H         1 UNK         0.0000 
     52 H52         3.9670   51.8498   28.6962 H         1 UNK         0.0000 
     53 H53         4.7980   52.1938   30.1532 H         1 UNK         0.0000 
     54 H54         2.7928   53.2410   30.5601 H         1 UNK         0.0000 
     55 H55         3.6951   54.6075   29.9637 H         1 UNK         0.0000 
     56 H56         1.7887   52.8338   28.3495 H         1 UNK         0.0000 
     57 H57         1.3707   54.3780   29.0156 H         1 UNK         0.0000 
     58 H58         2.8193   55.5579   27.5013 H         1 UNK         0.0000 
     59 H59         1.7706   54.4966   26.6336 H         1 UNK         0.0000 
     60 H60        -2.4293   49.5213   27.4361 H         1 UNK         0.0000 
@<TRIPOS>BOND
     1    1    2 1    
     2    1   31 1    
     3    1   32 1    
     4    1   33 1    
     5    2    7 1    
     6    2    3 1    
     7    2   60 1    
     8    3    4 1    
     9    3   34 1    
    10    3   35 1    
    11    4    5 1    
    12    4   36 1    
    13    4   37 1    
    14    5    6 1    
    15    5    8 1    
    16    6    7 1    
    17    6   38 1    
    18    6   39 1    
    19    7   40 1    
    20    7   41 1    
    21    8   15 1    
    22    8    9 2    
    23    9   10 1    
    24   10   14 ar   
    25   10   11 ar   
    26   11   12 ar   
    27   11   23 1    
    28   12   13 ar   
    29   12   16 1    
    30   13   14 ar   
    31   14   15 1    
    32   16   21 ar   
    33   16   17 ar   
    34   17   18 ar   
    35   17   42 1    
    36   18   19 ar   
    37   18   43 1    
    38   19   20 ar   
    39   19   22 1    
    40   20   21 ar   
    41   20   44 1    
    42   21   45 1    
    43   23   24 1    
    44   23   46 1    
    45   24   30 1    
    46   24   25 1    
    47   24   47 1    
    48   25   26 1    
    49   25   48 1    
    50   25   49 1    
    51   26   27 1    
    52   26   50 1    
    53   26   51 1    
    54   27   28 1    
    55   27   52 1    
    56   27   53 1    
    57   28   29 1    
    58   28   54 1    
    59   28   55 1    
    60   29   30 1    
    61   29   56 1    
    62   29   57 1    
    63   30   58 1    
    64   30   59 1    
@<TRIPOS>SUBSTRUCTURE
     1 UNK         1 GROUP             0       ****    0 ROOT    
