@<TRIPOS>MOLECULE
ZINC39671432_388
64   68    1
SMALL
USER_CHARGES


@<TRIPOS>ATOM
      1 C1         -0.8987   45.9727   19.9980 C.ar      1 UNK         0.0000 
      2 C2         -1.3835   46.8637   20.9532 C.ar      1 UNK         0.0000 
      3 C3         -1.0230   48.2138   20.9540 C.ar      1 UNK         0.0000 
      4 C4         -0.1641   48.6380   19.9351 C.ar      1 UNK         0.0000 
      5 N5          0.3526   49.8818   19.6414 N.pl3     1 UNK         0.0000 
      6 C6          1.1240   49.8402   18.5057 C.ar      1 UNK         0.0000 
      7 H7          0.2116   50.7448   20.1514 H         1 UNK         0.0000 
      8 C8          1.1718   48.5245   18.0787 C.ar      1 UNK         0.0000 
      9 C9          0.3449   47.7453   18.9461 C.ar      1 UNK         0.0000 
     10 C10        -0.0291   46.3945   18.9928 C.ar      1 UNK         0.0000 
     11 C11         1.7236   51.1004   17.9189 C.3       1 UNK         0.0000 
     12 N12         2.9533   51.5131   18.5876 N.am      1 UNK         0.0000 
     13 C13         3.0408   52.2248   19.7186 C.2       1 UNK         0.0000 
     14 O14         2.0498   52.4965   20.3984 O.2       1 UNK         0.0000 
     15 C15         4.4668   52.7438   20.0670 C.3       1 UNK         0.0000 
     16 H16         5.1248   51.8742   20.1332 H         1 UNK         0.0000 
     17 C17         4.4195   53.3944   21.4685 C.3       1 UNK         0.0000 
     18 N18         5.5045   54.3728   21.4435 N.am      1 UNK         0.0000 
     19 C19         6.0039   54.6024   20.0821 C.3       1 UNK         0.0000 
     20 C20         5.0356   53.8640   19.1325 C.3       1 UNK         0.0000 
     21 C21         5.6947   53.2965   17.8514 C.3       1 UNK         0.0000 
     22 C22         6.4082   54.3950   17.0355 C.3       1 UNK         0.0000 
     23 N23         5.3525   55.4461   16.6201 N.4       1 UNK         0.0000 
     24 C24         4.5409   56.0348   17.7963 C.3       1 UNK         0.0000 
     25 C25         3.9600   54.8668   18.6248 C.3       1 UNK         0.0000 
     26 C26         6.1653   54.8834   22.5164 C.2       1 UNK         0.0000 
     27 O27         7.1381   55.6238   22.3618 O.2       1 UNK         0.0000 
     28 C28         5.7287   54.5619   23.9369 C.ar      1 UNK         0.0000 
     29 C29         6.7026   54.4296   24.9325 C.ar      1 UNK         0.0000 
     30 C30         6.3469   54.2000   26.2580 C.ar      1 UNK         0.0000 
     31 C31         5.0083   54.1063   26.6255 C.ar      1 UNK         0.0000 
     32 C32         4.0223   54.2517   25.6403 C.ar      1 UNK         0.0000 
     33 C33         4.3793   54.4887   24.3133 C.ar      1 UNK         0.0000 
     34 O34         4.7613   53.8875   27.9687 O.3       1 UNK         0.0000 
     35 C35         3.4267   53.8003   28.4601 C.3       1 UNK         0.0000 
     36 F36         3.5020   53.6066   29.7776 F         1 UNK         0.0000 
     37 F37         2.7507   54.9330   28.2597 F         1 UNK         0.0000 
     38 F38         2.7718   52.7618   27.9367 F         1 UNK         0.0000 
     39 H39        -1.2015   44.9376   20.0397 H         1 UNK         0.0000 
     40 H40        -2.0511   46.4975   21.7196 H         1 UNK         0.0000 
     41 H41        -1.4091   48.8930   21.7018 H         1 UNK         0.0000 
     42 H42         1.7310   48.1894   17.2172 H         1 UNK         0.0000 
     43 H43         0.3380   45.6995   18.2558 H         1 UNK         0.0000 
     44 H44         1.9852   50.9264   16.8739 H         1 UNK         0.0000 
     45 H45         1.0100   51.9264   17.9136 H         1 UNK         0.0000 
     46 H46         3.8147   51.1368   18.1913 H         1 UNK         0.0000 
     47 H47         3.5056   53.9845   21.5580 H         1 UNK         0.0000 
     48 H48         4.5226   52.6304   22.2424 H         1 UNK         0.0000 
     49 H49         6.9645   54.0969   20.0091 H         1 UNK         0.0000 
     50 H50         6.2204   55.6371   19.8310 H         1 UNK         0.0000 
     51 H51         6.4451   52.5558   18.1341 H         1 UNK         0.0000 
     52 H52         4.9825   52.7411   17.2417 H         1 UNK         0.0000 
     53 H53         7.1805   54.9217   17.5983 H         1 UNK         0.0000 
     54 H54         6.8400   54.0065   16.1098 H         1 UNK         0.0000 
     55 H55         5.7942   56.1955   16.0998 H         1 UNK         0.0000 
     56 H56         5.2157   56.6891   18.3485 H         1 UNK         0.0000 
     57 H57         3.7567   56.6538   17.3533 H         1 UNK         0.0000 
     58 H58         3.1525   54.3823   18.0763 H         1 UNK         0.0000 
     59 H59         3.5040   55.2964   19.5070 H         1 UNK         0.0000 
     60 H60         7.7505   54.4975   24.6798 H         1 UNK         0.0000 
     61 H61         7.1106   54.0863   27.0105 H         1 UNK         0.0000 
     62 H62         2.9720   54.1938   25.8828 H         1 UNK         0.0000 
     63 H63         3.5848   54.6455   23.6010 H         1 UNK         0.0000 
     64 H64         4.7038   55.0036   15.9825 H         1 UNK         0.0000 
@<TRIPOS>BOND
     1    1    2 ar   
     2    1   39 1    
     3    1   10 ar   
     4    2    3 ar   
     5    2   40 1    
     6    3    4 ar   
     7    3   41 1    
     8    4    5 ar   
     9    4    9 ar   
    10    5    7 1    
    11    5    6 ar   
    12    6    8 ar   
    13    6   11 1    
    14    8    9 ar   
    15    8   42 1    
    16    9   10 ar   
    17   10   43 1    
    18   11   12 1    
    19   11   44 1    
    20   11   45 1    
    21   12   13 am   BACKBONE|DICT|INTERRES
    22   12   46 1    
    23   13   14 2    
    24   13   15 1    
    25   15   16 1    
    26   15   20 1    
    27   15   17 1    
    28   17   18 1    
    29   17   47 1    
    30   17   48 1    
    31   18   19 1    
    32   18   26 am   BACKBONE|DICT|INTERRES
    33   19   20 1    
    34   19   49 1    
    35   19   50 1    
    36   20   25 1    
    37   20   21 1    
    38   21   22 1    
    39   21   51 1    
    40   21   52 1    
    41   22   23 1    
    42   22   53 1    
    43   22   54 1    
    44   23   24 1    
    45   23   55 1    
    46   23   64 1    
    47   24   25 1    
    48   24   56 1    
    49   24   57 1    
    50   25   58 1    
    51   25   59 1    
    52   26   27 2    
    53   26   28 1    
    54   28   33 ar   
    55   28   29 ar   
    56   29   30 ar   
    57   29   60 1    
    58   30   31 ar   
    59   30   61 1    
    60   31   32 ar   
    61   31   34 1    
    62   32   33 ar   
    63   32   62 1    
    64   33   63 1    
    65   34   35 1    
    66   35   36 1    
    67   35   37 1    
    68   35   38 1    
@<TRIPOS>SUBSTRUCTURE
     1 UNK         1 GROUP             0       ****    0 ROOT    
