@<TRIPOS>MOLECULE
ZINC08809648_2694
44   47    1
SMALL
USER_CHARGES


@<TRIPOS>ATOM
      1 C1          8.2519   55.6316   19.0784 C.ar      1 UNK         0.0000 
      2 C2          9.1039   56.5647   18.4948 C.ar      1 UNK         0.0000 
      3 C3          8.6547   57.8658   18.2248 C.ar      1 UNK         0.0000 
      4 C4          7.3155   58.1925   18.4822 C.ar      1 UNK         0.0000 
      5 C5          6.4649   57.2548   19.0607 C.ar      1 UNK         0.0000 
      6 C6          6.9357   55.9835   19.3939 C.ar      1 UNK         0.0000 
      7 N7          6.1139   55.0843   20.1243 N.pl3     1 UNK         0.0000 
      8 C8          5.1093   54.3541   19.4611 C.2       1 UNK         0.0000 
      9 C9          4.3579   53.4209   20.1357 C.2       1 UNK         0.0000 
     10 C10         4.5010   53.1833   21.6709 C.3       1 UNK         0.0000 
     11 H11         4.8703   52.1645   21.8026 H         1 UNK         0.0000 
     12 C12         5.5897   54.0960   22.2591 C.2       1 UNK         0.0000 
     13 C13         6.3159   54.9454   21.5053 C.2       1 UNK         0.0000 
     14 N14         7.3337   55.6963   22.0585 N.pl3     1 UNK         0.0000 
     15 C15         5.8244   54.0598   23.6723 C.1       1 UNK         0.0000 
     16 N16         6.0494   54.0983   24.8067 N.1       1 UNK         0.0000 
     17 C17         3.1912   53.3020   22.4673 C.2       1 UNK         0.0000 
     18 C18         2.7324   54.3645   23.2470 C.2       1 UNK         0.0000 
     19 C19         1.5051   54.1543   23.8676 C.2       1 UNK         0.0000 
     20 C20         0.9674   52.9181   23.5982 C.2       1 UNK         0.0000 
     21 S21         2.0158   52.0038   22.5788 S.3       1 UNK         0.0000 
     22 Br22       -0.6893   52.2039   24.2004 Br        1 UNK         0.0000 
     23 C23         3.4539   52.4977   19.3989 C.2       1 UNK         0.0000 
     24 O24         3.0944   51.4157   19.8585 O.2       1 UNK         0.0000 
     25 C25         3.1392   52.8383   17.9410 C.3       1 UNK         0.0000 
     26 C26         4.4078   53.3072   17.2291 C.3       1 UNK         0.0000 
     27 C27         4.9868   54.5448   17.9282 C.3       1 UNK         0.0000 
     28 N28         9.5968   58.8964   17.7263 N.pl3     1 UNK         0.0000 
     29 O29        10.6860   58.5341   17.2911 O.co2     1 UNK         0.0000 
     30 O30         9.2661   60.0781   17.8030 O.co2     1 UNK         0.0000 
     31 H31         8.6261   54.6469   19.3209 H         1 UNK         0.0000 
     32 H32        10.1311   56.2840   18.3035 H         1 UNK         0.0000 
     33 H33         6.9348   59.1829   18.2614 H         1 UNK         0.0000 
     34 H34         5.4467   57.5264   19.2819 H         1 UNK         0.0000 
     35 H35         7.5580   55.5972   23.0399 H         1 UNK         0.0000 
     36 H36         8.0947   56.0097   21.4749 H         1 UNK         0.0000 
     37 H37         3.2793   55.2887   23.3556 H         1 UNK         0.0000 
     38 H38         1.0249   54.8958   24.4815 H         1 UNK         0.0000 
     39 H39         2.3876   53.6280   17.9464 H         1 UNK         0.0000 
     40 H40         2.6945   51.9676   17.4565 H         1 UNK         0.0000 
     41 H41         4.1947   53.5278   16.1825 H         1 UNK         0.0000 
     42 H42         5.1418   52.4975   17.2206 H         1 UNK         0.0000 
     43 H43         4.4554   55.4659   17.6879 H         1 UNK         0.0000 
     44 H44         5.9720   54.6359   17.4697 H         1 UNK         0.0000 
@<TRIPOS>BOND
     1    1    6 ar   
     2    1    2 ar   
     3    1   31 1    
     4    2    3 ar   
     5    2   32 1    
     6    3    4 ar   
     7    3   28 1    
     8    4    5 ar   
     9    4   33 1    
    10    5    6 ar   
    11    5   34 1    
    12    6    7 1    
    13    7   13 1    
    14    7    8 1    
    15    8   27 1    
    16    8    9 2    
    17    9   10 1    
    18    9   23 1    
    19   10   11 1    
    20   10   12 1    
    21   10   17 1    
    22   12   13 2    
    23   12   15 1    
    24   13   14 1    
    25   14   35 1    
    26   14   36 1    
    27   15   16 3    
    28   17   21 1    
    29   17   18 2    
    30   18   19 1    
    31   18   37 1    
    32   19   20 2    
    33   19   38 1    
    34   20   21 1    
    35   20   22 1    
    36   23   24 2    
    37   23   25 1    
    38   25   26 1    
    39   25   39 1    
    40   25   40 1    
    41   26   27 1    
    42   26   41 1    
    43   26   42 1    
    44   27   43 1    
    45   27   44 1    
    46   28   29 2    
    47   28   30 1    
@<TRIPOS>SUBSTRUCTURE
     1 UNK         1 GROUP             0       ****    0 ROOT    
