ZINC16448595_2863
                    3D
 Schrodinger Suite 2024-2.
 66 68  0  0  1  0            999 V2000
    0.6878   51.0954   21.7308 C   0  0  0  0  0  0
    1.9082   51.5753   22.5328 C   0  0  0  0  0  0
    2.4702   52.9526   22.0920 C   0  0  2  0  0  0
    1.6427   53.6677   22.0629 H   0  0  0  0  0  0
    3.1054   52.8975   20.6909 C   0  0  0  0  0  0
    3.4575   53.4606   23.0433 N   0  0  0  0  0  0
    3.1730   53.9637   24.2577 C   0  0  0  0  0  0
    2.0147   54.0968   24.6548 O   0  0  0  0  0  0
    4.3622   54.2583   25.1632 C   0  0  0  0  0  0
    5.5776   54.6633   24.5859 C   0  0  0  0  0  0
    6.7040   54.8962   25.3658 C   0  0  0  0  0  0
    6.6390   54.7344   26.7455 C   0  0  0  0  0  0
    5.4481   54.3448   27.3475 C   0  0  0  0  0  0
    4.3024   54.0977   26.5742 C   0  0  0  0  0  0
    3.0883   53.6681   27.1481 N   0  0  0  0  0  0
    2.7821   53.1913   28.3747 C   0  0  0  0  0  0
    3.5544   53.1580   29.3363 O   0  0  0  0  0  0
    1.3646   52.6762   28.5137 C   0  0  0  0  0  0
    0.8024   52.5049   29.7844 C   0  0  0  0  0  0
   -0.4953   52.0220   29.9257 C   0  0  0  0  0  0
   -1.2706   51.6957   28.8092 C   0  0  0  0  0  0
   -0.7280   51.8778   27.5253 C   0  0  0  0  0  0
    0.5843   52.3445   27.3932 C   0  0  0  0  0  0
   -1.6818   51.6049   26.0221 S   0  0  0  0  0  0
   -2.8490   52.4911   26.0972 O   0  0  0  0  0  0
   -0.7620   51.6860   24.8810 O   0  0  0  0  0  0
   -2.2922   49.9407   26.0819 N   0  0  0  0  0  0
   -2.2805   49.0993   24.9625 C   0  0  0  0  0  0
   -1.7017   47.8392   25.1294 C   0  0  0  0  0  0
   -1.7023   46.9150   24.0870 C   0  0  0  0  0  0
   -2.2555   47.2500   22.8518 C   0  0  0  0  0  0
   -2.8392   48.5068   22.6778 C   0  0  0  0  0  0
   -2.8772   49.4307   23.7289 C   0  0  0  0  0  0
   -3.6243   50.7398   23.5057 C   0  0  0  0  0  0
   -2.2205   46.2598   21.7024 C   0  0  0  0  0  0
   -2.6636   51.1143   29.0394 C   0  0  0  0  0  0
    0.3024   50.1580   22.1340 H   0  0  0  0  0  0
    0.9315   50.9191   20.6811 H   0  0  0  0  0  0
   -0.1228   51.8234   21.7759 H   0  0  0  0  0  0
    1.6073   51.6225   23.5808 H   0  0  0  0  0  0
    2.6952   50.8207   22.4896 H   0  0  0  0  0  0
    2.3783   52.5972   19.9371 H   0  0  0  0  0  0
    3.4957   53.8701   20.3890 H   0  0  0  0  0  0
    3.9168   52.1702   20.6459 H   0  0  0  0  0  0
    4.4206   53.4219   22.7504 H   0  0  0  0  0  0
    5.6659   54.8027   23.5181 H   0  0  0  0  0  0
    7.6204   55.1989   24.8816 H   0  0  0  0  0  0
    7.5048   54.9118   27.3650 H   0  0  0  0  0  0
    5.4458   54.2502   28.4216 H   0  0  0  0  0  0
    2.3370   53.6606   26.4695 H   0  0  0  0  0  0
    1.3665   52.7349   30.6786 H   0  0  0  0  0  0
   -0.8943   51.8807   30.9197 H   0  0  0  0  0  0
    0.9813   52.4576   26.3947 H   0  0  0  0  0  0
   -1.9844   49.4632   26.9277 H   0  0  0  0  0  0
   -1.2696   47.5667   26.0835 H   0  0  0  0  0  0
   -1.2947   45.9322   24.2547 H   0  0  0  0  0  0
   -3.2856   48.7541   21.7244 H   0  0  0  0  0  0
   -4.3387   50.6607   22.6854 H   0  0  0  0  0  0
   -4.2064   51.0026   24.3892 H   0  0  0  0  0  0
   -2.9294   51.5527   23.2985 H   0  0  0  0  0  0
   -2.1241   46.7803   20.7491 H   0  0  0  0  0  0
   -1.3587   45.5950   21.7768 H   0  0  0  0  0  0
   -3.1351   45.6652   21.6803 H   0  0  0  0  0  0
   -2.8507   50.8968   30.0928 H   0  0  0  0  0  0
   -3.4431   51.7730   28.6587 H   0  0  0  0  0  0
   -2.7914   50.1585   28.5397 H   0  0  0  0  0  0
  1  2  1  0  0  0
  1 37  1  0  0  0
  1 38  1  0  0  0
  1 39  1  0  0  0
  2  3  1  0  0  0
  2 40  1  0  0  0
  2 41  1  0  0  0
  3  4  1  0  0  0
  3  5  1  0  0  0
  3  6  1  0  0  0
  5 42  1  0  0  0
  5 43  1  0  0  0
  5 44  1  0  0  0
  6  7  1  0  0  0
  6 45  1  0  0  0
  7  8  2  0  0  0
  7  9  1  0  0  0
  9 14  2  0  0  0
  9 10  1  0  0  0
 10 11  2  0  0  0
 10 46  1  0  0  0
 11 12  1  0  0  0
 11 47  1  0  0  0
 12 13  2  0  0  0
 12 48  1  0  0  0
 13 14  1  0  0  0
 13 49  1  0  0  0
 14 15  1  0  0  0
 15 16  1  0  0  0
 15 50  1  0  0  0
 16 17  2  0  0  0
 16 18  1  0  0  0
 18 23  2  0  0  0
 18 19  1  0  0  0
 19 20  2  0  0  0
 19 51  1  0  0  0
 20 21  1  0  0  0
 20 52  1  0  0  0
 21 22  2  0  0  0
 21 36  1  0  0  0
 22 23  1  0  0  0
 22 24  1  0  0  0
 23 53  1  0  0  0
 24 25  2  0  0  0
 24 26  2  0  0  0
 24 27  1  0  0  0
 27 28  1  0  0  0
 27 54  1  0  0  0
 28 33  2  0  0  0
 28 29  1  0  0  0
 29 30  2  0  0  0
 29 55  1  0  0  0
 30 31  1  0  0  0
 30 56  1  0  0  0
 31 32  2  0  0  0
 31 35  1  0  0  0
 32 33  1  0  0  0
 32 57  1  0  0  0
 33 34  1  0  0  0
 34 58  1  0  0  0
 34 59  1  0  0  0
 34 60  1  0  0  0
 35 61  1  0  0  0
 35 62  1  0  0  0
 35 63  1  0  0  0
 36 64  1  0  0  0
 36 65  1  0  0  0
 36 66  1  0  0  0
M  END
> <i_i_glide_confnum>
203

> <i_i_glide_lignum>
2864

> <i_i_glide_posenum>
317

> <i_i_glide_rotatable_bonds>
10

> <i_m_Source_File_Index>
5775

> <b_m_subgroup_collapsed>
0

> <r_i_docking_score>
-4.04304

> <r_i_glide_ecoul>
-6.04301

> <r_i_glide_eff_state_penalty>
0

> <r_i_glide_einternal>
10.4937

> <r_i_glide_emodel>
-57.0749

> <r_i_glide_energy>
-53.1205

> <r_i_glide_erotb>
0.752505

> <r_i_glide_esite>
-0.11689

> <r_i_glide_evdw>
-47.0775

> <r_i_glide_gscore>
-4.04304

> <r_i_glide_hbond>
-0.16

> <r_i_glide_ligand_efficiency>
-0.115515

> <r_i_glide_ligand_efficiency_ln>
-0.887536

> <r_i_glide_ligand_efficiency_sa>
-0.377858

> <r_i_glide_lipo>
-2.14915

> <r_i_glide_metal>
0

> <r_i_glide_rewards>
0.890827

> <s_i_glide_gridfile>
wee1_glide-grid

> <s_m_Source_File>
wee1_decoys_glide_SP.sdf

> <s_m_Source_Path>
/Users/zhangxujun/Desktop

> <s_m_entry_id>
6050

> <s_m_entry_name>
wee1_decoys_glide_SP.5775

> <s_m_subgroup_title>
wee1_decoys_glide_SP

> <s_m_subgroupid>
wee1_decoys_glide_SP


$$$$
