@<TRIPOS>MOLECULE
ZINC03073376_3861
37   40    1
SMALL
USER_CHARGES


@<TRIPOS>ATOM
      1 C1          6.6154   54.8923   22.6811 C.ar      1 UNK         0.0000 
      2 C2          5.5074   54.3063   22.0798 C.ar      1 UNK         0.0000 
      3 C3          4.4124   53.9100   22.8438 C.ar      1 UNK         0.0000 
      4 C4          4.4078   54.0978   24.2537 C.ar      1 UNK         0.0000 
      5 C5          5.5479   54.6969   24.8653 C.ar      1 UNK         0.0000 
      6 C6          6.6456   55.0862   24.0586 C.ar      1 UNK         0.0000 
      7 C7          5.5500   54.8968   26.2616 C.ar      1 UNK         0.0000 
      8 C8          4.4469   54.5380   27.0268 C.ar      1 UNK         0.0000 
      9 C9          3.3103   53.9406   26.4742 C.ar      1 UNK         0.0000 
     10 C10         3.3102   53.7230   25.0812 C.ar      1 UNK         0.0000 
     11 O11         2.2526   53.1334   24.4219 O.3       1 UNK         0.0000 
     12 C12         1.2378   52.6179   25.1452 C.2       1 UNK         0.0000 
     13 C13         1.0847   52.7477   26.4779 C.2       1 UNK         0.0000 
     14 C14         2.0553   53.5931   27.3216 C.3       1 UNK         0.0000 
     15 H15         1.5911   54.5671   27.4872 H         1 UNK         0.0000 
     16 C16         2.2827   53.0609   28.7559 C.ar      1 UNK         0.0000 
     17 C17         3.5153   52.5317   29.1715 C.ar      1 UNK         0.0000 
     18 C18         3.6998   52.0934   30.4799 C.ar      1 UNK         0.0000 
     19 C19         2.6325   52.0967   31.3742 C.ar      1 UNK         0.0000 
     20 C20         1.4005   52.6103   30.9801 C.ar      1 UNK         0.0000 
     21 C21         1.2353   53.1205   29.6938 C.ar      1 UNK         0.0000 
     22 F22         0.0566   53.7052   29.3751 F         1 UNK         0.0000 
     23 C23        -0.0688   52.1563   27.0796 C.1       1 UNK         0.0000 
     24 N24        -1.0380   51.6961   27.5091 N.1       1 UNK         0.0000 
     25 N25         0.4229   51.9317   24.2875 N.pl3     1 UNK         0.0000 
     26 H26         7.4627   55.1972   22.0794 H         1 UNK         0.0000 
     27 H27         5.4967   54.1568   21.0086 H         1 UNK         0.0000 
     28 H28         3.5576   53.4611   22.3584 H         1 UNK         0.0000 
     29 H29         7.5050   55.5512   24.5179 H         1 UNK         0.0000 
     30 H30         6.4050   55.3555   26.7361 H         1 UNK         0.0000 
     31 H31         4.4758   54.7613   28.0844 H         1 UNK         0.0000 
     32 H32         4.3437   52.4384   28.4865 H         1 UNK         0.0000 
     33 H33         4.6600   51.7006   30.7867 H         1 UNK         0.0000 
     34 H34         2.7612   51.7228   32.3815 H         1 UNK         0.0000 
     35 H35         0.5763   52.6372   31.6798 H         1 UNK         0.0000 
     36 H36        -0.3897   51.4470   24.6410 H         1 UNK         0.0000 
     37 H37         0.7628   51.6610   23.3753 H         1 UNK         0.0000 
@<TRIPOS>BOND
     1    1    6 ar   
     2    1    2 ar   
     3    1   26 1    
     4    2    3 ar   
     5    2   27 1    
     6    3    4 ar   
     7    3   28 1    
     8    4   10 ar   
     9    4    5 ar   
    10    5    6 ar   
    11    5    7 ar   
    12    6   29 1    
    13    7    8 ar   
    14    7   30 1    
    15    8    9 ar   
    16    8   31 1    
    17    9   14 1    
    18    9   10 ar   
    19   10   11 1    
    20   11   12 1    
    21   12   13 2    
    22   12   25 1    
    23   13   14 1    
    24   13   23 1    
    25   14   15 1    
    26   14   16 1    
    27   16   21 ar   
    28   16   17 ar   
    29   17   18 ar   
    30   17   32 1    
    31   18   19 ar   
    32   18   33 1    
    33   19   20 ar   
    34   19   34 1    
    35   20   21 ar   
    36   20   35 1    
    37   21   22 1    
    38   23   24 3    
    39   25   36 1    
    40   25   37 1    
@<TRIPOS>SUBSTRUCTURE
     1 UNK         1 GROUP             0       ****    0 ROOT    
