@<TRIPOS>MOLECULE
ZINC36597478_3737
63   65    1
SMALL
USER_CHARGES


@<TRIPOS>ATOM
      1 C1         -2.0797   51.5068   28.0504 C.3       1 UNK         0.0000 
      2 C2         -0.8156   51.8077   27.2766 C.2       1 UNK         0.0000 
      3 C3          0.2925   52.6144   27.4839 C.2       1 UNK         0.0000 
      4 C4          1.0999   52.4938   26.3466 C.2       1 UNK         0.0000 
      5 C5          0.4644   51.6002   25.4934 C.2       1 UNK         0.0000 
      6 O6         -0.6909   51.1931   26.0763 O.3       1 UNK         0.0000 
      7 C7          0.8001   50.9649   24.1494 C.3       1 UNK         0.0000 
      8 N8          0.0737   51.5097   22.9668 N.am      1 UNK         0.0000 
      9 C9          0.8346   52.2960   21.9237 C.3       1 UNK         0.0000 
     10 H10         0.3049   53.2445   21.8552 H         1 UNK         0.0000 
     11 C11         2.2370   52.7624   22.3264 C.ar      1 UNK         0.0000 
     12 C12         2.3545   53.7183   23.3417 C.ar      1 UNK         0.0000 
     13 C13         3.5969   54.2450   23.6860 C.ar      1 UNK         0.0000 
     14 C14         4.7466   53.8561   22.9904 C.ar      1 UNK         0.0000 
     15 C15         4.6383   52.8966   21.9827 C.ar      1 UNK         0.0000 
     16 C16         3.4043   52.3358   21.6728 C.ar      1 UNK         0.0000 
     17 C17         6.1141   54.4684   23.3033 C.3       1 UNK         0.0000 
     18 F18         6.1163   55.1511   24.4506 F         1 UNK         0.0000 
     19 F19         7.0498   53.5250   23.3828 F         1 UNK         0.0000 
     20 F20         6.4489   55.2970   22.3160 F         1 UNK         0.0000 
     21 C21         0.7386   51.6983   20.4794 C.2       1 UNK         0.0000 
     22 O22         0.2961   50.5632   20.3029 O.2       1 UNK         0.0000 
     23 N23         1.1612   52.4966   19.4823 N.am      1 UNK         0.0000 
     24 C24         1.1900   52.2169   18.0425 C.3       1 UNK         0.0000 
     25 C25         1.8034   53.4533   17.3562 C.3       1 UNK         0.0000 
     26 C26        -0.2360   52.0012   17.4888 C.3       1 UNK         0.0000 
     27 C27         2.0749   50.9914   17.7228 C.3       1 UNK         0.0000 
     28 C28        -1.2935   51.4080   22.8317 C.2       1 UNK         0.0000 
     29 O29        -1.9337   52.0965   22.0294 O.2       1 UNK         0.0000 
     30 C30        -2.0912   50.4570   23.7001 C.ar      1 UNK         0.0000 
     31 C31        -1.8130   49.0767   23.7314 C.ar      1 UNK         0.0000 
     32 C32        -2.5244   48.2327   24.5838 C.ar      1 UNK         0.0000 
     33 C33        -3.5403   48.7382   25.3882 C.ar      1 UNK         0.0000 
     34 C34        -3.8727   50.0863   25.3157 C.ar      1 UNK         0.0000 
     35 C35        -3.1640   50.9431   24.4758 C.ar      1 UNK         0.0000 
     36 O36        -3.5411   52.2627   24.4508 O.3       1 UNK         0.0000 
     37 O37        -0.8647   48.5039   22.9230 O.3       1 UNK         0.0000 
     38 H38        -1.9647   51.7014   29.1162 H         1 UNK         0.0000 
     39 H39        -2.9156   52.0970   27.6841 H         1 UNK         0.0000 
     40 H40        -2.4097   50.4734   27.9519 H         1 UNK         0.0000 
     41 H41         0.4854   53.2250   28.3525 H         1 UNK         0.0000 
     42 H42         2.0495   52.9804   26.1779 H         1 UNK         0.0000 
     43 H43         0.6698   49.8871   24.2048 H         1 UNK         0.0000 
     44 H44         1.8711   51.0498   23.9865 H         1 UNK         0.0000 
     45 H45         1.4717   54.0689   23.8568 H         1 UNK         0.0000 
     46 H46         3.6537   54.9817   24.4734 H         1 UNK         0.0000 
     47 H47         5.5069   52.5744   21.4301 H         1 UNK         0.0000 
     48 H48         3.3696   51.5939   20.8874 H         1 UNK         0.0000 
     49 H49         1.4844   53.4245   19.7347 H         1 UNK         0.0000 
     50 H50         2.8213   53.6384   17.7020 H         1 UNK         0.0000 
     51 H51         1.8501   53.3302   16.2732 H         1 UNK         0.0000 
     52 H52         1.2241   54.3554   17.5578 H         1 UNK         0.0000 
     53 H53        -0.7083   51.1176   17.9203 H         1 UNK         0.0000 
     54 H54        -0.8816   52.8537   17.7041 H         1 UNK         0.0000 
     55 H55        -0.2252   51.8619   16.4073 H         1 UNK         0.0000 
     56 H56         1.6736   50.0665   18.1389 H         1 UNK         0.0000 
     57 H57         2.1786   50.8362   16.6475 H         1 UNK         0.0000 
     58 H58         3.0805   51.1105   18.1256 H         1 UNK         0.0000 
     59 H59        -2.2927   47.1801   24.6335 H         1 UNK         0.0000 
     60 H60        -4.0773   48.0842   26.0594 H         1 UNK         0.0000 
     61 H61        -4.6755   50.4707   25.9260 H         1 UNK         0.0000 
     62 H62        -3.0466   52.7515   23.7875 H         1 UNK         0.0000 
     63 H63        -0.8331   47.5504   23.0179 H         1 UNK         0.0000 
@<TRIPOS>BOND
     1    1    2 1    
     2    1   38 1    
     3    1   39 1    
     4    1   40 1    
     5    2    6 1    
     6    2    3 2    
     7    3    4 1    
     8    3   41 1    
     9    4    5 2    
    10    4   42 1    
    11    5    6 1    
    12    5    7 1    
    13    7    8 1    
    14    7   43 1    
    15    7   44 1    
    16    8    9 1    
    17    8   28 am   BACKBONE|DICT|INTERRES
    18    9   10 1    
    19    9   11 1    
    20    9   21 1    
    21   11   16 ar   
    22   11   12 ar   
    23   12   13 ar   
    24   12   45 1    
    25   13   14 ar   
    26   13   46 1    
    27   14   15 ar   
    28   14   17 1    
    29   15   16 ar   
    30   15   47 1    
    31   16   48 1    
    32   17   18 1    
    33   17   19 1    
    34   17   20 1    
    35   21   22 2    
    36   21   23 am   BACKBONE|DICT|INTERRES
    37   23   24 1    
    38   23   49 1    
    39   24   25 1    
    40   24   26 1    
    41   24   27 1    
    42   25   50 1    
    43   25   51 1    
    44   25   52 1    
    45   26   53 1    
    46   26   54 1    
    47   26   55 1    
    48   27   56 1    
    49   27   57 1    
    50   27   58 1    
    51   28   29 2    
    52   28   30 1    
    53   30   35 ar   
    54   30   31 ar   
    55   31   32 ar   
    56   31   37 1    
    57   32   33 ar   
    58   32   59 1    
    59   33   34 ar   
    60   33   60 1    
    61   34   35 ar   
    62   34   61 1    
    63   35   36 1    
    64   36   62 1    
    65   37   63 1    
@<TRIPOS>SUBSTRUCTURE
     1 UNK         1 GROUP             0       ****    0 ROOT    
