ZINC12794406_1119
                    3D
 Schrodinger Suite 2024-2.
 60 64  0  0  1  0            999 V2000
    2.1598   49.6570   19.6030 C   0  0  0  0  0  0
    1.4759   50.2224   20.8611 C   0  0  2  0  0  0
    2.0241   49.5765   22.1415 C   0  0  0  0  0  0
    1.4379   50.2316   23.3999 C   0  0  0  0  0  0
   -0.7152   50.6590   22.0494 C   0  0  0  0  0  0
   -0.0418   49.9846   20.8417 C   0  0  0  0  0  0
   -0.7466   50.7588   24.6363 C   0  0  2  0  0  0
   -0.3776   51.7842   24.5672 H   0  0  0  0  0  0
   -0.2620   50.1023   25.9691 C   0  0  0  0  0  0
    0.4590   51.0301   26.8494 N   0  0  0  0  0  0
   -0.1102   52.1040   27.4296 C   0  0  0  0  0  0
   -1.2968   52.3835   27.2789 O   0  0  0  0  0  0
    0.7552   53.0363   28.2876 C   0  0  0  0  0  0
    2.1627   53.0996   27.8892 N   0  0  0  0  0  0
    2.6896   53.5341   26.6600 C   0  0  0  0  0  0
    2.0650   53.6952   25.4173 C   0  0  0  0  0  0
    2.7898   54.0984   24.2935 C   0  0  0  0  0  0
    4.1581   54.3700   24.3773 C   0  0  0  0  0  0
    4.8313   54.2398   25.6167 C   0  0  0  0  0  0
    4.0676   53.8173   26.7302 C   0  0  0  0  0  0
    4.6444   53.6575   27.9608 C   0  0  0  0  0  0
    5.9961   53.9008   28.1726 C   0  0  0  0  0  0
    6.7686   54.3163   27.0887 C   0  0  0  0  0  0
    6.2130   54.4909   25.8138 C   0  0  0  0  0  0
    3.4031   53.1580   29.1483 S   0  0  0  0  0  0
    3.1066   54.2486   30.0800 O   0  0  0  0  0  0
    3.6553   51.8146   29.6819 O   0  0  0  0  0  0
   -2.2655   50.7775   24.5248 C   0  0  0  0  0  0
   -3.1894   49.7465   24.7089 C   0  0  0  0  0  0
   -4.5213   50.1294   24.5248 C   0  0  0  0  0  0
   -4.6463   51.4693   24.2108 C   0  0  0  0  0  0
   -3.1102   52.2610   24.1531 S   0  0  0  0  0  0
    2.0059   48.5798   19.5076 H   0  0  0  0  0  0
    3.2386   49.8333   19.6196 H   0  0  0  0  0  0
    1.7780   50.1250   18.6937 H   0  0  0  0  0  0
    1.6651   51.2992   20.9015 H   0  0  0  0  0  0
    1.8585   48.4970   22.1384 H   0  0  0  0  0  0
    3.1046   49.6798   22.1593 H   0  0  0  0  0  0
    1.6865   51.2937   23.4779 H   0  0  0  0  0  0
    1.8152   49.6958   24.2682 H   0  0  0  0  0  0
   -0.5789   51.7432   22.0591 H   0  0  0  0  0  0
   -1.7789   50.4152   22.0338 H   0  0  0  0  0  0
   -0.4599   50.3881   19.9163 H   0  0  0  0  0  0
   -0.2719   48.9156   20.7995 H   0  0  0  0  0  0
   -1.1111   49.7048   26.5292 H   0  0  0  0  0  0
    0.3430   49.2108   25.8030 H   0  0  0  0  0  0
    1.4275   50.8299   27.0554 H   0  0  0  0  0  0
    0.3523   54.0452   28.2003 H   0  0  0  0  0  0
    0.6489   52.7722   29.3411 H   0  0  0  0  0  0
    1.0101   53.5091   25.3051 H   0  0  0  0  0  0
    2.2791   54.2084   23.3469 H   0  0  0  0  0  0
    4.7033   54.6876   23.5033 H   0  0  0  0  0  0
    6.4583   53.7954   29.1425 H   0  0  0  0  0  0
    7.8216   54.4962   27.2428 H   0  0  0  0  0  0
    6.8216   54.8093   24.9809 H   0  0  0  0  0  0
   -2.9013   48.7378   24.9718 H   0  0  0  0  0  0
   -5.3584   49.4546   24.6268 H   0  0  0  0  0  0
   -5.5537   52.0268   24.0185 H   0  0  0  0  0  0
   -0.1127   50.0941   23.3745 N   0  3  2  0  0  0
   -0.3312   49.1066   23.3934 H   0  0  0  0  0  0
  1  2  1  0  0  0
  1 33  1  0  0  0
  1 34  1  0  0  0
  1 35  1  0  0  0
  2  6  1  0  0  0
  2  3  1  0  0  0
  2 36  1  0  0  0
  3  4  1  0  0  0
  3 37  1  0  0  0
  3 38  1  0  0  0
  4 39  1  0  0  0
  4 40  1  0  0  0
  4 59  1  0  0  0
  5  6  1  0  0  0
  5 41  1  0  0  0
  5 42  1  0  0  0
  5 59  1  0  0  0
  6 43  1  0  0  0
  6 44  1  0  0  0
  7  8  1  0  0  0
  7  9  1  0  0  0
  7 28  1  0  0  0
  7 59  1  0  0  0
  9 10  1  0  0  0
  9 45  1  0  0  0
  9 46  1  0  0  0
 10 11  1  0  0  0
 10 47  1  0  0  0
 11 12  2  0  0  0
 11 13  1  0  0  0
 13 14  1  0  0  0
 13 48  1  0  0  0
 13 49  1  0  0  0
 14 25  1  0  0  0
 14 15  1  0  0  0
 15 20  2  0  0  0
 15 16  1  0  0  0
 16 17  2  0  0  0
 16 50  1  0  0  0
 17 18  1  0  0  0
 17 51  1  0  0  0
 18 19  2  0  0  0
 18 52  1  0  0  0
 19 24  1  0  0  0
 19 20  1  0  0  0
 20 21  1  0  0  0
 21 22  2  0  0  0
 21 25  1  0  0  0
 22 23  1  0  0  0
 22 53  1  0  0  0
 23 24  2  0  0  0
 23 54  1  0  0  0
 24 55  1  0  0  0
 25 26  2  0  0  0
 25 27  2  0  0  0
 28 32  1  0  0  0
 28 29  2  0  0  0
 29 30  1  0  0  0
 29 56  1  0  0  0
 30 31  2  0  0  0
 30 57  1  0  0  0
 31 32  1  0  0  0
 31 58  1  0  0  0
 59 60  1  0  0  0
M  CHG  1  59   1
M  END
> <i_i_glide_confnum>
96

> <i_i_glide_lignum>
1120

> <i_i_glide_posenum>
70

> <i_i_glide_rotatable_bonds>
7

> <i_m_Source_File_Index>
2313

> <b_m_subgroup_collapsed>
0

> <r_i_docking_score>
-6.42235

> <r_i_glide_ecoul>
-6.18478

> <r_i_glide_eff_state_penalty>
0

> <r_i_glide_einternal>
3.67704

> <r_i_glide_emodel>
-69.3047

> <r_i_glide_energy>
-49.6968

> <r_i_glide_erotb>
0.547374

> <r_i_glide_esite>
-0.103319

> <r_i_glide_evdw>
-43.512

> <r_i_glide_gscore>
-6.42235

> <r_i_glide_hbond>
0

> <r_i_glide_ligand_efficiency>
-0.200699

> <r_i_glide_ligand_efficiency_ln>
-1.43814

> <r_i_glide_ligand_efficiency_sa>
-0.637178

> <r_i_glide_lipo>
-2.95021

> <r_i_glide_metal>
0

> <r_i_glide_rewards>
-0.812878

> <s_i_glide_gridfile>
wee1_glide-grid

> <s_m_Source_File>
wee1_decoys_glide_SP.sdf

> <s_m_Source_Path>
/Users/zhangxujun/Desktop

> <s_m_entry_id>
2588

> <s_m_entry_name>
wee1_decoys_glide_SP.2313

> <s_m_subgroup_title>
wee1_decoys_glide_SP

> <s_m_subgroupid>
wee1_decoys_glide_SP


$$$$
