@<TRIPOS>MOLECULE
ZINC00959844_5834
44   47    1
SMALL
USER_CHARGES


@<TRIPOS>ATOM
      1 C1          4.1705   58.4818   16.6363 C.3       1 UNK         0.0000 
      2 C2          5.7011   58.4630   16.4594 C.3       1 UNK         0.0000 
      3 S3          6.7522   58.4967   17.9571 S.3       1 UNK         0.0000 
      4 C4          6.3044   57.0232   18.8785 C.ar      1 UNK         0.0000 
      5 N5          5.5157   56.1044   18.2203 N.pl3     1 UNK         0.0000 
      6 C6          5.0311   55.0348   18.9271 C.ar      1 UNK         0.0000 
      7 C7          5.4147   54.7936   20.2081 C.ar      1 UNK         0.0000 
      8 C8          6.4685   55.6752   20.7740 C.ar      1 UNK         0.0000 
      9 N9          6.7060   56.8812   20.0843 N.2       1 UNK         0.0000 
     10 O10         7.1086   55.2990   21.7455 O.2       1 UNK         0.0000 
     11 C11         4.8085   53.5798   20.9916 C.3       1 UNK         0.0000 
     12 H12         5.5771   52.8195   21.1245 H         1 UNK         0.0000 
     13 C13         3.7676   52.8053   20.1014 C.2       1 UNK         0.0000 
     14 C14         3.1179   51.5849   20.6494 C.2       1 UNK         0.0000 
     15 C15         2.0681   50.8691   19.7821 C.3       1 UNK         0.0000 
     16 C16         1.4187   51.8067   18.7539 C.3       1 UNK         0.0000 
     17 C17         2.5048   52.4755   17.8990 C.3       1 UNK         0.0000 
     18 C18         3.5265   53.1608   18.8057 C.2       1 UNK         0.0000 
     19 N19         4.1156   54.2730   18.2662 N.pl3     1 UNK         0.0000 
     20 O20         3.5069   51.0501   21.6817 O.2       1 UNK         0.0000 
     21 C21         4.3965   53.8685   22.4582 C.ar      1 UNK         0.0000 
     22 C22         5.3633   53.8530   23.4731 C.ar      1 UNK         0.0000 
     23 C23         5.0178   54.0969   24.7970 C.ar      1 UNK         0.0000 
     24 C24         3.6845   54.2870   25.1350 C.ar      1 UNK         0.0000 
     25 C25         2.7021   54.2938   24.1452 C.ar      1 UNK         0.0000 
     26 C26         3.0593   54.0963   22.8111 C.ar      1 UNK         0.0000 
     27 Br27        3.2214   54.4871   26.9717 Br        1 UNK         0.0000 
     28 H28         3.6759   58.6267   15.6753 H         1 UNK         0.0000 
     29 H29         3.8571   59.2981   17.2817 H         1 UNK         0.0000 
     30 H30         3.7699   57.5659   17.0645 H         1 UNK         0.0000 
     31 H31         6.0042   57.6231   15.8336 H         1 UNK         0.0000 
     32 H32         5.9741   59.3566   15.8945 H         1 UNK         0.0000 
     33 H33         2.6137   50.0976   19.2355 H         1 UNK         0.0000 
     34 H34         1.3424   50.3656   20.4204 H         1 UNK         0.0000 
     35 H35         0.7305   51.2500   18.1166 H         1 UNK         0.0000 
     36 H36         0.8213   52.5634   19.2679 H         1 UNK         0.0000 
     37 H37         1.9680   53.2269   17.3172 H         1 UNK         0.0000 
     38 H38         2.9835   51.8038   17.1833 H         1 UNK         0.0000 
     39 H39         3.9082   54.4951   17.3057 H         1 UNK         0.0000 
     40 H40         6.3941   53.6219   23.2521 H         1 UNK         0.0000 
     41 H41         5.7752   54.0712   25.5663 H         1 UNK         0.0000 
     42 H42         1.6663   54.4449   24.4109 H         1 UNK         0.0000 
     43 H43         2.2906   54.1050   22.0528 H         1 UNK         0.0000 
     44 H44         5.2454   56.2692   17.2654 H         1 UNK         0.0000 
@<TRIPOS>BOND
     1    1    2 1    
     2    1   28 1    
     3    1   29 1    
     4    1   30 1    
     5    2    3 1    
     6    2   31 1    
     7    2   32 1    
     8    3    4 1    
     9    4    9 ar   
    10    4    5 ar   
    11    5    6 ar   
    12    5   44 1    
    13    6    7 ar   
    14    6   19 1    
    15    7    8 ar   
    16    7   11 1    
    17    8    9 ar   
    18    8   10 2    
    19   11   12 1    
    20   11   21 1    
    21   11   13 1    
    22   13   14 1    
    23   13   18 2    
    24   14   20 2    
    25   14   15 1    
    26   15   16 1    
    27   15   33 1    
    28   15   34 1    
    29   16   17 1    
    30   16   35 1    
    31   16   36 1    
    32   17   37 1    
    33   17   38 1    
    34   17   18 1    
    35   18   19 1    
    36   19   39 1    
    37   21   26 ar   
    38   21   22 ar   
    39   22   23 ar   
    40   22   40 1    
    41   23   24 ar   
    42   23   41 1    
    43   24   25 ar   
    44   24   27 1    
    45   25   26 ar   
    46   25   42 1    
    47   26   43 1    
@<TRIPOS>SUBSTRUCTURE
     1 UNK         1 GROUP             0       ****    0 ROOT    
