@<TRIPOS>MOLECULE
ZINC45470684_5262
63   67    1
SMALL
USER_CHARGES


@<TRIPOS>ATOM
      1 C1          5.7325   54.1943   28.8672 C.3       1 UNK         0.0000 
      2 C2          5.3398   53.8756   27.4188 C.3       1 UNK         0.0000 
      3 H3          5.4991   52.8037   27.2775 H         1 UNK         0.0000 
      4 C4          3.8570   54.2335   27.1968 C.3       1 UNK         0.0000 
      5 C5          3.3269   53.7866   25.8255 C.3       1 UNK         0.0000 
      6 C6          4.3612   54.0962   24.7385 C.2       1 UNK         0.0000 
      7 C7          5.6816   54.4785   25.0191 C.2       1 UNK         0.0000 
      8 S8          6.6099   54.7515   23.5720 S.3       1 UNK         0.0000 
      9 C9          5.2524   54.3200   22.5829 C.ar      1 UNK         0.0000 
     10 C10         4.1376   53.9822   23.3561 C.ar      1 UNK         0.0000 
     11 C11         2.9183   53.5484   22.6700 C.ar      1 UNK         0.0000 
     12 O12         1.8299   53.2230   23.1382 O.2       1 UNK         0.0000 
     13 N13         3.1094   53.5491   21.3206 N.pl3     1 UNK         0.0000 
     14 H14         2.2689   53.3227   20.8117 H         1 UNK         0.0000 
     15 C15         4.2143   53.9617   20.5974 C.ar      1 UNK         0.0000 
     16 N16         5.2885   54.3365   21.2132 N.2       1 UNK         0.0000 
     17 C17         4.0066   54.0364   19.0606 C.3       1 UNK         0.0000 
     18 H18         3.3275   54.8612   18.8479 H         1 UNK         0.0000 
     19 C19         3.3658   52.7613   18.4603 C.3       1 UNK         0.0000 
     20 N20         5.2645   54.4321   18.2224 N.4       1 UNK         0.0000 
     21 C21         6.4768   53.4848   18.3410 C.3       1 UNK         0.0000 
     22 C22         7.4210   53.5745   17.1360 C.3       1 UNK         0.0000 
     23 C23         8.4558   54.7098   17.2069 C.3       1 UNK         0.0000 
     24 N24         7.9889   56.1010   17.3053 N.pl3     1 UNK         0.0000 
     25 C25         6.5535   56.3954   17.1469 C.3       1 UNK         0.0000 
     26 C26         5.6138   55.9387   18.2786 C.3       1 UNK         0.0000 
     27 C27         8.9188   57.1316   17.5896 C.ar      1 UNK         0.0000 
     28 C28        10.2936   56.8859   17.7323 C.ar      1 UNK         0.0000 
     29 C29        11.1478   57.9306   18.0783 C.ar      1 UNK         0.0000 
     30 C30        10.6365   59.2205   18.2471 C.ar      1 UNK         0.0000 
     31 C31         9.2663   59.4073   18.0386 C.ar      1 UNK         0.0000 
     32 N32         8.4239   58.3928   17.7380 N.ar      1 UNK         0.0000 
     33 C33        11.5448   60.3799   18.6362 C.3       1 UNK         0.0000 
     34 F34        11.1317   61.5212   18.0794 F         1 UNK         0.0000 
     35 F35        11.5066   60.5120   19.9630 F         1 UNK         0.0000 
     36 F36        12.8104   60.1689   18.2650 F         1 UNK         0.0000 
     37 C37         6.2491   54.6432   26.4230 C.3       1 UNK         0.0000 
     38 H38         5.5965   55.2518   29.0964 H         1 UNK         0.0000 
     39 H39         5.1044   53.6315   29.5603 H         1 UNK         0.0000 
     40 H40         6.7749   53.9405   29.0643 H         1 UNK         0.0000 
     41 H41         3.7072   55.2969   27.3395 H         1 UNK         0.0000 
     42 H42         3.2419   53.7736   27.9720 H         1 UNK         0.0000 
     43 H43         3.1056   52.7198   25.8428 H         1 UNK         0.0000 
     44 H44         2.3807   54.2835   25.6195 H         1 UNK         0.0000 
     45 H45         2.3313   52.6471   18.7828 H         1 UNK         0.0000 
     46 H46         3.3493   52.7861   17.3695 H         1 UNK         0.0000 
     47 H47         3.8937   51.8564   18.7619 H         1 UNK         0.0000 
     48 H48         6.9756   53.7007   19.2823 H         1 UNK         0.0000 
     49 H49         6.0398   52.4962   18.3877 H         1 UNK         0.0000 
     50 H50         7.9714   52.6351   17.0916 H         1 UNK         0.0000 
     51 H51         6.8718   53.6074   16.1950 H         1 UNK         0.0000 
     52 H52         9.0598   54.6337   16.2985 H         1 UNK         0.0000 
     53 H53         9.0822   54.4943   18.0751 H         1 UNK         0.0000 
     54 H54         6.2328   55.9278   16.2153 H         1 UNK         0.0000 
     55 H55         6.3642   57.4377   16.8910 H         1 UNK         0.0000 
     56 H56         4.6715   56.4780   18.1816 H         1 UNK         0.0000 
     57 H57         5.9960   56.1748   19.2729 H         1 UNK         0.0000 
     58 H58        10.7135   55.8982   17.6197 H         1 UNK         0.0000 
     59 H59        12.1995   57.7247   18.2232 H         1 UNK         0.0000 
     60 H60         8.8038   60.3801   18.1140 H         1 UNK         0.0000 
     61 H61         6.2916   55.6987   26.6890 H         1 UNK         0.0000 
     62 H62         7.2666   54.2556   26.4814 H         1 UNK         0.0000 
     63 H63         4.9473   54.2912   17.2731 H         1 UNK         0.0000 
@<TRIPOS>BOND
     1    1    2 1    
     2    1   38 1    
     3    1   39 1    
     4    1   40 1    
     5    2    3 1    
     6    2   37 1    
     7    2    4 1    
     8    4    5 1    
     9    4   41 1    
    10    4   42 1    
    11    5    6 1    
    12    5   43 1    
    13    5   44 1    
    14    6   10 1    
    15    6    7 2    
    16    7    8 1    
    17    7   37 1    
    18    8    9 1    
    19    9   16 ar   
    20    9   10 ar   
    21   10   11 ar   
    22   11   12 2    
    23   11   13 ar   
    24   13   14 1    
    25   13   15 ar   
    26   15   16 ar   
    27   15   17 1    
    28   17   18 1    
    29   17   19 1    
    30   17   20 1    
    31   19   45 1    
    32   19   46 1    
    33   19   47 1    
    34   20   26 1    
    35   20   21 1    
    36   20   63 1    
    37   21   22 1    
    38   21   48 1    
    39   21   49 1    
    40   22   23 1    
    41   22   50 1    
    42   22   51 1    
    43   23   24 1    
    44   23   52 1    
    45   23   53 1    
    46   24   25 1    
    47   24   27 1    
    48   25   26 1    
    49   25   54 1    
    50   25   55 1    
    51   26   56 1    
    52   26   57 1    
    53   27   32 ar   
    54   27   28 ar   
    55   28   29 ar   
    56   28   58 1    
    57   29   30 ar   
    58   29   59 1    
    59   30   31 ar   
    60   30   33 1    
    61   31   32 ar   
    62   31   60 1    
    63   33   34 1    
    64   33   35 1    
    65   33   36 1    
    66   37   61 1    
    67   37   62 1    
@<TRIPOS>SUBSTRUCTURE
     1 UNK         1 GROUP             0       ****    0 ROOT    
