@<TRIPOS>MOLECULE
ZINC01830025_5770
67   71    1
SMALL
USER_CHARGES


@<TRIPOS>ATOM
      1 C1          1.4885   51.4536   18.0603 C.3       1 UNK         0.0000 
      2 C2          1.1115   51.6889   19.5239 C.2       1 UNK         0.0000 
      3 C3         -0.1433   51.8392   20.0552 C.2       1 UNK         0.0000 
      4 C4         -0.2971   52.0964   21.5761 C.3       1 UNK         0.0000 
      5 H5         -1.0215   52.8967   21.7249 H         1 UNK         0.0000 
      6 N6          1.0241   52.5314   22.1325 N.am      1 UNK         0.0000 
      7 C7          1.1008   53.0883   23.3678 C.2       1 UNK         0.0000 
      8 O8          0.1196   53.3008   24.0831 O.2       1 UNK         0.0000 
      9 C9          2.4790   53.3718   23.7225 C.2       1 UNK         0.0000 
     10 C10         2.7722   53.8022   24.9758 C.2       1 UNK         0.0000 
     11 C11         4.0888   54.0987   25.5903 C.ar      1 UNK         0.0000 
     12 C12         5.1638   54.5901   24.8372 C.ar      1 UNK         0.0000 
     13 C13         6.3937   54.8525   25.4359 C.ar      1 UNK         0.0000 
     14 C14         6.5617   54.6264   26.7995 C.ar      1 UNK         0.0000 
     15 C15         5.5075   54.1410   27.5613 C.ar      1 UNK         0.0000 
     16 C16         4.2601   53.8709   26.9710 C.ar      1 UNK         0.0000 
     17 O17         3.1753   53.3881   27.6837 O.3       1 UNK         0.0000 
     18 C18         3.3037   53.1325   29.0771 C.3       1 UNK         0.0000 
     19 S19         3.5533   52.9864   22.3651 S.3       1 UNK         0.0000 
     20 C20         2.1808   52.3955   21.4403 C.2       1 UNK         0.0000 
     21 N21         2.2441   51.9190   20.2509 N.2       1 UNK         0.0000 
     22 C22        -0.8806   50.9131   22.3643 C.ar      1 UNK         0.0000 
     23 C23        -2.1971   50.9921   22.8272 C.ar      1 UNK         0.0000 
     24 C24        -2.7402   49.9496   23.5662 C.ar      1 UNK         0.0000 
     25 C25        -1.9698   48.8175   23.8498 C.ar      1 UNK         0.0000 
     26 C26        -0.6439   48.7493   23.4215 C.ar      1 UNK         0.0000 
     27 C27        -0.1024   49.7889   22.6691 C.ar      1 UNK         0.0000 
     28 O28        -2.4964   47.7793   24.5822 O.3       1 UNK         0.0000 
     29 C29        -3.4767   47.0012   24.0367 C.2       1 UNK         0.0000 
     30 O30        -3.8771   47.0434   22.8695 O.2       1 UNK         0.0000 
     31 C31        -3.9917   46.0634   25.0237 C.2       1 UNK         0.0000 
     32 C32        -3.6647   45.8066   26.3533 C.2       1 UNK         0.0000 
     33 C33        -4.4882   44.7582   26.7669 C.2       1 UNK         0.0000 
     34 C34        -5.2964   44.4362   25.6916 C.2       1 UNK         0.0000 
     35 O35        -4.9845   45.2195   24.6290 O.3       1 UNK         0.0000 
     36 C36        -1.4218   51.6970   19.3205 C.2       1 UNK         0.0000 
     37 O37        -2.4904   52.0954   19.7937 O.2       1 UNK         0.0000 
     38 O38        -1.3316   51.1129   18.1059 O.3       1 UNK         0.0000 
     39 C39        -2.4367   51.1200   17.2041 C.3       1 UNK         0.0000 
     40 C40        -2.4738   52.3902   16.3332 C.3       1 UNK         0.0000 
     41 O41        -2.7725   53.5336   17.1269 O.3       1 UNK         0.0000 
     42 C42        -2.6911   54.7540   16.4088 C.3       1 UNK         0.0000 
     43 H43         0.8306   51.9925   17.3806 H         1 UNK         0.0000 
     44 H44         2.5017   51.7868   17.8236 H         1 UNK         0.0000 
     45 H45         1.4359   50.3918   17.8313 H         1 UNK         0.0000 
     46 H46         1.9439   53.9757   25.6530 H         1 UNK         0.0000 
     47 H47         5.0570   54.7918   23.7826 H         1 UNK         0.0000 
     48 H48         7.2119   55.2303   24.8388 H         1 UNK         0.0000 
     49 H49         7.5079   54.8307   27.2777 H         1 UNK         0.0000 
     50 H50         5.6789   53.9828   28.6161 H         1 UNK         0.0000 
     51 H51         2.3507   52.7698   29.4591 H         1 UNK         0.0000 
     52 H52         4.0544   52.3699   29.2795 H         1 UNK         0.0000 
     53 H53         3.5536   54.0414   29.6286 H         1 UNK         0.0000 
     54 H54        -2.8061   51.8584   22.6145 H         1 UNK         0.0000 
     55 H55        -3.7599   50.0121   23.9176 H         1 UNK         0.0000 
     56 H56        -0.0371   47.8926   23.6720 H         1 UNK         0.0000 
     57 H57         0.9208   49.7269   22.3284 H         1 UNK         0.0000 
     58 H58        -2.9133   46.3142   26.9484 H         1 UNK         0.0000 
     59 H59        -4.4957   44.2883   27.7386 H         1 UNK         0.0000 
     60 H60        -6.0808   43.7091   25.5401 H         1 UNK         0.0000 
     61 H61        -2.2506   50.2814   16.5314 H         1 UNK         0.0000 
     62 H62        -3.4062   50.8911   17.6503 H         1 UNK         0.0000 
     63 H63        -1.5068   52.5088   15.8382 H         1 UNK         0.0000 
     64 H64        -3.2177   52.2714   15.5436 H         1 UNK         0.0000 
     65 H65        -2.8842   55.5889   17.0823 H         1 UNK         0.0000 
     66 H66        -1.6989   54.9019   15.9828 H         1 UNK         0.0000 
     67 H67        -3.4283   54.7937   15.6058 H         1 UNK         0.0000 
@<TRIPOS>BOND
     1    1    2 1    
     2    1   43 1    
     3    1   44 1    
     4    1   45 1    
     5    2   21 1    
     6    2    3 2    
     7    3    4 1    
     8    3   36 1    
     9    4    5 1    
    10    4    6 1    
    11    4   22 1    
    12    6   20 am   BACKBONE|DICT|INTERRES
    13    6    7 am   BACKBONE|DICT|INTERRES
    14    7    8 2    
    15    7    9 1    
    16    9   10 2    
    17    9   19 1    
    18   10   11 1    
    19   10   46 1    
    20   11   16 ar   
    21   11   12 ar   
    22   12   13 ar   
    23   12   47 1    
    24   13   14 ar   
    25   13   48 1    
    26   14   15 ar   
    27   14   49 1    
    28   15   16 ar   
    29   15   50 1    
    30   16   17 1    
    31   17   18 1    
    32   18   51 1    
    33   18   52 1    
    34   18   53 1    
    35   19   20 1    
    36   20   21 2    
    37   22   27 ar   
    38   22   23 ar   
    39   23   24 ar   
    40   23   54 1    
    41   24   25 ar   
    42   24   55 1    
    43   25   26 ar   
    44   25   28 1    
    45   26   27 ar   
    46   26   56 1    
    47   27   57 1    
    48   28   29 1    
    49   29   30 2    
    50   29   31 1    
    51   31   35 1    
    52   31   32 2    
    53   32   33 1    
    54   32   58 1    
    55   33   34 2    
    56   33   59 1    
    57   34   35 1    
    58   34   60 1    
    59   36   37 2    
    60   36   38 1    
    61   38   39 1    
    62   39   40 1    
    63   39   61 1    
    64   39   62 1    
    65   40   41 1    
    66   40   63 1    
    67   40   64 1    
    68   41   42 1    
    69   42   65 1    
    70   42   66 1    
    71   42   67 1    
@<TRIPOS>SUBSTRUCTURE
     1 UNK         1 GROUP             0       ****    0 ROOT    
