ZINC14652776_2957
                    3D
 Schrodinger Suite 2024-2.
 47 48  0  0  1  0            999 V2000
    0.1583   48.7951   24.6033 C   0  0  0  0  0  0
   -1.1611   49.0337   23.8488 C   0  0  0  0  0  0
   -1.1806   48.4052   22.4482 C   0  0  0  0  0  0
   -0.2129   49.0644   21.6343 O   0  0  0  0  0  0
    0.2598   48.4755   20.4733 C   0  0  0  0  0  0
   -0.3522   47.3357   19.9180 C   0  0  0  0  0  0
    0.1424   46.7490   18.7582 C   0  0  0  0  0  0
    1.2489   47.2967   18.1224 C   0  0  0  0  0  0
    1.8561   48.4313   18.6479 C   0  0  0  0  0  0
    1.3770   49.0440   19.8185 C   0  0  0  0  0  0
    2.0455   50.2970   20.3536 C   0  0  0  0  0  0
    2.0122   50.5651   21.5589 O   0  0  0  0  0  0
    2.6278   51.0977   19.4253 N   0  0  0  0  0  0
    3.0750   52.3793   19.7711 N   0  0  0  0  0  0
    4.1776   52.5781   20.5270 C   0  0  0  0  0  0
    4.9628   51.6993   20.8817 O   0  0  0  0  0  0
    4.4005   54.0250   20.9736 C   0  0  0  0  0  0
    3.7446   54.2031   22.2306 O   0  0  0  0  0  0
    4.4255   54.1305   23.4340 C   0  0  0  0  0  0
    5.8259   54.1519   23.5585 C   0  0  0  0  0  0
    6.4277   54.1566   24.8140 C   0  0  0  0  0  0
    5.6457   54.1256   25.9642 C   0  0  0  0  0  0
    4.2579   54.0973   25.8582 C   0  0  0  0  0  0
    3.6449   54.0952   24.6023 C   0  0  0  0  0  0
    2.1267   54.0364   24.5123 C   0  0  0  0  0  0
    6.4702   54.0966   27.6782 Br  0  0  0  0  0  0
    1.9178   46.4964   16.5272 Br  0  0  0  0  0  0
    0.1391   49.2664   25.5868 H   0  0  0  0  0  0
    0.3354   47.7309   24.7573 H   0  0  0  0  0  0
    1.0117   49.2019   24.0590 H   0  0  0  0  0  0
   -1.3471   50.1048   23.7685 H   0  0  0  0  0  0
   -1.9844   48.6277   24.4372 H   0  0  0  0  0  0
   -2.1672   48.5150   21.9960 H   0  0  0  0  0  0
   -0.9748   47.3380   22.5417 H   0  0  0  0  0  0
   -1.2217   46.8858   20.3727 H   0  0  0  0  0  0
   -0.3399   45.8741   18.3458 H   0  0  0  0  0  0
    2.7040   48.8310   18.1125 H   0  0  0  0  0  0
    3.0405   50.7585   18.5645 H   0  0  0  0  0  0
    2.3960   53.1006   19.5747 H   0  0  0  0  0  0
    3.9259   54.7066   20.2681 H   0  0  0  0  0  0
    5.4548   54.2821   20.9289 H   0  0  0  0  0  0
    6.4846   54.1802   22.7080 H   0  0  0  0  0  0
    7.5048   54.1748   24.8861 H   0  0  0  0  0  0
    3.6602   54.0633   26.7566 H   0  0  0  0  0  0
    1.7400   54.8996   23.9704 H   0  0  0  0  0  0
    1.8225   53.1472   23.9549 H   0  0  0  0  0  0
    1.6497   54.0046   25.4926 H   0  0  0  0  0  0
  1  2  1  0  0  0
  1 28  1  0  0  0
  1 29  1  0  0  0
  1 30  1  0  0  0
  2  3  1  0  0  0
  2 31  1  0  0  0
  2 32  1  0  0  0
  3  4  1  0  0  0
  3 33  1  0  0  0
  3 34  1  0  0  0
  4  5  1  0  0  0
  5 10  2  0  0  0
  5  6  1  0  0  0
  6  7  2  0  0  0
  6 35  1  0  0  0
  7  8  1  0  0  0
  7 36  1  0  0  0
  8  9  2  0  0  0
  8 27  1  0  0  0
  9 10  1  0  0  0
  9 37  1  0  0  0
 10 11  1  0  0  0
 11 12  2  0  0  0
 11 13  1  0  0  0
 13 14  1  0  0  0
 13 38  1  0  0  0
 14 15  1  0  0  0
 14 39  1  0  0  0
 15 16  2  0  0  0
 15 17  1  0  0  0
 17 18  1  0  0  0
 17 40  1  0  0  0
 17 41  1  0  0  0
 18 19  1  0  0  0
 19 24  2  0  0  0
 19 20  1  0  0  0
 20 21  2  0  0  0
 20 42  1  0  0  0
 21 22  1  0  0  0
 21 43  1  0  0  0
 22 23  2  0  0  0
 22 26  1  0  0  0
 23 24  1  0  0  0
 23 44  1  0  0  0
 24 25  1  0  0  0
 25 45  1  0  0  0
 25 46  1  0  0  0
 25 47  1  0  0  0
M  END
> <i_i_glide_confnum>
39

> <i_i_glide_lignum>
2958

> <i_i_glide_posenum>
147

> <i_i_glide_rotatable_bonds>
10

> <i_m_Source_File_Index>
4605

> <b_m_subgroup_collapsed>
0

> <r_i_docking_score>
-4.58226

> <r_i_glide_ecoul>
-5.06777

> <r_i_glide_eff_state_penalty>
0

> <r_i_glide_einternal>
6.81705

> <r_i_glide_emodel>
-56.4128

> <r_i_glide_energy>
-46.4923

> <r_i_glide_erotb>
0.734512

> <r_i_glide_esite>
-0.124659

> <r_i_glide_evdw>
-41.4245

> <r_i_glide_gscore>
-4.58226

> <r_i_glide_hbond>
-0.0267288

> <r_i_glide_ligand_efficiency>
-0.169713

> <r_i_glide_ligand_efficiency_ln>
-1.06667

> <r_i_glide_ligand_efficiency_sa>
-0.50914

> <r_i_glide_lipo>
-2.24232

> <r_i_glide_metal>
0

> <r_i_glide_rewards>
-0.0916667

> <s_i_glide_gridfile>
wee1_glide-grid

> <s_m_Source_File>
wee1_decoys_glide_SP.sdf

> <s_m_Source_Path>
/Users/zhangxujun/Desktop

> <s_m_entry_id>
4880

> <s_m_entry_name>
wee1_decoys_glide_SP.4605

> <s_m_subgroup_title>
wee1_decoys_glide_SP

> <s_m_subgroupid>
wee1_decoys_glide_SP


$$$$
