@<TRIPOS>MOLECULE
ZINC08887694_2897
81   87    1
SMALL
USER_CHARGES


@<TRIPOS>ATOM
      1 C1          2.7253   52.3732   19.8617 C.3       1 UNK         0.0000 
      2 C2          4.2169   52.2588   19.5220 C.3       1 UNK         0.0000 
      3 N3          4.9618   53.3355   20.2104 N.pl3     1 UNK         0.0000 
      4 C4          4.8343   53.2999   21.6846 C.3       1 UNK         0.0000 
      5 C5          3.3396   53.4262   22.0440 C.3       1 UNK         0.0000 
      6 C6          1.0374   52.2900   21.7328 C.3       1 UNK         0.0000 
      7 C7          0.7493   51.7048   23.1287 C.3       1 UNK         0.0000 
      8 N8          1.1234   52.6227   24.2037 N.pl3     1 UNK         0.0000 
      9 C9          0.9373   52.4083   25.5346 C.2       1 UNK         0.0000 
     10 S10        -0.1037   51.2561   26.1633 S.2       1 UNK         0.0000 
     11 N11         1.7363   53.2588   26.2406 N.pl3     1 UNK         0.0000 
     12 C12         1.9163   53.4326   27.6901 C.3       1 UNK         0.0000 
     13 C13         2.3241   52.1545   28.5056 C.3       1 UNK         0.0000 
     14 C14         2.6198   52.5024   29.9860 C.3       1 UNK         0.0000 
     15 C15         3.7993   53.4997   30.0409 C.3       1 UNK         0.0000 
     16 C16         3.4091   54.7951   29.2875 C.3       1 UNK         0.0000 
     17 C17         3.1094   54.4328   27.8228 C.3       1 UNK         0.0000 
     18 C18         2.1315   55.4410   29.8831 C.3       1 UNK         0.0000 
     19 C19         0.9684   54.4202   29.8632 C.3       1 UNK         0.0000 
     20 C20         1.3483   53.1198   30.6197 C.3       1 UNK         0.0000 
     21 C21         0.6755   54.0810   28.3855 C.3       1 UNK         0.0000 
     22 C22         5.8589   54.1502   19.5402 C.2       1 UNK         0.0000 
     23 S23         6.3066   55.6628   20.1291 S.2       1 UNK         0.0000 
     24 N24         6.3610   53.5794   18.3931 N.pl3     1 UNK         0.0000 
     25 C25         7.3340   54.0859   17.3979 C.3       1 UNK         0.0000 
     26 C26         8.7805   54.2824   17.9670 C.3       1 UNK         0.0000 
     27 C27         9.7784   54.6893   16.8529 C.3       1 UNK         0.0000 
     28 C28         9.3022   56.0082   16.1888 C.3       1 UNK         0.0000 
     29 C29         7.8968   55.8037   15.5603 C.3       1 UNK         0.0000 
     30 C30         6.8908   55.3997   16.6681 C.3       1 UNK         0.0000 
     31 C31         7.9627   54.6808   14.4972 C.3       1 UNK         0.0000 
     32 C32         8.4375   53.3682   15.1670 C.3       1 UNK         0.0000 
     33 C33         9.8440   53.5702   15.7838 C.3       1 UNK         0.0000 
     34 C34         7.4440   52.9812   16.2913 C.3       1 UNK         0.0000 
     35 H35         2.2013   51.5215   19.4227 H         1 UNK         0.0000 
     36 H36         2.2751   53.2947   19.4939 H         1 UNK         0.0000 
     37 H37         4.6037   51.2960   19.8502 H         1 UNK         0.0000 
     38 H38         4.3035   52.2793   18.4360 H         1 UNK         0.0000 
     39 H39         5.3964   54.0801   22.1970 H         1 UNK         0.0000 
     40 H40         5.2434   52.3582   22.0560 H         1 UNK         0.0000 
     41 H41         2.9062   54.3824   21.7372 H         1 UNK         0.0000 
     42 H42         3.2588   53.3200   23.1223 H         1 UNK         0.0000 
     43 H43         0.5380   51.6785   20.9790 H         1 UNK         0.0000 
     44 H44         0.7049   53.3183   21.6075 H         1 UNK         0.0000 
     45 H45         1.2805   50.7588   23.2604 H         1 UNK         0.0000 
     46 H46        -0.3178   51.4869   23.1975 H         1 UNK         0.0000 
     47 H47         1.5102   53.5108   23.9242 H         1 UNK         0.0000 
     48 H48         2.3390   53.8556   25.6908 H         1 UNK         0.0000 
     49 H49         3.2101   51.6971   28.0732 H         1 UNK         0.0000 
     50 H50         1.5502   51.3900   28.4815 H         1 UNK         0.0000 
     51 H51         2.8963   51.6065   30.5375 H         1 UNK         0.0000 
     52 H52         4.6816   53.0545   29.5764 H         1 UNK         0.0000 
     53 H53         4.0993   53.6938   31.0675 H         1 UNK         0.0000 
     54 H54         4.2374   55.4992   29.3241 H         1 UNK         0.0000 
     55 H55         2.8902   55.3479   27.2761 H         1 UNK         0.0000 
     56 H56         4.0071   54.0205   27.3564 H         1 UNK         0.0000 
     57 H57         1.8607   56.3288   29.3104 H         1 UNK         0.0000 
     58 H58         2.3015   55.8112   30.8819 H         1 UNK         0.0000 
     59 H59         0.0823   54.8625   30.3255 H         1 UNK         0.0000 
     60 H60         1.5062   53.2976   31.6810 H         1 UNK         0.0000 
     61 H61         0.5208   52.4081   30.5720 H         1 UNK         0.0000 
     62 H62        -0.1969   53.4306   28.3209 H         1 UNK         0.0000 
     63 H63         0.4054   55.0075   27.8823 H         1 UNK         0.0000 
     64 H64         6.0467   52.6389   18.2013 H         1 UNK         0.0000 
     65 H65         8.8041   55.0433   18.7448 H         1 UNK         0.0000 
     66 H66         9.1296   53.3676   18.4462 H         1 UNK         0.0000 
     67 H67        10.7706   54.8354   17.2866 H         1 UNK         0.0000 
     68 H68         9.2751   56.8142   16.9259 H         1 UNK         0.0000 
     69 H69        10.0148   56.3230   15.4231 H         1 UNK         0.0000 
     70 H70         7.5676   56.7326   15.0907 H         1 UNK         0.0000 
     71 H71         5.8949   55.2744   16.2382 H         1 UNK         0.0000 
     72 H72         6.8037   56.2339   17.3618 H         1 UNK         0.0000 
     73 H73         6.9828   54.5389   14.0390 H         1 UNK         0.0000 
     74 H74         8.6353   54.9630   13.6870 H         1 UNK         0.0000 
     75 H75         8.4770   52.5732   14.4208 H         1 UNK         0.0000 
     76 H76        10.5662   53.8256   15.0071 H         1 UNK         0.0000 
     77 H77        10.1961   52.6394   16.2313 H         1 UNK         0.0000 
     78 H78         7.7540   52.0335   16.7363 H         1 UNK         0.0000 
     79 H79         6.4615   52.7895   15.8543 H         1 UNK         0.0000 
     80 N80         2.5495   52.2647   21.3903 N.4       1 UNK         0.0000 
     81 H81         2.9324   51.3770   21.6918 H         1 UNK         0.0000 
@<TRIPOS>BOND
     1    1    2 1    
     2    1   35 1    
     3    1   36 1    
     4    1   80 1    
     5    2    3 1    
     6    2   37 1    
     7    2   38 1    
     8    3    4 1    
     9    3   22 1    
    10    4    5 1    
    11    4   39 1    
    12    4   40 1    
    13    5   41 1    
    14    5   42 1    
    15    5   80 1    
    16    6    7 1    
    17    6   43 1    
    18    6   44 1    
    19    6   80 1    
    20    7    8 1    
    21    7   45 1    
    22    7   46 1    
    23    8    9 1    
    24    8   47 1    
    25    9   10 2    
    26    9   11 1    
    27   11   12 1    
    28   11   48 1    
    29   12   17 1    
    30   12   21 1    
    31   12   13 1    
    32   13   14 1    
    33   13   49 1    
    34   13   50 1    
    35   14   20 1    
    36   14   15 1    
    37   14   51 1    
    38   15   16 1    
    39   15   52 1    
    40   15   53 1    
    41   16   17 1    
    42   16   18 1    
    43   16   54 1    
    44   17   55 1    
    45   17   56 1    
    46   18   19 1    
    47   18   57 1    
    48   18   58 1    
    49   19   20 1    
    50   19   21 1    
    51   19   59 1    
    52   20   60 1    
    53   20   61 1    
    54   21   62 1    
    55   21   63 1    
    56   22   23 2    
    57   22   24 1    
    58   24   25 1    
    59   24   64 1    
    60   25   30 1    
    61   25   34 1    
    62   25   26 1    
    63   26   27 1    
    64   26   65 1    
    65   26   66 1    
    66   27   33 1    
    67   27   28 1    
    68   27   67 1    
    69   28   29 1    
    70   28   68 1    
    71   28   69 1    
    72   29   30 1    
    73   29   31 1    
    74   29   70 1    
    75   30   71 1    
    76   30   72 1    
    77   31   32 1    
    78   31   73 1    
    79   31   74 1    
    80   32   33 1    
    81   32   34 1    
    82   32   75 1    
    83   33   76 1    
    84   33   77 1    
    85   34   78 1    
    86   34   79 1    
    87   80   81 1    
@<TRIPOS>SUBSTRUCTURE
     1 UNK         1 GROUP             0       ****    0 ROOT    
