@<TRIPOS>MOLECULE
ZINC22879829_5198
45   47    1
SMALL
USER_CHARGES


@<TRIPOS>ATOM
      1 C1          5.9382   58.8882   15.6050 C.2       1 UNK         0.0000 
      2 C2          6.3557   58.1358   16.7080 C.2       1 UNK         0.0000 
      3 C3          6.1565   56.7642   16.5445 C.2       1 UNK         0.0000 
      4 S4          5.5107   56.4133   14.9564 S.3       1 UNK         0.0000 
      5 C5          5.4540   58.1016   14.5708 C.2       1 UNK         0.0000 
      6 C6          6.5190   55.7247   17.4736 C.2       1 UNK         0.0000 
      7 O7          7.3787   55.9136   18.3359 O.2       1 UNK         0.0000 
      8 N8          5.8226   54.5804   17.3418 N.am      1 UNK         0.0000 
      9 C9          5.9370   53.4024   18.2080 C.3       1 UNK         0.0000 
     10 C10         5.0976   53.5880   19.4874 C.2       1 UNK         0.0000 
     11 O11         5.1278   54.6652   20.0864 O.2       1 UNK         0.0000 
     12 N12         4.4198   52.4962   19.9102 N.am      1 UNK         0.0000 
     13 C13         3.5897   52.3975   21.0288 C.2       1 UNK         0.0000 
     14 N14         3.0195   51.2747   21.3766 N.2       1 UNK         0.0000 
     15 C15         2.3040   51.4112   22.4818 C.2       1 UNK         0.0000 
     16 C16         2.2753   52.6662   23.1063 C.2       1 UNK         0.0000 
     17 S17         3.1979   53.7249   22.0816 S.3       1 UNK         0.0000 
     18 C18         1.6141   53.1527   24.3909 C.3       1 UNK         0.0000 
     19 C19         2.5735   53.4491   25.5523 C.ar      1 UNK         0.0000 
     20 C20         3.7972   54.0965   25.3467 C.ar      1 UNK         0.0000 
     21 C21         4.7006   54.3020   26.3877 C.ar      1 UNK         0.0000 
     22 C22         4.3495   53.9014   27.6803 C.ar      1 UNK         0.0000 
     23 C23         3.1130   53.2918   27.9249 C.ar      1 UNK         0.0000 
     24 C24         2.2318   53.0710   26.8559 C.ar      1 UNK         0.0000 
     25 C25         2.7598   52.8581   29.3452 C.3       1 UNK         0.0000 
     26 F26         2.5511   53.9477   30.0815 F         1 UNK         0.0000 
     27 F27         1.6624   52.1025   29.3908 F         1 UNK         0.0000 
     28 F28         3.7619   52.1617   29.8843 F         1 UNK         0.0000 
     29 C29         6.0572   54.9259   26.0732 C.3       1 UNK         0.0000 
     30 F30         5.9211   55.9908   25.2816 F         1 UNK         0.0000 
     31 F31         6.7042   55.2964   27.1750 F         1 UNK         0.0000 
     32 F32         6.8064   54.0315   25.4342 F         1 UNK         0.0000 
     33 H33         5.9916   59.9675   15.5653 H         1 UNK         0.0000 
     34 H34         6.7699   58.5829   17.6018 H         1 UNK         0.0000 
     35 H35         5.0760   58.4321   13.6143 H         1 UNK         0.0000 
     36 H36         5.1291   54.5321   16.6119 H         1 UNK         0.0000 
     37 H37         5.6054   52.5293   17.6437 H         1 UNK         0.0000 
     38 H38         6.9777   53.2269   18.4806 H         1 UNK         0.0000 
     39 H39         4.5268   51.6563   19.3464 H         1 UNK         0.0000 
     40 H40         1.8046   50.5345   22.8682 H         1 UNK         0.0000 
     41 H41         1.0706   54.0761   24.1865 H         1 UNK         0.0000 
     42 H42         0.8601   52.4345   24.7156 H         1 UNK         0.0000 
     43 H43         4.0915   54.4334   24.3700 H         1 UNK         0.0000 
     44 H44         5.0402   54.0531   28.4984 H         1 UNK         0.0000 
     45 H45         1.2834   52.5822   27.0311 H         1 UNK         0.0000 
@<TRIPOS>BOND
     1    1    5 2    
     2    1    2 1    
     3    1   33 1    
     4    2    3 2    
     5    2   34 1    
     6    3    4 1    
     7    3    6 1    
     8    4    5 1    
     9    5   35 1    
    10    6    7 2    
    11    6    8 am   BACKBONE|DICT|INTERRES
    12    8    9 1    
    13    8   36 1    
    14    9   10 1    
    15    9   37 1    
    16    9   38 1    
    17   10   11 2    
    18   10   12 am   BACKBONE|DICT|INTERRES
    19   12   13 am   BACKBONE|DICT|INTERRES
    20   12   39 1    
    21   13   17 1    
    22   13   14 2    
    23   14   15 1    
    24   15   16 2    
    25   15   40 1    
    26   16   17 1    
    27   16   18 1    
    28   18   19 1    
    29   18   41 1    
    30   18   42 1    
    31   19   24 ar   
    32   19   20 ar   
    33   20   21 ar   
    34   20   43 1    
    35   21   22 ar   
    36   21   29 1    
    37   22   23 ar   
    38   22   44 1    
    39   23   24 ar   
    40   23   25 1    
    41   24   45 1    
    42   25   26 1    
    43   25   27 1    
    44   25   28 1    
    45   29   30 1    
    46   29   31 1    
    47   29   32 1    
@<TRIPOS>SUBSTRUCTURE
     1 UNK         1 GROUP             0       ****    0 ROOT    
