@<TRIPOS>MOLECULE
ZINC63584608_756
57   61    1
SMALL
USER_CHARGES


@<TRIPOS>ATOM
      1 C1         -0.2739   48.4857   24.0820 C.3       1 UNK         0.0000 
      2 C2          0.2947   49.8158   23.6165 C.ar      1 UNK         0.0000 
      3 C3         -0.3480   51.0042   23.9662 C.ar      1 UNK         0.0000 
      4 C4          0.1957   52.2283   23.5834 C.ar      1 UNK         0.0000 
      5 C5          1.3989   52.2707   22.8696 C.ar      1 UNK         0.0000 
      6 C6          2.0134   51.0766   22.4805 C.ar      1 UNK         0.0000 
      7 C7          1.4721   49.8533   22.8642 C.ar      1 UNK         0.0000 
      8 C8          2.0291   53.6243   22.5305 C.3       1 UNK         0.0000 
      9 N9          3.3679   53.8180   23.1067 N.pl3     1 UNK         0.0000 
     10 C10         3.5775   53.8736   24.4809 C.2       1 UNK         0.0000 
     11 C11         2.6130   53.6968   25.4915 C.2       1 UNK         0.0000 
     12 C12         3.1282   53.7714   26.7736 C.2       1 UNK         0.0000 
     13 S13         4.8208   54.0972   26.7704 S.3       1 UNK         0.0000 
     14 C14         4.8467   54.1543   25.0262 C.2       1 UNK         0.0000 
     15 C15         6.0886   54.4965   24.3340 C.2       1 UNK         0.0000 
     16 O16         7.1042   54.8213   24.9506 O.2       1 UNK         0.0000 
     17 C17         6.0197   54.5017   22.8719 C.2       1 UNK         0.0000 
     18 C18         6.8803   55.2531   22.1434 C.2       1 UNK         0.0000 
     19 N19         6.9447   55.3802   20.7776 N.pl3     1 UNK         0.0000 
     20 C20         8.1721   55.5956   20.0264 C.3       1 UNK         0.0000 
     21 C21         7.9434   55.6406   18.5064 C.3       1 UNK         0.0000 
     22 C22         7.0478   56.7700   18.0313 C.2       1 UNK         0.0000 
     23 C23         5.7556   56.7683   17.6527 C.2       1 UNK         0.0000 
     24 C24         4.7592   55.6852   17.6210 C.2       1 UNK         0.0000 
     25 C25         3.4887   55.9297   17.2428 C.2       1 UNK         0.0000 
     26 C26         3.1365   57.2911   16.8600 C.2       1 UNK         0.0000 
     27 C27         4.0453   58.3028   16.8816 C.2       1 UNK         0.0000 
     28 C28         5.3648   58.0581   17.2815 C.2       1 UNK         0.0000 
     29 N29         6.3636   58.8966   17.4153 N.pl3     1 UNK         0.0000 
     30 C30         7.5643   58.1860   17.8789 C.3       1 UNK         0.0000 
     31 S31         4.7642   53.5127   22.0183 S.o2      1 UNK         0.0000 
     32 O32         5.1583   52.1038   22.0762 O.2       1 UNK         0.0000 
     33 O33         4.4945   54.0692   20.6866 O.2       1 UNK         0.0000 
     34 H34        -0.6348   48.5653   25.1087 H         1 UNK         0.0000 
     35 H35        -1.1078   48.1820   23.4507 H         1 UNK         0.0000 
     36 H36         0.4841   47.6994   24.0850 H         1 UNK         0.0000 
     37 H37        -1.2591   50.9800   24.5472 H         1 UNK         0.0000 
     38 H38        -0.3016   53.1419   23.8762 H         1 UNK         0.0000 
     39 H39         2.9215   51.0855   21.8983 H         1 UNK         0.0000 
     40 H40         1.9745   48.9363   22.5884 H         1 UNK         0.0000 
     41 H41         2.0900   53.6966   21.4457 H         1 UNK         0.0000 
     42 H42         1.3846   54.4397   22.8546 H         1 UNK         0.0000 
     43 H43         1.5679   53.5092   25.3125 H         1 UNK         0.0000 
     44 H44         2.5990   53.6503   27.7077 H         1 UNK         0.0000 
     45 H45         7.6426   55.8539   22.6261 H         1 UNK         0.0000 
     46 H46         6.2623   54.8414   20.2552 H         1 UNK         0.0000 
     47 H47         8.6717   56.4966   20.3793 H         1 UNK         0.0000 
     48 H48         8.8577   54.7805   20.2438 H         1 UNK         0.0000 
     49 H49         8.9022   55.7200   17.9912 H         1 UNK         0.0000 
     50 H50         7.5132   54.6914   18.1815 H         1 UNK         0.0000 
     51 H51         5.0091   54.6732   17.9100 H         1 UNK         0.0000 
     52 H52         2.7506   55.1390   17.2331 H         1 UNK         0.0000 
     53 H53         2.1210   57.5064   16.5540 H         1 UNK         0.0000 
     54 H54         3.7323   59.2966   16.5928 H         1 UNK         0.0000 
     55 H55         7.8865   58.6440   18.8145 H         1 UNK         0.0000 
     56 H56         8.3360   58.2964   17.1165 H         1 UNK         0.0000 
     57 H57         6.3047   59.9156   17.2816 H         1 UNK         0.0000 
@<TRIPOS>BOND
     1    1    2 1    
     2    1   34 1    
     3    1   35 1    
     4    1   36 1    
     5    2    7 ar   
     6    2    3 ar   
     7    3    4 ar   
     8    3   37 1    
     9    4    5 ar   
    10    4   38 1    
    11    5    6 ar   
    12    5    8 1    
    13    6    7 ar   
    14    6   39 1    
    15    7   40 1    
    16    8    9 1    
    17    8   41 1    
    18    8   42 1    
    19    9   31 1    
    20    9   10 1    
    21   10   14 2    
    22   10   11 1    
    23   11   12 2    
    24   11   43 1    
    25   12   13 1    
    26   12   44 1    
    27   13   14 1    
    28   14   15 1    
    29   15   16 2    
    30   15   17 1    
    31   17   18 2    
    32   17   31 1    
    33   18   19 1    
    34   18   45 1    
    35   19   20 1    
    36   19   46 1    
    37   20   21 1    
    38   20   47 1    
    39   20   48 1    
    40   21   22 1    
    41   21   49 1    
    42   21   50 1    
    43   22   30 1    
    44   22   23 2    
    45   23   28 1    
    46   23   24 1    
    47   24   25 2    
    48   24   51 1    
    49   25   26 1    
    50   25   52 1    
    51   26   27 2    
    52   26   53 1    
    53   27   28 1    
    54   27   54 1    
    55   28   29 2    
    56   29   30 1    
    57   29   57 1    
    58   30   55 1    
    59   30   56 1    
    60   31   32 2    
    61   31   33 2    
@<TRIPOS>SUBSTRUCTURE
     1 UNK         1 GROUP             0       ****    0 ROOT    
