ZINC58079580_293
                    3D
 Schrodinger Suite 2024-2.
 61 64  0  0  1  0            999 V2000
    1.3505   54.9623   16.2297 C   0  0  0  0  0  0
    2.8419   54.6704   16.4714 C   0  0  2  0  0  0
    3.0365   53.5882   17.5509 C   0  0  0  0  0  0
    4.5260   53.2613   17.7734 C   0  0  0  0  0  0
    5.2673   54.5709   18.1624 N   0  3  2  0  0  0
    5.1042   55.6565   17.0637 C   0  0  0  0  0  0
    3.5994   55.9403   16.9027 C   0  0  0  0  0  0
    6.7417   54.2963   18.5766 C   0  0  2  0  0  0
    6.6144   53.4526   19.2558 H   0  0  0  0  0  0
    7.2996   55.5023   19.4011 C   0  0  0  0  0  0
    7.3585   55.2969   20.8504 N   0  0  0  0  0  0
    6.3089   55.0258   21.6439 C   0  0  0  0  0  0
    5.1585   54.8945   21.2233 O   0  0  0  0  0  0
    6.7028   54.9127   22.9287 N   0  0  0  0  0  0
    5.9431   54.5935   24.0717 C   0  0  0  0  0  0
    4.5556   54.3658   24.0870 C   0  0  0  0  0  0
    3.9627   54.0298   25.3147 C   0  0  0  0  0  0
    2.6630   53.6967   25.7969 C   0  0  0  0  0  0
    2.6847   53.4454   27.0807 N   0  0  0  0  0  0
    3.9712   53.5516   27.4945 N   0  0  0  0  0  0
    4.7924   53.9468   26.4537 C   0  0  0  0  0  0
    6.1105   54.1796   26.4798 N   0  0  0  0  0  0
    6.6506   54.5007   25.2749 C   0  0  0  0  0  0
    4.3436   53.3062   28.8945 C   0  0  0  0  0  0
    4.4290   54.6513   29.6309 C   0  0  0  0  0  0
    3.4001   52.3126   29.6109 C   0  0  0  0  0  0
    7.5833   53.8530   17.3773 C   0  0  0  0  0  0
    7.7679   52.5562   16.8910 C   0  0  0  0  0  0
    8.6088   52.4588   15.7822 C   0  0  0  0  0  0
    9.1057   53.6879   15.3926 C   0  0  0  0  0  0
    8.5190   54.9648   16.4034 S   0  0  0  0  0  0
    0.8581   55.3124   17.1397 H   0  0  0  0  0  0
    1.2147   55.7310   15.4651 H   0  0  0  0  0  0
    0.8239   54.0679   15.8922 H   0  0  0  0  0  0
    3.2864   54.3095   15.5413 H   0  0  0  0  0  0
    2.4971   52.6804   17.2697 H   0  0  0  0  0  0
    2.5764   53.9068   18.4854 H   0  0  0  0  0  0
    4.9979   52.8406   16.8855 H   0  0  0  0  0  0
    4.6290   52.5622   18.6047 H   0  0  0  0  0  0
    5.6101   56.5666   17.3913 H   0  0  0  0  0  0
    5.5649   55.2884   16.1439 H   0  0  0  0  0  0
    3.1801   56.3383   17.8283 H   0  0  0  0  0  0
    3.4517   56.7353   16.1685 H   0  0  0  0  0  0
    6.7412   56.4231   19.2263 H   0  0  0  0  0  0
    8.3116   55.7503   19.0785 H   0  0  0  0  0  0
    8.2797   55.3231   21.2639 H   0  0  0  0  0  0
    7.6863   55.0564   23.1115 H   0  0  0  0  0  0
    3.9469   54.4280   23.1992 H   0  0  0  0  0  0
    1.7430   53.6394   25.2359 H   0  0  0  0  0  0
    7.7123   54.6741   25.2830 H   0  0  0  0  0  0
    5.3400   52.8574   28.8779 H   0  0  0  0  0  0
    4.7045   54.4966   30.6694 H   0  0  0  0  0  0
    3.4784   55.1875   29.6125 H   0  0  0  0  0  0
    5.1908   55.2971   29.1918 H   0  0  0  0  0  0
    3.7590   52.0906   30.6169 H   0  0  0  0  0  0
    2.3873   52.7087   29.7047 H   0  0  0  0  0  0
    3.3373   51.3682   29.0694 H   0  0  0  0  0  0
    7.2918   51.6958   17.3399 H   0  0  0  0  0  0
    8.8475   51.5258   15.2897 H   0  0  0  0  0  0
    9.7776   53.9045   14.5749 H   0  0  0  0  0  0
    4.8207   54.9118   19.0074 H   0  0  0  0  0  0
  1  2  1  0  0  0
  1 32  1  0  0  0
  1 33  1  0  0  0
  1 34  1  0  0  0
  2  7  1  0  0  0
  2  3  1  0  0  0
  2 35  1  0  0  0
  3  4  1  0  0  0
  3 36  1  0  0  0
  3 37  1  0  0  0
  4  5  1  0  0  0
  4 38  1  0  0  0
  4 39  1  0  0  0
  5  6  1  0  0  0
  5  8  1  0  0  0
  5 61  1  0  0  0
  6  7  1  0  0  0
  6 40  1  0  0  0
  6 41  1  0  0  0
  7 42  1  0  0  0
  7 43  1  0  0  0
  8  9  1  0  0  0
  8 10  1  0  0  0
  8 27  1  0  0  0
 10 11  1  0  0  0
 10 44  1  0  0  0
 10 45  1  0  0  0
 11 12  1  0  0  0
 11 46  1  0  0  0
 12 13  2  0  0  0
 12 14  1  0  0  0
 14 15  1  0  0  0
 14 47  1  0  0  0
 15 23  2  0  0  0
 15 16  1  0  0  0
 16 17  2  0  0  0
 16 48  1  0  0  0
 17 21  1  0  0  0
 17 18  1  0  0  0
 18 19  2  0  0  0
 18 49  1  0  0  0
 19 20  1  0  0  0
 20 21  1  0  0  0
 20 24  1  0  0  0
 21 22  2  0  0  0
 22 23  1  0  0  0
 23 50  1  0  0  0
 24 25  1  0  0  0
 24 26  1  0  0  0
 24 51  1  0  0  0
 25 52  1  0  0  0
 25 53  1  0  0  0
 25 54  1  0  0  0
 26 55  1  0  0  0
 26 56  1  0  0  0
 26 57  1  0  0  0
 27 31  1  0  0  0
 27 28  2  0  0  0
 28 29  1  0  0  0
 28 58  1  0  0  0
 29 30  2  0  0  0
 29 59  1  0  0  0
 30 31  1  0  0  0
 30 60  1  0  0  0
M  CHG  1   5   1
M  END
> <i_i_glide_confnum>
178

> <i_i_glide_lignum>
294

> <i_i_glide_posenum>
220

> <i_i_glide_rotatable_bonds>
8

> <i_m_Source_File_Index>
4834

> <b_m_subgroup_collapsed>
0

> <r_i_docking_score>
-5.33965

> <r_i_glide_ecoul>
-2.58432

> <r_i_glide_eff_state_penalty>
0

> <r_i_glide_einternal>
8.44423

> <r_i_glide_emodel>
-55.3342

> <r_i_glide_energy>
-41.4114

> <r_i_glide_erotb>
0.76023

> <r_i_glide_esite>
-0.00675053

> <r_i_glide_evdw>
-38.8271

> <r_i_glide_gscore>
-5.33965

> <r_i_glide_hbond>
-0.294667

> <r_i_glide_ligand_efficiency>
-0.177988

> <r_i_glide_ligand_efficiency_ln>
-1.21323

> <r_i_glide_ligand_efficiency_sa>
-0.553051

> <r_i_glide_lipo>
-2.08321

> <r_i_glide_metal>
0

> <r_i_glide_rewards>
-1.38625

> <s_i_glide_gridfile>
wee1_glide-grid

> <s_m_Source_File>
wee1_decoys_glide_SP.sdf

> <s_m_Source_Path>
/Users/zhangxujun/Desktop

> <s_m_entry_id>
5109

> <s_m_entry_name>
wee1_decoys_glide_SP.4834

> <s_m_subgroup_title>
wee1_decoys_glide_SP

> <s_m_subgroupid>
wee1_decoys_glide_SP


$$$$
