@<TRIPOS>MOLECULE
ZINC24787470_1999
52   55    1
SMALL
USER_CHARGES


@<TRIPOS>ATOM
      1 C1          0.1323   53.7352   31.0099 C.3       1 UNK         0.0000 
      2 C2          0.8351   52.4850   30.4535 C.3       1 UNK         0.0000 
      3 N3          1.6589   52.7914   29.2435 N.pl3     1 UNK         0.0000 
      4 C4          2.9910   53.2177   29.2997 C.ar      1 UNK         0.0000 
      5 O5          3.5049   53.1588   30.4816 O.co2     1 UNK         0.0000 
      6 C6          3.7064   53.6488   28.2302 C.ar      1 UNK         0.0000 
      7 C7          5.1077   54.0912   28.2765 C.ar      1 UNK         0.0000 
      8 C8          5.7497   54.4762   27.1529 C.ar      1 UNK         0.0000 
      9 C9          5.0585   54.4707   25.8535 C.ar      1 UNK         0.0000 
     10 C10         3.7452   54.0929   25.8032 C.ar      1 UNK         0.0000 
     11 C11         3.0065   53.6422   26.9535 C.ar      1 UNK         0.0000 
     12 N12         1.7951   53.2147   26.8859 N.2       1 UNK         0.0000 
     13 C13         1.0656   52.7259   27.9744 C.ar      1 UNK         0.0000 
     14 S14        -0.4453   52.0956   27.6195 S.2       1 UNK         0.0000 
     15 C15         5.7900   54.8792   24.6640 C.2       1 UNK         0.0000 
     16 O16         6.7065   55.6967   24.7333 O.2       1 UNK         0.0000 
     17 N17         5.3738   54.2852   23.5189 N.am      1 UNK         0.0000 
     18 C18         5.7562   54.4967   22.1835 C.ar      1 UNK         0.0000 
     19 C19         5.0930   53.7276   21.2249 C.ar      1 UNK         0.0000 
     20 C20         5.3994   53.8653   19.8734 C.ar      1 UNK         0.0000 
     21 C21         6.3709   54.7795   19.4687 C.ar      1 UNK         0.0000 
     22 C22         7.0350   55.5551   20.4212 C.ar      1 UNK         0.0000 
     23 C23         6.7245   55.4216   21.7719 C.ar      1 UNK         0.0000 
     24 N24         6.7268   54.8253   18.1169 N.pl3     1 UNK         0.0000 
     25 S25         6.7983   56.3293   17.1768 S.o2      1 UNK         0.0000 
     26 O26         7.3763   57.3817   18.0200 O.2       1 UNK         0.0000 
     27 O27         7.4103   55.9694   15.8935 O.2       1 UNK         0.0000 
     28 C28         5.1064   56.7727   16.8127 C.ar      1 UNK         0.0000 
     29 C29         4.7191   58.1144   16.8263 C.ar      1 UNK         0.0000 
     30 C30         3.4146   58.4590   16.4843 C.ar      1 UNK         0.0000 
     31 C31         2.5045   57.4633   16.1351 C.ar      1 UNK         0.0000 
     32 C32         2.8860   56.1246   16.1305 C.ar      1 UNK         0.0000 
     33 C33         4.1922   55.7769   16.4633 C.ar      1 UNK         0.0000 
     34 F34         1.2400   57.7968   15.7983 F         1 UNK         0.0000 
     35 H35        -0.4940   53.4739   31.8617 H         1 UNK         0.0000 
     36 H36        -0.4971   54.2021   30.2533 H         1 UNK         0.0000 
     37 H37         0.8507   54.4795   31.3519 H         1 UNK         0.0000 
     38 H38         1.4626   52.0650   31.2403 H         1 UNK         0.0000 
     39 H39         0.1006   51.6961   30.2835 H         1 UNK         0.0000 
     40 H40         5.6375   54.1163   29.2181 H         1 UNK         0.0000 
     41 H41         6.7801   54.7924   27.2277 H         1 UNK         0.0000 
     42 H42         3.2122   54.1122   24.8625 H         1 UNK         0.0000 
     43 H43         4.6536   53.5917   23.6428 H         1 UNK         0.0000 
     44 H44         4.3399   53.0103   21.5153 H         1 UNK         0.0000 
     45 H45         4.8932   53.2432   19.1482 H         1 UNK         0.0000 
     46 H46         7.8229   56.2326   20.1295 H         1 UNK         0.0000 
     47 H47         7.2726   56.0308   22.4716 H         1 UNK         0.0000 
     48 H48         6.6298   53.9797   17.5780 H         1 UNK         0.0000 
     49 H49         5.4246   58.8926   17.0867 H         1 UNK         0.0000 
     50 H50         3.1119   59.4974   16.4874 H         1 UNK         0.0000 
     51 H51         2.1735   55.3599   15.8587 H         1 UNK         0.0000 
     52 H52         4.4917   54.7390   16.4391 H         1 UNK         0.0000 
@<TRIPOS>BOND
     1    1    2 1    
     2    1   35 1    
     3    1   36 1    
     4    1   37 1    
     5    2    3 1    
     6    2   38 1    
     7    2   39 1    
     8    3   13 ar   
     9    3    4 ar   
    10    4    5 1    
    11    4    6 ar   
    12    6   11 ar   
    13    6    7 ar   
    14    7    8 ar   
    15    7   40 1    
    16    8    9 ar   
    17    8   41 1    
    18    9   10 ar   
    19    9   15 1    
    20   10   11 ar   
    21   10   42 1    
    22   11   12 ar   
    23   12   13 ar   
    24   13   14 2    
    25   15   16 2    
    26   15   17 am   BACKBONE|DICT|INTERRES
    27   17   18 1    
    28   17   43 1    
    29   18   23 ar   
    30   18   19 ar   
    31   19   20 ar   
    32   19   44 1    
    33   20   21 ar   
    34   20   45 1    
    35   21   22 ar   
    36   21   24 1    
    37   22   23 ar   
    38   22   46 1    
    39   23   47 1    
    40   24   25 1    
    41   24   48 1    
    42   25   26 2    
    43   25   27 2    
    44   25   28 1    
    45   28   33 ar   
    46   28   29 ar   
    47   29   30 ar   
    48   29   49 1    
    49   30   31 ar   
    50   30   50 1    
    51   31   32 ar   
    52   31   34 1    
    53   32   33 ar   
    54   32   51 1    
    55   33   52 1    
@<TRIPOS>SUBSTRUCTURE
     1 UNK         1 GROUP             0       ****    0 ROOT    
