ZINC09427854_923
                    3D
 Schrodinger Suite 2024-2.
 53 57  0  0  1  0            999 V2000
    4.0647   53.5694   15.8934 C   0  0  0  0  0  0
    4.4726   54.8550   15.5543 C   0  0  0  0  0  0
    5.0404   55.7051   16.5005 C   0  0  0  0  0  0
    5.1872   55.2314   17.8127 C   0  0  0  0  0  0
    4.7611   53.9203   18.1899 C   0  0  0  0  0  0
    4.2029   53.0946   17.1971 C   0  0  0  0  0  0
    4.9922   53.6658   19.5759 C   0  0  0  0  0  0
    5.5383   54.7634   20.2390 C   0  0  0  0  0  0
    5.9037   56.0951   19.1601 S   0  0  0  0  0  0
    5.9039   54.8967   21.6247 C   0  0  0  0  0  0
    6.9186   55.5069   21.9634 O   0  0  0  0  0  0
    4.9841   54.3540   22.4519 N   0  0  0  0  0  0
    4.9464   54.3141   23.8481 C   0  0  0  0  0  0
    3.8652   53.8376   24.6345 C   0  0  0  0  0  0
    4.1799   53.9151   26.0334 C   0  0  0  0  0  0
    5.4635   54.4432   26.2577 C   0  0  0  0  0  0
    6.2907   54.8574   24.8097 S   0  0  0  0  0  0
    6.1408   54.5798   27.6073 C   0  0  0  0  0  0
    5.0735   54.4972   28.7087 C   0  0  0  0  0  0
    4.1634   53.2868   28.5112 C   0  0  0  0  0  0
    3.3202   53.4403   27.2270 C   0  0  0  0  0  0
    2.6345   53.2969   24.0331 C   0  0  0  0  0  0
    2.5095   53.1915   22.8111 O   0  0  0  0  0  0
    1.6760   52.8854   24.8884 N   0  0  0  0  0  0
    0.4071   52.2026   24.6074 C   0  0  2  0  0  0
   -0.1078   52.0117   25.5516 H   0  0  0  0  0  0
    0.5980   50.8193   23.9301 C   0  0  0  0  0  0
   -0.7785   50.2848   23.4962 C   0  0  0  0  0  0
   -1.7387   51.8060   22.9490 S   0  0  0  0  0  0
   -3.0128   51.8604   23.6715 O   0  0  0  0  0  0
   -1.7031   51.9611   21.4897 O   0  0  0  0  0  0
   -0.5359   53.0144   23.7094 C   0  0  0  0  0  0
    4.6085   52.1344   20.2851 Cl  0  0  0  0  0  0
    3.6429   52.9279   15.1334 H   0  0  0  0  0  0
    4.3582   55.1927   14.5323 H   0  0  0  0  0  0
    5.3646   56.6998   16.2242 H   0  0  0  0  0  0
    3.9014   52.0824   17.4350 H   0  0  0  0  0  0
    4.1676   53.9482   22.0079 H   0  0  0  0  0  0
    6.8722   53.7836   27.7486 H   0  0  0  0  0  0
    6.6847   55.5214   27.6817 H   0  0  0  0  0  0
    5.5544   54.4964   29.6818 H   0  0  0  0  0  0
    4.4420   55.3797   28.7036 H   0  0  0  0  0  0
    4.7649   52.3772   28.4621 H   0  0  0  0  0  0
    3.5060   53.1672   29.3741 H   0  0  0  0  0  0
    2.5140   54.1534   27.4034 H   0  0  0  0  0  0
    2.8527   52.4760   27.0505 H   0  0  0  0  0  0
    1.8654   53.0439   25.8661 H   0  0  0  0  0  0
    1.1062   50.1205   24.5979 H   0  0  0  0  0  0
    1.2507   50.9085   23.0587 H   0  0  0  0  0  0
   -1.2906   49.8953   24.3796 H   0  0  0  0  0  0
   -0.8066   49.5140   22.7236 H   0  0  0  0  0  0
    0.0627   53.2965   22.8486 H   0  0  0  0  0  0
   -0.9751   53.9404   24.0771 H   0  0  0  0  0  0
  1  6  2  0  0  0
  1  2  1  0  0  0
  1 34  1  0  0  0
  2  3  2  0  0  0
  2 35  1  0  0  0
  3  4  1  0  0  0
  3 36  1  0  0  0
  4  9  1  0  0  0
  4  5  2  0  0  0
  5  6  1  0  0  0
  5  7  1  0  0  0
  6 37  1  0  0  0
  7  8  2  0  0  0
  7 33  1  0  0  0
  8  9  1  0  0  0
  8 10  1  0  0  0
 10 11  2  0  0  0
 10 12  1  0  0  0
 12 13  1  0  0  0
 12 38  1  0  0  0
 13 17  1  0  0  0
 13 14  2  0  0  0
 14 15  1  0  0  0
 14 22  1  0  0  0
 15 21  1  0  0  0
 15 16  2  0  0  0
 16 17  1  0  0  0
 16 18  1  0  0  0
 18 19  1  0  0  0
 18 39  1  0  0  0
 18 40  1  0  0  0
 19 20  1  0  0  0
 19 41  1  0  0  0
 19 42  1  0  0  0
 20 21  1  0  0  0
 20 43  1  0  0  0
 20 44  1  0  0  0
 21 45  1  0  0  0
 21 46  1  0  0  0
 22 23  2  0  0  0
 22 24  1  0  0  0
 24 25  1  0  0  0
 24 47  1  0  0  0
 25 26  1  0  0  0
 25 32  1  0  0  0
 25 27  1  0  0  0
 27 28  1  0  0  0
 27 48  1  0  0  0
 27 49  1  0  0  0
 28 29  1  0  0  0
 28 50  1  0  0  0
 28 51  1  0  0  0
 29 30  2  0  0  0
 29 31  2  0  0  0
 29 32  1  0  0  0
 32 52  1  0  0  0
 32 53  1  0  0  0
M  END
> <i_i_glide_confnum>
247

> <i_i_glide_lignum>
924

> <i_i_glide_posenum>
258

> <i_i_glide_rotatable_bonds>
6

> <i_m_Source_File_Index>
4524

> <b_m_subgroup_collapsed>
0

> <r_i_docking_score>
-5.45116

> <r_i_glide_ecoul>
-2.62909

> <r_i_glide_eff_state_penalty>
0

> <r_i_glide_einternal>
4.31896

> <r_i_glide_emodel>
-65.4499

> <r_i_glide_energy>
-48.4634

> <r_i_glide_erotb>
0.474113

> <r_i_glide_esite>
-0.0216791

> <r_i_glide_evdw>
-45.8343

> <r_i_glide_gscore>
-5.45116

> <r_i_glide_hbond>
0

> <r_i_glide_ligand_efficiency>
-0.170349

> <r_i_glide_ligand_efficiency_ln>
-1.22066

> <r_i_glide_ligand_efficiency_sa>
-0.540823

> <r_i_glide_lipo>
-2.53458

> <r_i_glide_metal>
0

> <r_i_glide_rewards>
-0.682932

> <s_i_glide_gridfile>
wee1_glide-grid

> <s_m_Source_File>
wee1_decoys_glide_SP.sdf

> <s_m_Source_Path>
/Users/zhangxujun/Desktop

> <s_m_entry_id>
4799

> <s_m_entry_name>
wee1_decoys_glide_SP.4524

> <s_m_subgroup_title>
wee1_decoys_glide_SP

> <s_m_subgroupid>
wee1_decoys_glide_SP


$$$$
