@<TRIPOS>MOLECULE
ZINC21577015_2048
61   64    1
SMALL
USER_CHARGES


@<TRIPOS>ATOM
      1 C1          5.9839   48.7829   13.2681 C.3       1 UNK         0.0000 
      2 C2          5.7562   49.7770   12.0961 C.3       1 UNK         0.0000 
      3 C3          6.7855   49.4359   10.9856 C.3       1 UNK         0.0000 
      4 C4          4.3289   49.5704   11.5355 C.3       1 UNK         0.0000 
      5 C5          5.9082   51.2728   12.5243 C.2       1 UNK         0.0000 
      6 O6          6.1313   52.1187   11.6537 O.2       1 UNK         0.0000 
      7 N7          5.7005   51.5672   13.8350 N.am      1 UNK         0.0000 
      8 C8          5.9047   52.6989   14.5859 C.2       1 UNK         0.0000 
      9 S9          6.7521   54.0797   14.1210 S.2       1 UNK         0.0000 
     10 N10         5.3334   52.5415   15.8172 N.pl3     1 UNK         0.0000 
     11 C11         5.3984   53.2967   17.0004 C.ar      1 UNK         0.0000 
     12 C12         6.6153   53.6971   17.5612 C.ar      1 UNK         0.0000 
     13 C13         6.6418   54.2270   18.8494 C.ar      1 UNK         0.0000 
     14 C14         5.4643   54.3394   19.6025 C.ar      1 UNK         0.0000 
     15 C15         4.2481   54.0012   18.9950 C.ar      1 UNK         0.0000 
     16 C16         4.2127   53.4757   17.7079 C.ar      1 UNK         0.0000 
     17 N17         5.5036   54.7070   20.9473 N.pl3     1 UNK         0.0000 
     18 C18         6.4638   55.6587   21.5231 C.3       1 UNK         0.0000 
     19 C19         7.0960   55.2418   22.8713 C.3       1 UNK         0.0000 
     20 N20         6.0823   54.7040   23.8017 N.am      1 UNK         0.0000 
     21 C21         5.2057   53.6661   23.2360 C.3       1 UNK         0.0000 
     22 C22         4.5522   54.1866   21.9408 C.3       1 UNK         0.0000 
     23 C23         6.1978   54.9912   25.1352 C.2       1 UNK         0.0000 
     24 O24         7.1042   55.6967   25.5804 O.2       1 UNK         0.0000 
     25 C25         5.2417   54.4688   26.0966 C.2       1 UNK         0.0000 
     26 C26         5.4200   54.2256   27.4613 C.2       1 UNK         0.0000 
     27 C27         4.1571   53.8090   27.9784 C.ar      1 UNK         0.0000 
     28 C28         3.6559   53.3848   29.2205 C.ar      1 UNK         0.0000 
     29 C29         2.2994   53.0555   29.3174 C.ar      1 UNK         0.0000 
     30 C30         1.4475   53.1469   28.2139 C.ar      1 UNK         0.0000 
     31 C31         1.9145   53.5753   26.9694 C.ar      1 UNK         0.0000 
     32 C32         3.2730   53.8990   26.8804 C.ar      1 UNK         0.0000 
     33 O33         3.9208   54.3413   25.7614 O.3       1 UNK         0.0000 
     34 H34         5.8922   47.7468   12.9381 H         1 UNK         0.0000 
     35 H35         5.2663   48.9145   14.0797 H         1 UNK         0.0000 
     36 H36         6.9873   48.8905   13.6815 H         1 UNK         0.0000 
     37 H37         6.6484   50.0506   10.0944 H         1 UNK         0.0000 
     38 H38         7.8106   49.5866   11.3297 H         1 UNK         0.0000 
     39 H39         6.6997   48.3956   10.6713 H         1 UNK         0.0000 
     40 H40         4.1185   50.2395   10.6984 H         1 UNK         0.0000 
     41 H41         4.1858   48.5508   11.1736 H         1 UNK         0.0000 
     42 H42         3.5658   49.7509   12.2950 H         1 UNK         0.0000 
     43 H43         5.4273   50.7630   14.3794 H         1 UNK         0.0000 
     44 H44         4.7198   51.7436   15.9110 H         1 UNK         0.0000 
     45 H45         7.5449   53.5333   17.0361 H         1 UNK         0.0000 
     46 H46         7.6017   54.4674   19.2806 H         1 UNK         0.0000 
     47 H47         3.3177   54.0974   19.5337 H         1 UNK         0.0000 
     48 H48         3.2688   53.1545   17.2920 H         1 UNK         0.0000 
     49 H49         7.2505   55.9101   20.8133 H         1 UNK         0.0000 
     50 H50         5.9045   56.5788   21.6745 H         1 UNK         0.0000 
     51 H51         7.8074   54.4433   22.6579 H         1 UNK         0.0000 
     52 H52         7.6437   56.0959   23.2727 H         1 UNK         0.0000 
     53 H53         4.4341   53.2966   23.9021 H         1 UNK         0.0000 
     54 H54         5.8230   52.8080   22.9680 H         1 UNK         0.0000 
     55 H55         3.8535   54.9919   22.1691 H         1 UNK         0.0000 
     56 H56         3.9580   53.3769   21.5160 H         1 UNK         0.0000 
     57 H57         6.3529   54.3268   27.9977 H         1 UNK         0.0000 
     58 H58         4.3054   53.3067   30.0785 H         1 UNK         0.0000 
     59 H59         1.8949   52.7199   30.2624 H         1 UNK         0.0000 
     60 H60         0.4063   52.8782   28.3286 H         1 UNK         0.0000 
     61 H61         1.2629   53.6502   26.1124 H         1 UNK         0.0000 
@<TRIPOS>BOND
     1    1    2 1    
     2    1   34 1    
     3    1   35 1    
     4    1   36 1    
     5    2    3 1    
     6    2    4 1    
     7    2    5 1    
     8    3   37 1    
     9    3   38 1    
    10    3   39 1    
    11    4   40 1    
    12    4   41 1    
    13    4   42 1    
    14    5    6 2    
    15    5    7 am   BACKBONE|DICT|INTERRES
    16    7    8 am   BACKBONE|DICT|INTERRES
    17    7   43 1    
    18    8    9 2    
    19    8   10 1    
    20   10   11 1    
    21   10   44 1    
    22   11   16 ar   
    23   11   12 ar   
    24   12   13 ar   
    25   12   45 1    
    26   13   14 ar   
    27   13   46 1    
    28   14   15 ar   
    29   14   17 1    
    30   15   16 ar   
    31   15   47 1    
    32   16   48 1    
    33   17   22 1    
    34   17   18 1    
    35   18   19 1    
    36   18   49 1    
    37   18   50 1    
    38   19   20 1    
    39   19   51 1    
    40   19   52 1    
    41   20   21 1    
    42   20   23 am   BACKBONE|DICT|INTERRES
    43   21   22 1    
    44   21   53 1    
    45   21   54 1    
    46   22   55 1    
    47   22   56 1    
    48   23   24 2    
    49   23   25 1    
    50   25   33 1    
    51   25   26 2    
    52   26   27 1    
    53   26   57 1    
    54   27   32 ar   
    55   27   28 ar   
    56   28   29 ar   
    57   28   58 1    
    58   29   30 ar   
    59   29   59 1    
    60   30   31 ar   
    61   30   60 1    
    62   31   32 ar   
    63   31   61 1    
    64   32   33 1    
@<TRIPOS>SUBSTRUCTURE
     1 UNK         1 GROUP             0       ****    0 ROOT    
