@<TRIPOS>MOLECULE
ZINC03214521_2442
45   48    1
SMALL
USER_CHARGES


@<TRIPOS>ATOM
      1 C1          5.0375   54.5484   28.8824 C.ar      1 UNK         0.0000 
      2 C2          5.5170   54.0977   27.6579 C.ar      1 UNK         0.0000 
      3 C3          4.6167   53.6968   26.6765 C.ar      1 UNK         0.0000 
      4 C4          3.2367   53.7312   26.9254 C.ar      1 UNK         0.0000 
      5 C5          2.7664   54.1874   28.1637 C.ar      1 UNK         0.0000 
      6 C6          3.6691   54.5983   29.1380 C.ar      1 UNK         0.0000 
      7 N7          2.3302   53.2962   25.9280 N.pl3     1 UNK         0.0000 
      8 C8          2.5142   53.2999   24.5735 C.ar      1 UNK         0.0000 
      9 C9          1.3830   52.7392   23.9869 C.ar      1 UNK         0.0000 
     10 C10         0.5286   52.4941   25.0971 C.ar      1 UNK         0.0000 
     11 N11         1.1259   52.7963   26.2360 N.2       1 UNK         0.0000 
     12 C12        -0.8718   51.9670   25.1569 C.ar      1 UNK         0.0000 
     13 C13        -1.8674   52.4985   24.3303 C.ar      1 UNK         0.0000 
     14 C14        -3.1762   52.0314   24.4140 C.ar      1 UNK         0.0000 
     15 C15        -3.4917   51.0298   25.3281 C.ar      1 UNK         0.0000 
     16 C16        -2.5096   50.4925   26.1580 C.ar      1 UNK         0.0000 
     17 C17        -1.2028   50.9626   26.0745 C.ar      1 UNK         0.0000 
     18 Br18       -5.2814   50.3956   25.4473 Br        1 UNK         0.0000 
     19 C19         1.1770   52.4781   22.5735 C.2       1 UNK         0.0000 
     20 O20         0.0897   52.0974   22.1383 O.2       1 UNK         0.0000 
     21 N21         2.2797   52.7200   21.8215 N.am      1 UNK         0.0000 
     22 C22         2.6736   52.2933   20.5778 C.2       1 UNK         0.0000 
     23 S23         1.8858   51.2070   19.5817 S.2       1 UNK         0.0000 
     24 N24         3.8335   52.8318   20.0951 N.pl3     1 UNK         0.0000 
     25 C25         4.7926   53.6603   20.7076 C.ar      1 UNK         0.0000 
     26 N26         5.0209   53.5938   22.0531 N.ar      1 UNK         0.0000 
     27 C27         5.9749   54.4198   22.5568 C.ar      1 UNK         0.0000 
     28 C28         6.7044   55.2965   21.7517 C.ar      1 UNK         0.0000 
     29 C29         6.4014   55.2976   20.3886 C.ar      1 UNK         0.0000 
     30 N30         5.4529   54.4853   19.8526 N.ar      1 UNK         0.0000 
     31 H31         5.7365   54.8888   29.6343 H         1 UNK         0.0000 
     32 H32         6.5807   54.0593   27.4740 H         1 UNK         0.0000 
     33 H33         5.0069   53.3239   25.7408 H         1 UNK         0.0000 
     34 H34         1.7073   54.2309   28.3749 H         1 UNK         0.0000 
     35 H35         3.3045   54.9676   30.0825 H         1 UNK         0.0000 
     36 H36         3.4333   53.6782   24.1569 H         1 UNK         0.0000 
     37 H37        -1.6317   53.2873   23.6323 H         1 UNK         0.0000 
     38 H38        -3.9437   52.4455   23.7765 H         1 UNK         0.0000 
     39 H39        -2.7522   49.7115   26.8668 H         1 UNK         0.0000 
     40 H40        -0.4511   50.5382   26.7253 H         1 UNK         0.0000 
     41 H41         3.0098   53.2007   22.3222 H         1 UNK         0.0000 
     42 H42         4.0870   52.5385   19.1615 H         1 UNK         0.0000 
     43 H43         6.1612   54.3593   23.6193 H         1 UNK         0.0000 
     44 H44         7.4728   55.9345   22.1643 H         1 UNK         0.0000 
     45 H45         6.9266   55.9426   19.6996 H         1 UNK         0.0000 
@<TRIPOS>BOND
     1    1    6 ar   
     2    1    2 ar   
     3    1   31 1    
     4    2    3 ar   
     5    2   32 1    
     6    3    4 ar   
     7    3   33 1    
     8    4    5 ar   
     9    4    7 1    
    10    5    6 ar   
    11    5   34 1    
    12    6   35 1    
    13    7   11 ar   
    14    7    8 ar   
    15    8    9 ar   
    16    8   36 1    
    17    9   10 ar   
    18    9   19 1    
    19   10   11 ar   
    20   10   12 1    
    21   12   17 ar   
    22   12   13 ar   
    23   13   14 ar   
    24   13   37 1    
    25   14   15 ar   
    26   14   38 1    
    27   15   16 ar   
    28   15   18 1    
    29   16   17 ar   
    30   16   39 1    
    31   17   40 1    
    32   19   20 2    
    33   19   21 am   BACKBONE|DICT|INTERRES
    34   21   22 am   BACKBONE|DICT|INTERRES
    35   21   41 1    
    36   22   23 2    
    37   22   24 1    
    38   24   25 1    
    39   24   42 1    
    40   25   30 ar   
    41   25   26 ar   
    42   26   27 ar   
    43   27   28 ar   
    44   27   43 1    
    45   28   29 ar   
    46   28   44 1    
    47   29   30 ar   
    48   29   45 1    
@<TRIPOS>SUBSTRUCTURE
     1 UNK         1 GROUP             0       ****    0 ROOT    
