@<TRIPOS>MOLECULE
ZINC00495370_1894
33   35    1
SMALL
USER_CHARGES


@<TRIPOS>ATOM
      1 C1          1.1169   53.2277   28.0359 C.3       1 UNK         0.0000 
      2 C2          2.3019   53.5763   27.1535 C.ar      1 UNK         0.0000 
      3 C3          3.5508   53.8305   27.7131 C.ar      1 UNK         0.0000 
      4 C4          4.6579   54.0982   26.8915 C.ar      1 UNK         0.0000 
      5 C5          4.4429   54.0949   25.4829 C.ar      1 UNK         0.0000 
      6 C6          5.3238   54.2661   24.3534 C.2       1 UNK         0.0000 
      7 C7          4.6906   54.1090   23.1140 C.2       1 UNK         0.0000 
      8 S8          2.9589   53.8489   23.2917 S.3       1 UNK         0.0000 
      9 C9          3.1088   53.8289   25.0351 C.ar      1 UNK         0.0000 
     10 N10         2.0616   53.5769   25.8210 N.ar      1 UNK         0.0000 
     11 C11         5.2611   54.3062   21.7888 C.2       1 UNK         0.0000 
     12 O12         6.3322   54.8962   21.6329 O.2       1 UNK         0.0000 
     13 N13         4.5709   53.7569   20.7730 N.am      1 UNK         0.0000 
     14 C14         5.0245   53.7017   19.3872 C.3       1 UNK         0.0000 
     15 C15         4.0831   54.1804   18.3042 C.3       1 UNK         0.0000 
     16 C16         5.3172   54.9867   18.6415 C.3       1 UNK         0.0000 
     17 N17         6.6688   54.5116   24.4761 N.pl3     1 UNK         0.0000 
     18 C18         6.0147   54.3350   27.5572 C.3       1 UNK         0.0000 
     19 F19         5.9032   54.4940   28.8778 F         1 UNK         0.0000 
     20 F20         6.8115   53.2963   27.3299 F         1 UNK         0.0000 
     21 F21         6.6091   55.4169   27.0680 F         1 UNK         0.0000 
     22 H22         1.2779   53.5579   29.0632 H         1 UNK         0.0000 
     23 H23         0.2007   53.6965   27.6823 H         1 UNK         0.0000 
     24 H24         0.9591   52.1476   28.0408 H         1 UNK         0.0000 
     25 H25         3.6612   53.7898   28.7885 H         1 UNK         0.0000 
     26 H26         3.7637   53.1957   20.9984 H         1 UNK         0.0000 
     27 H27         5.6368   52.8236   19.1665 H         1 UNK         0.0000 
     28 H28         3.1037   54.5656   18.5941 H         1 UNK         0.0000 
     29 H29         4.0459   53.6148   17.3714 H         1 UNK         0.0000 
     30 H30         6.1594   54.9915   17.9467 H         1 UNK         0.0000 
     31 H31         5.2058   55.9372   19.1640 H         1 UNK         0.0000 
     32 H32         7.1267   54.5237   25.3755 H         1 UNK         0.0000 
     33 H33         7.2508   54.6678   23.6593 H         1 UNK         0.0000 
@<TRIPOS>BOND
     1    1    2 1    
     2    1   22 1    
     3    1   23 1    
     4    1   24 1    
     5    2   10 ar   
     6    2    3 ar   
     7    3    4 ar   
     8    3   25 1    
     9    4    5 ar   
    10    4   18 1    
    11    5    9 ar   
    12    5    6 1    
    13    6    7 2    
    14    6   17 1    
    15    7    8 1    
    16    7   11 1    
    17    8    9 1    
    18    9   10 ar   
    19   11   12 2    
    20   11   13 am   BACKBONE|DICT|INTERRES
    21   13   14 1    
    22   13   26 1    
    23   14   16 1    
    24   14   15 1    
    25   14   27 1    
    26   15   16 1    
    27   15   28 1    
    28   15   29 1    
    29   16   30 1    
    30   16   31 1    
    31   17   32 1    
    32   17   33 1    
    33   18   19 1    
    34   18   20 1    
    35   18   21 1    
@<TRIPOS>SUBSTRUCTURE
     1 UNK         1 GROUP             0       ****    0 ROOT    
