ZINC62353489_1715
                    3D
 Schrodinger Suite 2024-2.
 33 35  0  0  1  0            999 V2000
    4.7828   54.3794   28.0070 C   0  0  0  0  0  0
    5.3468   54.4955   26.7373 C   0  0  0  0  0  0
    4.5602   54.2721   25.5925 C   0  0  0  0  0  0
    3.2200   53.8927   25.7686 C   0  0  0  0  0  0
    2.6572   53.7453   27.0375 C   0  0  0  0  0  0
    3.4478   54.0137   28.1812 C   0  0  0  0  0  0
    2.9656   54.0099   29.4776 O   0  0  0  0  0  0
    1.6083   54.3905   29.6813 C   0  0  0  0  0  0
    0.6341   53.2350   29.4263 C   0  0  0  0  0  0
    0.9707   52.4437   28.1567 C   0  0  0  0  0  0
    1.3513   53.2966   27.0830 O   0  0  0  0  0  0
    5.1332   54.4964   24.3163 N   0  0  0  0  0  0
    4.7225   54.0790   23.0952 C   0  0  0  0  0  0
    3.7535   53.3429   22.8943 O   0  0  0  0  0  0
    5.5274   54.5834   21.9956 C   0  0  0  0  0  0
    6.7379   55.2959   22.0739 C   0  0  0  0  0  0
    7.2977   55.6966   20.4798 S   0  0  0  0  0  0
    5.9045   54.8823   19.8607 C   0  0  0  0  0  0
    5.1057   54.3638   20.7578 N   0  0  0  0  0  0
    6.7014   54.8324   26.6578 N   0  0  0  0  0  0
    5.3827   54.5822   28.8827 H   0  0  0  0  0  0
    2.5742   53.7117   24.9240 H   0  0  0  0  0  0
    1.5013   54.7321   30.7111 H   0  0  0  0  0  0
    1.3612   55.2646   29.0738 H   0  0  0  0  0  0
    0.6282   52.5556   30.2800 H   0  0  0  0  0  0
   -0.3778   53.6345   29.3524 H   0  0  0  0  0  0
    1.7438   51.6941   28.3422 H   0  0  0  0  0  0
    0.0975   51.8705   27.8418 H   0  0  0  0  0  0
    5.9621   55.0670   24.3301 H   0  0  0  0  0  0
    7.3099   55.6020   22.9363 H   0  0  0  0  0  0
    5.7253   54.8022   18.7991 H   0  0  0  0  0  0
    7.1782   54.8839   27.5480 H   0  0  0  0  0  0
    7.1934   54.4530   25.8637 H   0  0  0  0  0  0
  1  6  2  0  0  0
  1  2  1  0  0  0
  1 21  1  0  0  0
  2  3  2  0  0  0
  2 20  1  0  0  0
  3  4  1  0  0  0
  3 12  1  0  0  0
  4  5  2  0  0  0
  4 22  1  0  0  0
  5 11  1  0  0  0
  5  6  1  0  0  0
  6  7  1  0  0  0
  7  8  1  0  0  0
  8  9  1  0  0  0
  8 23  1  0  0  0
  8 24  1  0  0  0
  9 10  1  0  0  0
  9 25  1  0  0  0
  9 26  1  0  0  0
 10 11  1  0  0  0
 10 27  1  0  0  0
 10 28  1  0  0  0
 12 13  1  0  0  0
 12 29  1  0  0  0
 13 14  2  0  0  0
 13 15  1  0  0  0
 15 19  1  0  0  0
 15 16  2  0  0  0
 16 17  1  0  0  0
 16 30  1  0  0  0
 17 18  1  0  0  0
 18 19  2  0  0  0
 18 31  1  0  0  0
 20 32  1  0  0  0
 20 33  1  0  0  0
M  END
> <i_i_glide_confnum>
18

> <i_i_glide_lignum>
1716

> <i_i_glide_posenum>
325

> <i_i_glide_rotatable_bonds>
3

> <i_m_Source_File_Index>
3814

> <b_m_subgroup_collapsed>
0

> <r_i_docking_score>
-5.98949

> <r_i_glide_ecoul>
-2.20307

> <r_i_glide_eff_state_penalty>
0

> <r_i_glide_einternal>
3.26242

> <r_i_glide_emodel>
-52.8202

> <r_i_glide_energy>
-39.826

> <r_i_glide_erotb>
0.644715

> <r_i_glide_esite>
0

> <r_i_glide_evdw>
-37.6229

> <r_i_glide_gscore>
-5.98949

> <r_i_glide_hbond>
-0.0448984

> <r_i_glide_ligand_efficiency>
-0.299474

> <r_i_glide_ligand_efficiency_ln>
-1.49897

> <r_i_glide_ligand_efficiency_sa>
-0.812899

> <r_i_glide_lipo>
-2.64851

> <r_i_glide_metal>
0

> <r_i_glide_rewards>
-1.72918

> <s_i_glide_gridfile>
wee1_glide-grid

> <s_m_Source_File>
wee1_decoys_glide_SP.sdf

> <s_m_Source_Path>
/Users/zhangxujun/Desktop

> <s_m_entry_id>
4089

> <s_m_entry_name>
wee1_decoys_glide_SP.3814

> <s_m_subgroup_title>
wee1_decoys_glide_SP

> <s_m_subgroupid>
wee1_decoys_glide_SP


$$$$
