ZINC01518498_3553
                    3D
 Schrodinger Suite 2024-2.
 37 39  0  0  1  0            999 V2000
    1.7420   55.1370   29.4602 C   0  0  0  0  0  0
    2.0377   53.6431   29.2055 C   0  0  2  0  0  0
    1.3220   53.0811   29.8083 H   0  0  0  0  0  0
    3.4348   53.1694   29.6616 C   0  0  0  0  0  0
    4.5496   53.9497   28.9387 C   0  0  0  0  0  0
    4.2479   53.9351   27.4474 C   0  0  0  0  0  0
    3.0122   53.6080   26.8618 C   0  0  0  0  0  0
    3.0242   53.7540   25.4464 C   0  0  0  0  0  0
    4.3115   54.0973   24.9750 C   0  0  0  0  0  0
    5.4289   54.3901   26.2845 S   0  0  0  0  0  0
    4.6920   54.2043   23.6363 N   0  0  0  0  0  0
    5.9039   54.4965   23.1216 C   0  0  0  0  0  0
    6.9361   54.6437   23.7722 O   0  0  0  0  0  0
    5.9137   54.6860   21.6919 C   0  0  0  0  0  0
    6.9251   55.3000   20.9509 C   0  0  0  0  0  0
    6.6785   55.3020   19.5748 C   0  0  0  0  0  0
    5.4950   54.6598   19.2419 C   0  0  0  0  0  0
    4.6811   54.0345   20.6386 S   0  0  0  0  0  0
    4.8267   54.4344   17.6765 Cl  0  0  0  0  0  0
    1.8769   53.4482   24.5995 C   0  0  0  0  0  0
    1.0157   52.6345   24.9207 O   0  0  0  0  0  0
    1.8030   54.0961   23.4340 N   0  0  0  0  0  0
    1.8004   53.2278   27.7324 C   0  0  0  0  0  0
    2.3670   55.7878   28.8472 H   0  0  0  0  0  0
    1.9023   55.4091   30.5021 H   0  0  0  0  0  0
    0.7063   55.3714   29.2209 H   0  0  0  0  0  0
    3.5605   53.3092   30.7346 H   0  0  0  0  0  0
    3.5534   52.1015   29.4684 H   0  0  0  0  0  0
    4.5942   54.9743   29.3096 H   0  0  0  0  0  0
    5.5193   53.4968   29.1447 H   0  0  0  0  0  0
    3.9666   54.0001   22.9661 H   0  0  0  0  0  0
    7.8130   55.7276   21.3971 H   0  0  0  0  0  0
    7.3439   55.7415   18.8463 H   0  0  0  0  0  0
    2.3855   54.8996   23.2541 H   0  0  0  0  0  0
    1.0643   53.8583   22.7891 H   0  0  0  0  0  0
    1.6158   52.1544   27.6695 H   0  0  0  0  0  0
    0.8879   53.6962   27.3614 H   0  0  0  0  0  0
  1  2  1  0  0  0
  1 24  1  0  0  0
  1 25  1  0  0  0
  1 26  1  0  0  0
  2  3  1  0  0  0
  2 23  1  0  0  0
  2  4  1  0  0  0
  4  5  1  0  0  0
  4 27  1  0  0  0
  4 28  1  0  0  0
  5  6  1  0  0  0
  5 29  1  0  0  0
  5 30  1  0  0  0
  6 10  1  0  0  0
  6  7  2  0  0  0
  7  8  1  0  0  0
  7 23  1  0  0  0
  8  9  2  0  0  0
  8 20  1  0  0  0
  9 10  1  0  0  0
  9 11  1  0  0  0
 11 12  1  0  0  0
 11 31  1  0  0  0
 12 13  2  0  0  0
 12 14  1  0  0  0
 14 18  1  0  0  0
 14 15  2  0  0  0
 15 16  1  0  0  0
 15 32  1  0  0  0
 16 17  2  0  0  0
 16 33  1  0  0  0
 17 18  1  0  0  0
 17 19  1  0  0  0
 20 21  2  0  0  0
 20 22  1  0  0  0
 22 34  1  0  0  0
 22 35  1  0  0  0
 23 36  1  0  0  0
 23 37  1  0  0  0
M  END
> <i_i_glide_confnum>
21

> <i_i_glide_lignum>
3554

> <i_i_glide_posenum>
276

> <i_i_glide_rotatable_bonds>
4

> <i_m_Source_File_Index>
5649

> <b_m_subgroup_collapsed>
0

> <r_i_docking_score>
-5.96966

> <r_i_glide_ecoul>
0.889962

> <r_i_glide_eff_state_penalty>
0

> <r_i_glide_einternal>
3.20882

> <r_i_glide_emodel>
-55.0978

> <r_i_glide_energy>
-41.0994

> <r_i_glide_erotb>
0.45532

> <r_i_glide_esite>
0

> <r_i_glide_evdw>
-41.9894

> <r_i_glide_gscore>
-5.96966

> <r_i_glide_hbond>
0

> <r_i_glide_ligand_efficiency>
-0.271348

> <r_i_glide_ligand_efficiency_ln>
-1.4592

> <r_i_glide_ligand_efficiency_sa>
-0.760329

> <r_i_glide_lipo>
-2.77123

> <r_i_glide_metal>
0

> <r_i_glide_rewards>
-1.68778

> <s_i_glide_gridfile>
wee1_glide-grid

> <s_m_Source_File>
wee1_decoys_glide_SP.sdf

> <s_m_Source_Path>
/Users/zhangxujun/Desktop

> <s_m_entry_id>
5924

> <s_m_entry_name>
wee1_decoys_glide_SP.5649

> <s_m_subgroup_title>
wee1_decoys_glide_SP

> <s_m_subgroupid>
wee1_decoys_glide_SP


$$$$
