@<TRIPOS>MOLECULE
ZINC64375482_5019
63   67    1
SMALL
USER_CHARGES


@<TRIPOS>ATOM
      1 C1          6.9431   55.6931   24.6678 C.3       1 UNK         0.0000 
      2 O2          7.0606   55.1942   25.9937 O.3       1 UNK         0.0000 
      3 C3          5.9510   54.6350   26.5937 C.ar      1 UNK         0.0000 
      4 C4          6.1667   53.9364   27.7765 C.ar      1 UNK         0.0000 
      5 C5          5.1159   53.2851   28.4121 C.ar      1 UNK         0.0000 
      6 C6          3.8226   53.3286   27.8790 C.ar      1 UNK         0.0000 
      7 C7          3.5932   54.0990   26.7333 C.ar      1 UNK         0.0000 
      8 C8          4.6478   54.7346   26.0868 C.ar      1 UNK         0.0000 
      9 C9          2.7232   52.5019   28.5060 C.2       1 UNK         0.0000 
     10 O10         2.8152   52.0995   29.6677 O.2       1 UNK         0.0000 
     11 N11         1.7211   52.1520   27.6798 N.am      1 UNK         0.0000 
     12 C12         0.6240   51.2598   28.0119 C.3       1 UNK         0.0000 
     13 H13         0.8570   50.6058   28.8506 H         1 UNK         0.0000 
     14 N14         0.2302   50.4296   26.8808 N.pl3     1 UNK         0.0000 
     15 C15        -0.9250   50.7906   26.2100 C.2       1 UNK         0.0000 
     16 C16        -1.8894   51.4369   27.1917 C.3       1 UNK         0.0000 
     17 S17        -0.8754   52.0964   28.5158 S.3       1 UNK         0.0000 
     18 C18        -2.8443   52.4160   26.4851 C.3       1 UNK         0.0000 
     19 C19        -3.5253   51.7151   25.3008 C.3       1 UNK         0.0000 
     20 C20        -2.5110   51.1971   24.2585 C.3       1 UNK         0.0000 
     21 C21        -1.2309   50.6043   24.8926 C.2       1 UNK         0.0000 
     22 H22         0.8630   49.7069   26.5659 H         1 UNK         0.0000 
     23 C23        -0.3922   49.7665   24.0379 C.2       1 UNK         0.0000 
     24 O24         0.3045   48.8532   24.4826 O.2       1 UNK         0.0000 
     25 N25        -0.4744   50.0080   22.7145 N.am      1 UNK         0.0000 
     26 C26         0.1259   49.1623   21.6801 C.3       1 UNK         0.0000 
     27 C27         1.6674   49.1719   21.6394 C.3       1 UNK         0.0000 
     28 C28         2.2975   50.4120   21.0403 C.2       1 UNK         0.0000 
     29 C29         2.5919   51.6144   21.5675 C.2       1 UNK         0.0000 
     30 C30         2.2872   52.1921   22.8813 C.2       1 UNK         0.0000 
     31 C31         2.7045   53.4324   23.2009 C.2       1 UNK         0.0000 
     32 C32         3.5059   54.1602   22.2276 C.2       1 UNK         0.0000 
     33 C33         3.8190   53.6315   21.0156 C.2       1 UNK         0.0000 
     34 C34         3.3426   52.3651   20.6565 C.2       1 UNK         0.0000 
     35 N35         3.5044   51.6977   19.5447 N.pl3     1 UNK         0.0000 
     36 C36         2.7961   50.4140   19.6119 C.3       1 UNK         0.0000 
     37 H37         7.9027   56.0966   24.3576 H         1 UNK         0.0000 
     38 H38         6.6714   54.9054   23.9644 H         1 UNK         0.0000 
     39 H39         6.2157   56.4978   24.5996 H         1 UNK         0.0000 
     40 H40         7.1637   53.8714   28.1865 H         1 UNK         0.0000 
     41 H41         5.3285   52.6940   29.2872 H         1 UNK         0.0000 
     42 H42         2.6010   54.2012   26.3240 H         1 UNK         0.0000 
     43 H43         4.4360   55.2961   25.1928 H         1 UNK         0.0000 
     44 H44         1.6135   52.6692   26.8228 H         1 UNK         0.0000 
     45 H45        -2.4564   50.6260   27.6540 H         1 UNK         0.0000 
     46 H46        -3.6056   52.7693   27.1809 H         1 UNK         0.0000 
     47 H47        -2.3002   53.2951   26.1388 H         1 UNK         0.0000 
     48 H48        -4.1153   50.8769   25.6746 H         1 UNK         0.0000 
     49 H49        -4.2374   52.3903   24.8218 H         1 UNK         0.0000 
     50 H50        -3.0051   50.4929   23.5874 H         1 UNK         0.0000 
     51 H51        -2.2128   52.0391   23.6323 H         1 UNK         0.0000 
     52 H52        -1.0322   50.7905   22.4071 H         1 UNK         0.0000 
     53 H53        -0.2289   48.1404   21.8267 H         1 UNK         0.0000 
     54 H54        -0.2670   49.4732   20.7123 H         1 UNK         0.0000 
     55 H55         2.0857   48.9962   22.6316 H         1 UNK         0.0000 
     56 H56         2.0113   48.3341   21.0307 H         1 UNK         0.0000 
     57 H57         1.7061   51.6500   23.6129 H         1 UNK         0.0000 
     58 H58         2.4550   53.8748   24.1488 H         1 UNK         0.0000 
     59 H59         3.8405   55.1614   22.4641 H         1 UNK         0.0000 
     60 H60         4.4063   54.2222   20.3277 H         1 UNK         0.0000 
     61 H61         3.5031   49.6239   19.3669 H         1 UNK         0.0000 
     62 H62         2.0031   50.4268   18.8629 H         1 UNK         0.0000 
     63 H63         4.0570   51.9819   18.7353 H         1 UNK         0.0000 
@<TRIPOS>BOND
     1    1    2 1    
     2    1   37 1    
     3    1   38 1    
     4    1   39 1    
     5    2    3 1    
     6    3    8 ar   
     7    3    4 ar   
     8    4    5 ar   
     9    4   40 1    
    10    5    6 ar   
    11    5   41 1    
    12    6    7 ar   
    13    6    9 1    
    14    7    8 ar   
    15    7   42 1    
    16    8   43 1    
    17    9   10 2    
    18    9   11 am   BACKBONE|DICT|INTERRES
    19   11   12 1    
    20   11   44 1    
    21   12   13 1    
    22   12   17 1    
    23   12   14 1    
    24   14   15 1    
    25   14   22 1    
    26   15   21 2    
    27   15   16 1    
    28   16   17 1    
    29   16   18 1    
    30   16   45 1    
    31   18   19 1    
    32   18   46 1    
    33   18   47 1    
    34   19   20 1    
    35   19   48 1    
    36   19   49 1    
    37   20   50 1    
    38   20   51 1    
    39   20   21 1    
    40   21   23 1    
    41   23   24 2    
    42   23   25 am   BACKBONE|DICT|INTERRES
    43   25   26 1    
    44   25   52 1    
    45   26   27 1    
    46   26   53 1    
    47   26   54 1    
    48   27   28 1    
    49   27   55 1    
    50   27   56 1    
    51   28   36 1    
    52   28   29 2    
    53   29   34 1    
    54   29   30 1    
    55   30   31 2    
    56   30   57 1    
    57   31   32 1    
    58   31   58 1    
    59   32   33 2    
    60   32   59 1    
    61   33   34 1    
    62   33   60 1    
    63   34   35 2    
    64   35   36 1    
    65   35   63 1    
    66   36   61 1    
    67   36   62 1    
@<TRIPOS>SUBSTRUCTURE
     1 UNK         1 GROUP             0       ****    0 ROOT    
