ZINC02265761_3506
                    3D
 Schrodinger Suite 2024-2.
 49 53  0  0  1  0            999 V2000
    8.0530   56.3940   18.0988 C   0  0  0  0  0  0
    6.7075   56.1509   17.8389 C   0  0  0  0  0  0
    5.8892   55.6559   18.8499 C   0  0  0  0  0  0
    6.4138   55.4039   20.1207 C   0  0  0  0  0  0
    7.7677   55.6684   20.3810 C   0  0  0  0  0  0
    8.5846   56.1522   19.3624 C   0  0  0  0  0  0
    5.5035   54.8968   21.0618 N   0  0  0  0  0  0
    5.7055   54.4405   22.3143 C   0  0  0  0  0  0
    6.7854   54.3683   22.8967 O   0  0  0  0  0  0
    4.4883   54.0690   22.9889 C   0  0  0  0  0  0
    4.2085   54.0976   24.3885 C   0  0  0  0  0  0
    2.8821   53.6518   24.5945 C   0  0  0  0  0  0
    2.3392   53.5762   25.8152 N   0  0  0  0  0  0
    3.1060   53.9115   26.8861 C   0  0  0  0  0  0
    2.5790   53.8274   28.1935 C   0  0  0  0  0  0
    3.3772   54.1719   29.2815 C   0  0  0  0  0  0
    4.6961   54.5837   29.0982 C   0  0  0  0  0  0
    5.2487   54.6539   27.8213 C   0  0  0  0  0  0
    4.4520   54.3423   26.6960 C   0  0  0  0  0  0
    4.9601   54.4508   25.4379 N   0  0  0  0  0  0
    2.3470   53.2492   23.3681 N   0  0  0  0  0  0
    3.3738   53.4217   22.4295 C   0  0  0  0  0  0
    3.2068   52.9658   21.1399 N   0  0  0  0  0  0
    1.1190   52.6729   23.0194 N   0  0  0  0  0  0
    0.1007   52.8603   23.7634 C   0  0  0  0  0  0
   -1.1951   52.2008   23.5640 C   0  0  0  0  0  0
   -1.4129   51.2573   22.5468 C   0  0  0  0  0  0
   -2.6515   50.6287   22.4085 C   0  0  0  0  0  0
   -3.6933   50.9384   23.2816 C   0  0  0  0  0  0
   -3.4969   51.8822   24.2873 C   0  0  0  0  0  0
   -2.2554   52.5001   24.4303 C   0  0  0  0  0  0
   -4.9208   52.3347   25.4659 Br  0  0  0  0  0  0
    8.6899   56.7754   17.3140 H   0  0  0  0  0  0
    6.3009   56.3423   16.8564 H   0  0  0  0  0  0
    4.8476   55.4649   18.6327 H   0  0  0  0  0  0
    8.2098   55.5016   21.3515 H   0  0  0  0  0  0
    9.6270   56.3545   19.5556 H   0  0  0  0  0  0
    4.5442   54.8635   20.7493 H   0  0  0  0  0  0
    1.5584   53.5026   28.3386 H   0  0  0  0  0  0
    2.9589   54.1224   30.2727 H   0  0  0  0  0  0
    5.2927   54.8919   29.9457 H   0  0  0  0  0  0
    6.2691   54.9847   27.6859 H   0  0  0  0  0  0
    3.9764   52.8646   20.4923 H   0  0  0  0  0  0
    2.3071   52.6333   20.8201 H   0  0  0  0  0  0
    0.1269   53.5325   24.6157 H   0  0  0  0  0  0
   -0.6175   50.9933   21.8635 H   0  0  0  0  0  0
   -2.8014   49.8980   21.6273 H   0  0  0  0  0  0
   -4.6531   50.4541   23.1749 H   0  0  0  0  0  0
   -2.1286   53.2175   25.2285 H   0  0  0  0  0  0
  1  6  2  0  0  0
  1  2  1  0  0  0
  1 33  1  0  0  0
  2  3  2  0  0  0
  2 34  1  0  0  0
  3  4  1  0  0  0
  3 35  1  0  0  0
  4  5  2  0  0  0
  4  7  1  0  0  0
  5  6  1  0  0  0
  5 36  1  0  0  0
  6 37  1  0  0  0
  7  8  1  0  0  0
  7 38  1  0  0  0
  8  9  2  0  0  0
  8 10  1  0  0  0
 10 22  2  0  0  0
 10 11  1  0  0  0
 11 20  2  0  0  0
 11 12  1  0  0  0
 12 13  2  0  0  0
 12 21  1  0  0  0
 13 14  1  0  0  0
 14 19  2  0  0  0
 14 15  1  0  0  0
 15 16  2  0  0  0
 15 39  1  0  0  0
 16 17  1  0  0  0
 16 40  1  0  0  0
 17 18  2  0  0  0
 17 41  1  0  0  0
 18 19  1  0  0  0
 18 42  1  0  0  0
 19 20  1  0  0  0
 21 22  1  0  0  0
 21 24  1  0  0  0
 22 23  1  0  0  0
 23 43  1  0  0  0
 23 44  1  0  0  0
 24 25  2  0  0  0
 25 26  1  0  0  0
 25 45  1  0  0  0
 26 31  2  0  0  0
 26 27  1  0  0  0
 27 28  2  0  0  0
 27 46  1  0  0  0
 28 29  1  0  0  0
 28 47  1  0  0  0
 29 30  2  0  0  0
 29 48  1  0  0  0
 30 31  1  0  0  0
 30 32  1  0  0  0
 31 49  1  0  0  0
M  END
> <i_i_glide_confnum>
32

> <i_i_glide_lignum>
3507

> <i_i_glide_posenum>
378

> <i_i_glide_rotatable_bonds>
5

> <i_m_Source_File_Index>
2088

> <b_m_subgroup_collapsed>
0

> <r_i_docking_score>
-5.51501

> <r_i_glide_ecoul>
-0.63515

> <r_i_glide_eff_state_penalty>
0

> <r_i_glide_einternal>
5.94919

> <r_i_glide_emodel>
-56.9231

> <r_i_glide_energy>
-44.8613

> <r_i_glide_erotb>
0.431211

> <r_i_glide_esite>
0

> <r_i_glide_evdw>
-44.2262

> <r_i_glide_gscore>
-5.51501

> <r_i_glide_hbond>
0

> <r_i_glide_ligand_efficiency>
-0.172344

> <r_i_glide_ligand_efficiency_ln>
-1.23496

> <r_i_glide_ligand_efficiency_sa>
-0.547159

> <r_i_glide_lipo>
-2.46971

> <r_i_glide_metal>
0

> <r_i_glide_rewards>
-1.16993

> <s_i_glide_gridfile>
wee1_glide-grid

> <s_m_Source_File>
wee1_decoys_glide_SP.sdf

> <s_m_Source_Path>
/Users/zhangxujun/Desktop

> <s_m_entry_id>
2363

> <s_m_entry_name>
wee1_decoys_glide_SP.2088

> <s_m_subgroup_title>
wee1_decoys_glide_SP

> <s_m_subgroupid>
wee1_decoys_glide_SP


$$$$
