ZINC38615384_4395
                    3D
 Schrodinger Suite 2024-2.
 56 59  0  0  1  0            999 V2000
    5.8664   57.3918   16.4989 C   0  0  0  0  0  0
    5.8075   56.2542   17.5344 C   0  0  2  0  0  0
    6.4412   55.4502   17.1533 H   0  0  0  0  0  0
    4.3651   55.7489   17.7278 C   0  0  0  0  0  0
    4.3195   54.4675   18.5862 C   0  0  0  0  0  0
    5.1373   54.6741   19.8738 C   0  0  0  0  0  0
    6.0956   55.6959   19.9592 C   0  0  0  0  0  0
    6.9191   55.6970   21.4728 S   0  0  0  0  0  0
    5.9042   54.4207   22.0856 C   0  0  0  0  0  0
    5.0449   53.9266   21.0809 C   0  0  0  0  0  0
    4.2261   52.7507   21.2468 C   0  0  0  0  0  0
    4.7074   51.7067   21.6816 O   0  0  0  0  0  0
    2.9275   52.8966   20.9283 N   0  0  0  0  0  0
    1.9142   51.8514   21.0532 C   0  0  1  0  0  0
    2.3357   50.8452   21.1600 H   0  0  0  0  0  0
    1.0430   52.1230   22.3016 C   0  0  0  0  0  0
   -0.1904   51.2122   22.2563 C   0  0  0  0  0  0
   -0.6547   51.1445   20.4444 S   0  0  0  0  0  0
   -0.7734   49.7418   20.0428 O   0  0  0  0  0  0
   -1.7352   52.0968   20.1611 O   0  0  0  0  0  0
    0.9725   51.8560   19.8377 C   0  0  0  0  0  0
    6.0374   53.9587   23.4021 N   0  0  0  0  0  0
    6.4543   54.6781   24.4741 C   0  0  0  0  0  0
    6.7043   55.8787   24.4588 O   0  0  0  0  0  0
    6.5817   53.9553   25.8195 C   0  0  0  0  0  0
    5.3790   54.1259   26.7497 C   0  0  0  0  0  0
    4.0638   53.9673   26.2905 C   0  0  0  0  0  0
    2.9931   54.0964   27.1722 C   0  0  0  0  0  0
    3.2330   54.3723   28.5160 C   0  0  0  0  0  0
    4.5376   54.4976   28.9873 C   0  0  0  0  0  0
    5.6078   54.3713   28.1063 C   0  0  0  0  0  0
    1.9064   54.5664   29.6018 Cl  0  0  0  0  0  0
    6.3813   56.7409   18.8855 C   0  0  0  0  0  0
    5.2531   58.2436   16.7998 H   0  0  0  0  0  0
    6.8862   57.7533   16.3650 H   0  0  0  0  0  0
    5.5113   57.0598   15.5240 H   0  0  0  0  0  0
    3.7327   56.5397   18.1383 H   0  0  0  0  0  0
    3.9234   55.5283   16.7557 H   0  0  0  0  0  0
    4.7269   53.6243   18.0260 H   0  0  0  0  0  0
    3.2772   54.2285   18.7805 H   0  0  0  0  0  0
    2.6017   53.8010   20.6046 H   0  0  0  0  0  0
    1.6174   51.9760   23.2172 H   0  0  0  0  0  0
    0.7334   53.1702   22.3215 H   0  0  0  0  0  0
    0.1205   50.2059   22.5366 H   0  0  0  0  0  0
   -1.0513   51.4763   22.8685 H   0  0  0  0  0  0
    0.7160   52.8975   19.6350 H   0  0  0  0  0  0
    1.3177   51.4259   18.8980 H   0  0  0  0  0  0
    5.6391   53.0490   23.5858 H   0  0  0  0  0  0
    7.4810   54.3302   26.3100 H   0  0  0  0  0  0
    6.7783   52.9024   25.6796 H   0  0  0  0  0  0
    3.8634   53.7380   25.2534 H   0  0  0  0  0  0
    1.9803   53.9837   26.8131 H   0  0  0  0  0  0
    4.7205   54.7016   30.0304 H   0  0  0  0  0  0
    6.6143   54.4762   28.4828 H   0  0  0  0  0  0
    5.9080   57.6827   19.1719 H   0  0  0  0  0  0
    7.4508   56.9301   18.7965 H   0  0  0  0  0  0
  1  2  1  0  0  0
  1 34  1  0  0  0
  1 35  1  0  0  0
  1 36  1  0  0  0
  2  3  1  0  0  0
  2 33  1  0  0  0
  2  4  1  0  0  0
  4  5  1  0  0  0
  4 37  1  0  0  0
  4 38  1  0  0  0
  5  6  1  0  0  0
  5 39  1  0  0  0
  5 40  1  0  0  0
  6 10  1  0  0  0
  6  7  2  0  0  0
  7  8  1  0  0  0
  7 33  1  0  0  0
  8  9  1  0  0  0
  9 10  2  0  0  0
  9 22  1  0  0  0
 10 11  1  0  0  0
 11 12  2  0  0  0
 11 13  1  0  0  0
 13 14  1  0  0  0
 13 41  1  0  0  0
 14 15  1  0  0  0
 14 21  1  0  0  0
 14 16  1  0  0  0
 16 17  1  0  0  0
 16 42  1  0  0  0
 16 43  1  0  0  0
 17 18  1  0  0  0
 17 44  1  0  0  0
 17 45  1  0  0  0
 18 19  2  0  0  0
 18 20  2  0  0  0
 18 21  1  0  0  0
 21 46  1  0  0  0
 21 47  1  0  0  0
 22 23  1  0  0  0
 22 48  1  0  0  0
 23 24  2  0  0  0
 23 25  1  0  0  0
 25 26  1  0  0  0
 25 49  1  0  0  0
 25 50  1  0  0  0
 26 31  2  0  0  0
 26 27  1  0  0  0
 27 28  2  0  0  0
 27 51  1  0  0  0
 28 29  1  0  0  0
 28 52  1  0  0  0
 29 30  2  0  0  0
 29 32  1  0  0  0
 30 31  1  0  0  0
 30 53  1  0  0  0
 31 54  1  0  0  0
 33 55  1  0  0  0
 33 56  1  0  0  0
M  END
> <i_i_glide_confnum>
151

> <i_i_glide_lignum>
4396

> <i_i_glide_posenum>
195

> <i_i_glide_rotatable_bonds>
7

> <i_m_Source_File_Index>
2684

> <b_m_subgroup_collapsed>
0

> <r_i_docking_score>
-7.02553

> <r_i_glide_ecoul>
-8.17117

> <r_i_glide_eff_state_penalty>
0

> <r_i_glide_einternal>
8.78875

> <r_i_glide_emodel>
-71.8575

> <r_i_glide_energy>
-53.2958

> <r_i_glide_erotb>
0.525953

> <r_i_glide_esite>
-0.0490194

> <r_i_glide_evdw>
-45.1246

> <r_i_glide_gscore>
-7.02553

> <r_i_glide_hbond>
-0.32

> <r_i_glide_ligand_efficiency>
-0.22663

> <r_i_glide_ligand_efficiency_ln>
-1.58447

> <r_i_glide_ligand_efficiency_sa>
-0.711931

> <r_i_glide_lipo>
-2.92795

> <r_i_glide_metal>
0

> <r_i_glide_rewards>
-0.772609

> <s_i_glide_gridfile>
wee1_glide-grid

> <s_m_Source_File>
wee1_decoys_glide_SP.sdf

> <s_m_Source_Path>
/Users/zhangxujun/Desktop

> <s_m_entry_id>
2959

> <s_m_entry_name>
wee1_decoys_glide_SP.2684

> <s_m_subgroup_title>
wee1_decoys_glide_SP

> <s_m_subgroupid>
wee1_decoys_glide_SP


$$$$
