@<TRIPOS>MOLECULE
ZINC20728439_204
52   54    1
SMALL
USER_CHARGES


@<TRIPOS>ATOM
      1 C1         -5.0620   53.0111   24.8819 C.3       1 UNK         0.0000 
      2 O2         -3.8762   52.3979   25.3677 O.3       1 UNK         0.0000 
      3 C3         -2.9618   51.8796   24.5098 C.2       1 UNK         0.0000 
      4 O4         -3.1046   51.8612   23.2818 O.2       1 UNK         0.0000 
      5 C5         -1.7503   51.2630   25.2288 C.3       1 UNK         0.0000 
      6 H6         -2.0436   50.2474   25.4960 H         1 UNK         0.0000 
      7 C7         -1.3130   51.9931   26.5349 C.3       1 UNK         0.0000 
      8 C8         -0.4152   51.1604   27.4623 C.3       1 UNK         0.0000 
      9 S9          0.5478   52.1024   28.6802 S.3       1 UNK         0.0000 
     10 C10         1.7947   52.8606   27.6040 C.3       1 UNK         0.0000 
     11 N11        -0.5917   51.1353   24.3054 N.am      1 UNK         0.0000 
     12 C12         0.0680   52.1241   23.6479 C.2       1 UNK         0.0000 
     13 O13        -0.3215   53.2928   23.7007 O.2       1 UNK         0.0000 
     14 N14         1.1762   51.7604   22.9378 N.am      1 UNK         0.0000 
     15 C15         1.6965   50.3605   22.8773 C.3       1 UNK         0.0000 
     16 C16         1.6499   49.8117   21.4184 C.3       1 UNK         0.0000 
     17 C17         2.1651   50.8836   20.4776 C.ar      1 UNK         0.0000 
     18 C18         2.3172   52.2149   20.8383 C.ar      1 UNK         0.0000 
     19 N19         2.8022   52.8966   19.7352 N.pl3     1 UNK         0.0000 
     20 C20         3.0687   51.9877   18.7368 C.ar      1 UNK         0.0000 
     21 N21         2.7043   50.7431   19.2075 N.pl3     1 UNK         0.0000 
     22 H22         2.8485   49.8737   18.7016 H         1 UNK         0.0000 
     23 C23         1.9663   52.8028   22.2039 C.3       1 UNK         0.0000 
     24 H24         1.3218   53.6709   22.0518 H         1 UNK         0.0000 
     25 C25         3.1568   53.4012   22.9890 C.ar      1 UNK         0.0000 
     26 C26         4.4704   53.3976   22.4822 C.ar      1 UNK         0.0000 
     27 C27         5.5171   53.9495   23.2176 C.ar      1 UNK         0.0000 
     28 C28         5.2688   54.4965   24.4732 C.ar      1 UNK         0.0000 
     29 C29         3.9785   54.4967   24.9953 C.ar      1 UNK         0.0000 
     30 C30         2.9276   53.9708   24.2476 C.ar      1 UNK         0.0000 
     31 Br31        6.6997   55.2567   25.4765 Br        1 UNK         0.0000 
     32 H32        -5.6754   52.3005   24.3266 H         1 UNK         0.0000 
     33 H33        -5.6489   53.3833   25.7219 H         1 UNK         0.0000 
     34 H34        -4.8299   53.8540   24.2294 H         1 UNK         0.0000 
     35 H35        -0.7967   52.9084   26.2800 H         1 UNK         0.0000 
     36 H36        -2.1761   52.3004   27.1244 H         1 UNK         0.0000 
     37 H37        -1.0609   50.4967   28.0322 H         1 UNK         0.0000 
     38 H38         0.2661   50.5246   26.8937 H         1 UNK         0.0000 
     39 H39         2.5350   53.3911   28.2054 H         1 UNK         0.0000 
     40 H40         2.3078   52.0977   27.0179 H         1 UNK         0.0000 
     41 H41         1.3331   53.5744   26.9229 H         1 UNK         0.0000 
     42 H42        -0.1831   50.2142   24.2864 H         1 UNK         0.0000 
     43 H43         2.7270   50.4087   23.2056 H         1 UNK         0.0000 
     44 H44         1.2493   49.6798   23.6010 H         1 UNK         0.0000 
     45 H45         2.2304   48.8915   21.3398 H         1 UNK         0.0000 
     46 H46         0.6232   49.5452   21.1644 H         1 UNK         0.0000 
     47 H47         3.5244   52.1882   17.7747 H         1 UNK         0.0000 
     48 H48         4.7050   52.9611   21.5235 H         1 UNK         0.0000 
     49 H49         6.5201   53.9489   22.8188 H         1 UNK         0.0000 
     50 H50         3.7889   54.9271   25.9667 H         1 UNK         0.0000 
     51 H51         1.9312   54.0091   24.6587 H         1 UNK         0.0000 
     52 H52         2.9303   53.9032   19.6828 H         1 UNK         0.0000 
@<TRIPOS>BOND
     1    1    2 1    
     2    1   32 1    
     3    1   33 1    
     4    1   34 1    
     5    2    3 1    
     6    3    4 2    
     7    3    5 1    
     8    5    6 1    
     9    5    7 1    
    10    5   11 1    
    11    7    8 1    
    12    7   35 1    
    13    7   36 1    
    14    8    9 1    
    15    8   37 1    
    16    8   38 1    
    17    9   10 1    
    18   10   39 1    
    19   10   40 1    
    20   10   41 1    
    21   11   12 am   BACKBONE|DICT|INTERRES
    22   11   42 1    
    23   12   13 2    
    24   12   14 am   BACKBONE|DICT|INTERRES
    25   14   23 1    
    26   14   15 1    
    27   15   16 1    
    28   15   43 1    
    29   15   44 1    
    30   16   17 1    
    31   16   45 1    
    32   16   46 1    
    33   17   21 ar   
    34   17   18 ar   
    35   18   19 ar   
    36   18   23 1    
    37   19   20 ar   
    38   19   52 1    
    39   20   21 ar   
    40   20   47 1    
    41   21   22 1    
    42   23   24 1    
    43   23   25 1    
    44   25   30 ar   
    45   25   26 ar   
    46   26   27 ar   
    47   26   48 1    
    48   27   28 ar   
    49   27   49 1    
    50   28   29 ar   
    51   28   31 1    
    52   29   30 ar   
    53   29   50 1    
    54   30   51 1    
@<TRIPOS>SUBSTRUCTURE
     1 UNK         1 GROUP             0       ****    0 ROOT    
