ZINC58949987_4756
                    3D
 Schrodinger Suite 2024-2.
 46 48  0  0  1  0            999 V2000
    0.1369   50.9475   26.5131 C   0  0  0  0  0  0
   -0.8227   51.5784   25.5130 C   0  0  0  0  0  0
   -1.9528   52.2318   26.0185 C   0  0  0  0  0  0
   -2.8546   52.8555   25.1604 C   0  0  0  0  0  0
   -2.6337   52.8379   23.7875 C   0  0  0  0  0  0
   -1.5253   52.1729   23.2710 C   0  0  0  0  0  0
   -0.6092   51.5314   24.1165 C   0  0  0  0  0  0
    0.5519   50.7601   23.4502 C   0  0  2  0  0  0
    1.2076   50.4307   24.2563 H   0  0  0  0  0  0
    1.4676   51.6364   22.5513 C   0  0  0  0  0  0
    1.5936   51.3688   21.2251 C   0  0  0  0  0  0
    2.4448   52.1629   20.2406 C   0  0  0  0  0  0
    3.6495   52.8189   20.9751 C   0  0  0  0  0  0
    3.1167   53.5917   22.2180 C   0  0  0  0  0  0
    2.1943   52.7775   23.1475 C   0  0  0  0  0  0
    2.0145   53.1358   24.3094 O   0  0  0  0  0  0
    4.6507   51.7164   21.4031 C   0  0  0  0  0  0
    4.2918   53.8471   20.0217 C   0  0  0  0  0  0
    0.9725   50.3355   20.6070 O   0  0  0  0  0  0
    0.2847   49.4188   21.3242 C   0  0  0  0  0  0
    0.0578   49.5196   22.6572 C   0  0  0  0  0  0
   -0.6835   48.4990   23.3746 C   0  0  0  0  0  0
   -1.7497   48.0278   22.9820 O   0  0  0  0  0  0
   -0.0948   48.0557   24.4847 N   0  0  0  0  0  0
   -0.1014   48.4294   20.4568 N   0  0  0  0  0  0
    1.1210   51.4036   26.4253 H   0  0  0  0  0  0
   -0.2037   51.0696   27.5420 H   0  0  0  0  0  0
    0.2473   49.8791   26.3332 H   0  0  0  0  0  0
   -2.1370   52.2626   27.0830 H   0  0  0  0  0  0
   -3.7148   53.3652   25.5649 H   0  0  0  0  0  0
   -3.3226   53.3352   23.1245 H   0  0  0  0  0  0
   -1.3788   52.1448   22.2005 H   0  0  0  0  0  0
    2.8295   51.5149   19.4513 H   0  0  0  0  0  0
    1.7825   52.8945   19.7784 H   0  0  0  0  0  0
    3.9175   54.0346   22.8092 H   0  0  0  0  0  0
    2.5005   54.4185   21.8673 H   0  0  0  0  0  0
    5.4529   52.1193   22.0242 H   0  0  0  0  0  0
    4.1796   50.8988   21.9499 H   0  0  0  0  0  0
    5.1140   51.2730   20.5212 H   0  0  0  0  0  0
    5.1191   54.3722   20.4996 H   0  0  0  0  0  0
    4.6825   53.3602   19.1259 H   0  0  0  0  0  0
    3.5739   54.5994   19.6933 H   0  0  0  0  0  0
    0.8026   48.4210   24.7696 H   0  0  0  0  0  0
   -0.5513   47.3649   25.0639 H   0  0  0  0  0  0
   -0.7211   47.6914   20.7633 H   0  0  0  0  0  0
    0.1371   48.4806   19.4769 H   0  0  0  0  0  0
  1  2  1  0  0  0
  1 26  1  0  0  0
  1 27  1  0  0  0
  1 28  1  0  0  0
  2  7  2  0  0  0
  2  3  1  0  0  0
  3  4  2  0  0  0
  3 29  1  0  0  0
  4  5  1  0  0  0
  4 30  1  0  0  0
  5  6  2  0  0  0
  5 31  1  0  0  0
  6  7  1  0  0  0
  6 32  1  0  0  0
  7  8  1  0  0  0
  8  9  1  0  0  0
  8 21  1  0  0  0
  8 10  1  0  0  0
 10 15  1  0  0  0
 10 11  2  0  0  0
 11 12  1  0  0  0
 11 19  1  0  0  0
 12 13  1  0  0  0
 12 33  1  0  0  0
 12 34  1  0  0  0
 13 14  1  0  0  0
 13 17  1  0  0  0
 13 18  1  0  0  0
 14 15  1  0  0  0
 14 35  1  0  0  0
 14 36  1  0  0  0
 15 16  2  0  0  0
 17 37  1  0  0  0
 17 38  1  0  0  0
 17 39  1  0  0  0
 18 40  1  0  0  0
 18 41  1  0  0  0
 18 42  1  0  0  0
 19 20  1  0  0  0
 20 21  2  0  0  0
 20 25  1  0  0  0
 21 22  1  0  0  0
 22 23  2  0  0  0
 22 24  1  0  0  0
 24 43  1  0  0  0
 24 44  1  0  0  0
 25 45  1  0  0  0
 25 46  1  0  0  0
M  END
> <i_i_glide_confnum>
1

> <i_i_glide_lignum>
4757

> <i_i_glide_posenum>
201

> <i_i_glide_rotatable_bonds>
2

> <i_m_Source_File_Index>
2214

> <b_m_subgroup_collapsed>
0

> <r_i_docking_score>
-3.63166

> <r_i_glide_ecoul>
-2.87683

> <r_i_glide_eff_state_penalty>
0

> <r_i_glide_einternal>
1.08124

> <r_i_glide_emodel>
-34.9346

> <r_i_glide_energy>
-28.8715

> <r_i_glide_erotb>
0.176045

> <r_i_glide_esite>
-0.065334

> <r_i_glide_evdw>
-25.9947

> <r_i_glide_gscore>
-3.63166

> <r_i_glide_hbond>
-0.0236994

> <r_i_glide_ligand_efficiency>
-0.151319

> <r_i_glide_ligand_efficiency_ln>
-0.869222

> <r_i_glide_ligand_efficiency_sa>
-0.436479

> <r_i_glide_lipo>
-0.605568

> <r_i_glide_metal>
0

> <r_i_glide_rewards>
-1.38184

> <s_i_glide_gridfile>
wee1_glide-grid

> <s_m_Source_File>
wee1_decoys_glide_SP.sdf

> <s_m_Source_Path>
/Users/zhangxujun/Desktop

> <s_m_entry_id>
2489

> <s_m_entry_name>
wee1_decoys_glide_SP.2214

> <s_m_subgroup_title>
wee1_decoys_glide_SP

> <s_m_subgroupid>
wee1_decoys_glide_SP


$$$$
