@<TRIPOS>MOLECULE
ZINC36213890_2673
61   63    1
SMALL
USER_CHARGES


@<TRIPOS>ATOM
      1 C1          4.4033   53.0875   28.4774 C.3       1 UNK         0.0000 
      2 C2          5.5553   53.8743   27.8298 C.3       1 UNK         0.0000 
      3 C3          5.4737   55.2866   28.4096 C.3       1 UNK         0.0000 
      4 C4          6.9109   53.2595   28.2113 C.3       1 UNK         0.0000 
      5 N5          5.3691   53.8832   26.3666 N.am      1 UNK         0.0000 
      6 C6          6.0678   54.5928   25.4496 C.2       1 UNK         0.0000 
      7 O7          7.1043   55.1812   25.7629 O.2       1 UNK         0.0000 
      8 N8          5.6171   54.5555   24.1623 N.am      1 UNK         0.0000 
      9 C9          4.2044   54.2659   23.8510 C.3       1 UNK         0.0000 
     10 C10         4.2096   53.5349   22.5079 C.3       1 UNK         0.0000 
     11 C11         4.6427   54.4285   21.3299 C.3       1 UNK         0.0000 
     12 C12         5.9638   55.1579   21.6831 C.3       1 UNK         0.0000 
     13 C13         6.4181   55.3102   23.1659 C.3       1 UNK         0.0000 
     14 C14         4.6166   53.7629   19.8954 C.3       1 UNK         0.0000 
     15 H15         5.4977   53.1188   19.8553 H         1 UNK         0.0000 
     16 C16         4.7763   54.7442   18.6839 C.2       1 UNK         0.0000 
     17 O17         4.6986   55.9560   18.8803 O.2       1 UNK         0.0000 
     18 N18         4.9667   54.2674   17.4293 N.am      1 UNK         0.0000 
     19 C19         5.1970   52.8645   17.0843 C.3       1 UNK         0.0000 
     20 C20         5.4107   52.8923   15.5735 C.3       1 UNK         0.0000 
     21 C21         5.9336   54.2890   15.3022 C.3       1 UNK         0.0000 
     22 C22         5.1492   55.1627   16.2771 C.3       1 UNK         0.0000 
     23 N23         3.4466   52.9005   19.6760 N.am      1 UNK         0.0000 
     24 C24         3.3095   51.6234   20.0793 C.2       1 UNK         0.0000 
     25 O25         4.1646   51.0121   20.7216 O.2       1 UNK         0.0000 
     26 C26         2.0646   51.0088   19.6973 C.2       1 UNK         0.0000 
     27 C27         0.8520   51.6143   19.3536 C.2       1 UNK         0.0000 
     28 C28        -0.1649   50.6909   19.0911 C.2       1 UNK         0.0000 
     29 C29         0.2487   49.3788   19.2624 C.2       1 UNK         0.0000 
     30 S30         1.9054   49.2735   19.7607 S.3       1 UNK         0.0000 
     31 H31         4.5309   52.9880   29.5558 H         1 UNK         0.0000 
     32 H32         4.3322   52.0952   28.0685 H         1 UNK         0.0000 
     33 H33         3.4382   53.5638   28.3028 H         1 UNK         0.0000 
     34 H34         6.2981   55.9135   28.0609 H         1 UNK         0.0000 
     35 H35         4.5111   55.6947   28.1056 H         1 UNK         0.0000 
     36 H36         5.5064   55.2901   29.5003 H         1 UNK         0.0000 
     37 H37         7.7149   53.8088   27.7383 H         1 UNK         0.0000 
     38 H38         7.0928   53.3109   29.2806 H         1 UNK         0.0000 
     39 H39         6.9945   52.2186   27.9127 H         1 UNK         0.0000 
     40 H40         4.6378   53.2789   26.0251 H         1 UNK         0.0000 
     41 H41         3.7327   53.5871   24.5612 H         1 UNK         0.0000 
     42 H42         3.6363   55.1971   23.7796 H         1 UNK         0.0000 
     43 H43         4.8436   52.6470   22.5388 H         1 UNK         0.0000 
     44 H44         3.2134   53.1351   22.3232 H         1 UNK         0.0000 
     45 H45         3.8571   55.1786   21.3458 H         1 UNK         0.0000 
     46 H46         6.1624   56.0282   21.0577 H         1 UNK         0.0000 
     47 H47         6.7293   54.4939   21.2938 H         1 UNK         0.0000 
     48 H48         6.4049   56.3631   23.4408 H         1 UNK         0.0000 
     49 H49         7.4552   54.9662   23.2106 H         1 UNK         0.0000 
     50 H50         6.1057   52.4985   17.5628 H         1 UNK         0.0000 
     51 H51         4.3524   52.2182   17.3236 H         1 UNK         0.0000 
     52 H52         6.0777   52.0992   15.2340 H         1 UNK         0.0000 
     53 H53         4.4556   52.7499   15.0659 H         1 UNK         0.0000 
     54 H54         5.8163   54.6067   14.2652 H         1 UNK         0.0000 
     55 H55         6.9977   54.3412   15.5360 H         1 UNK         0.0000 
     56 H56         4.1786   55.3984   15.8390 H         1 UNK         0.0000 
     57 H57         5.7224   56.0610   16.5127 H         1 UNK         0.0000 
     58 H58         2.6900   53.3369   19.1721 H         1 UNK         0.0000 
     59 H59         0.7061   52.6825   19.2859 H         1 UNK         0.0000 
     60 H60        -1.1646   50.9689   18.7874 H         1 UNK         0.0000 
     61 H61        -0.3348   48.4811   19.1269 H         1 UNK         0.0000 
@<TRIPOS>BOND
     1    1    2 1    
     2    1   31 1    
     3    1   32 1    
     4    1   33 1    
     5    2    3 1    
     6    2    4 1    
     7    2    5 1    
     8    3   34 1    
     9    3   35 1    
    10    3   36 1    
    11    4   37 1    
    12    4   38 1    
    13    4   39 1    
    14    5    6 am   BACKBONE|DICT|INTERRES
    15    5   40 1    
    16    6    7 2    
    17    6    8 am   BACKBONE|DICT|INTERRES
    18    8   13 1    
    19    8    9 1    
    20    9   10 1    
    21    9   41 1    
    22    9   42 1    
    23   10   11 1    
    24   10   43 1    
    25   10   44 1    
    26   11   12 1    
    27   11   14 1    
    28   11   45 1    
    29   12   13 1    
    30   12   46 1    
    31   12   47 1    
    32   13   48 1    
    33   13   49 1    
    34   14   15 1    
    35   14   16 1    
    36   14   23 1    
    37   16   17 2    
    38   16   18 am   BACKBONE|DICT|INTERRES
    39   18   22 1    
    40   18   19 1    
    41   19   20 1    
    42   19   50 1    
    43   19   51 1    
    44   20   21 1    
    45   20   52 1    
    46   20   53 1    
    47   21   22 1    
    48   21   54 1    
    49   21   55 1    
    50   22   56 1    
    51   22   57 1    
    52   23   24 am   BACKBONE|DICT|INTERRES
    53   23   58 1    
    54   24   25 2    
    55   24   26 1    
    56   26   30 1    
    57   26   27 2    
    58   27   28 1    
    59   27   59 1    
    60   28   29 2    
    61   28   60 1    
    62   29   30 1    
    63   29   61 1    
@<TRIPOS>SUBSTRUCTURE
     1 UNK         1 GROUP             0       ****    0 ROOT    
