@<TRIPOS>MOLECULE
ZINC13445372_3310
63   66    1
SMALL
USER_CHARGES


@<TRIPOS>ATOM
      1 C1         -3.8195   48.1017   18.9102 C.3       1 UNK         0.0000 
      2 O2         -3.3665   49.3616   19.3979 O.3       1 UNK         0.0000 
      3 C3         -2.7952   49.4446   20.6573 C.ar      1 UNK         0.0000 
      4 C4         -2.6203   48.3443   21.5048 C.ar      1 UNK         0.0000 
      5 C5         -2.0502   48.4614   22.7831 C.ar      1 UNK         0.0000 
      6 C6         -1.6957   49.7612   23.2377 C.ar      1 UNK         0.0000 
      7 C7         -1.8111   50.8668   22.3591 C.ar      1 UNK         0.0000 
      8 C8         -2.3597   50.7046   21.0837 C.ar      1 UNK         0.0000 
      9 O9         -2.4955   51.8092   20.2661 O.3       1 UNK         0.0000 
     10 C10        -1.5462   51.8928   19.2117 C.3       1 UNK         0.0000 
     11 O11        -1.4130   52.1364   22.7196 O.3       1 UNK         0.0000 
     12 C12        -0.0096   52.3581   22.7296 C.3       1 UNK         0.0000 
     13 N13        -1.2041   49.9430   24.5535 N.am      1 UNK         0.0000 
     14 C14        -1.6043   50.8872   25.4342 C.2       1 UNK         0.0000 
     15 O15        -2.6147   51.5743   25.2582 O.2       1 UNK         0.0000 
     16 C16        -0.7852   51.0366   26.7428 C.3       1 UNK         0.0000 
     17 C17         0.7354   51.1058   26.4384 C.3       1 UNK         0.0000 
     18 C18         1.6134   51.5547   27.6405 C.3       1 UNK         0.0000 
     19 N19         1.0377   52.7826   28.1999 N.am      1 UNK         0.0000 
     20 C20        -0.3151   52.6023   28.7524 C.3       1 UNK         0.0000 
     21 C21        -1.2666   52.2449   27.5927 C.3       1 UNK         0.0000 
     22 C22         1.6504   54.0016   28.1839 C.2       1 UNK         0.0000 
     23 O23         1.1046   55.0324   28.5824 O.2       1 UNK         0.0000 
     24 C24         3.1024   54.0880   27.7599 C.ar      1 UNK         0.0000 
     25 C25         4.0608   54.2264   28.7700 C.ar      1 UNK         0.0000 
     26 C26         5.4143   54.3396   28.4805 C.ar      1 UNK         0.0000 
     27 C27         5.8578   54.3122   27.1665 C.ar      1 UNK         0.0000 
     28 C28         4.9358   54.1969   26.1016 C.ar      1 UNK         0.0000 
     29 C29         3.5320   54.0967   26.3847 C.ar      1 UNK         0.0000 
     30 C30         2.6400   54.0234   25.2741 C.ar      1 UNK         0.0000 
     31 C31         3.1166   54.0287   23.9657 C.ar      1 UNK         0.0000 
     32 C32         4.4806   54.0968   23.7087 C.ar      1 UNK         0.0000 
     33 C33         5.3878   54.1885   24.7566 C.ar      1 UNK         0.0000 
     34 C34        -1.8277   47.2019   23.5909 C.2       1 UNK         0.0000 
     35 O35        -0.9471   47.2153   24.4816 O.co2     1 UNK         0.0000 
     36 H36        -4.2363   48.2325   17.9111 H         1 UNK         0.0000 
     37 H37        -4.6031   47.6835   19.5452 H         1 UNK         0.0000 
     38 H38        -2.9982   47.3863   18.8340 H         1 UNK         0.0000 
     39 H39        -2.9201   47.3625   21.1656 H         1 UNK         0.0000 
     40 H40        -1.8375   52.7008   18.5363 H         1 UNK         0.0000 
     41 H41        -0.5503   52.1278   19.5978 H         1 UNK         0.0000 
     42 H42        -1.4791   50.9743   18.6212 H         1 UNK         0.0000 
     43 H43         0.1904   53.2792   23.2805 H         1 UNK         0.0000 
     44 H44         0.5513   51.5609   23.2203 H         1 UNK         0.0000 
     45 H45         0.3727   52.4780   21.7154 H         1 UNK         0.0000 
     46 H46        -0.6367   49.1804   24.9057 H         1 UNK         0.0000 
     47 H47        -0.9248   50.0993   27.2818 H         1 UNK         0.0000 
     48 H48         1.1037   50.1295   26.1240 H         1 UNK         0.0000 
     49 H49         0.9280   51.8504   25.6660 H         1 UNK         0.0000 
     50 H50         1.5932   50.8005   28.4269 H         1 UNK         0.0000 
     51 H51         2.6612   51.6958   27.3758 H         1 UNK         0.0000 
     52 H52        -0.2688   51.7677   29.4538 H         1 UNK         0.0000 
     53 H53        -0.6441   53.4466   29.3602 H         1 UNK         0.0000 
     54 H54        -1.3137   53.1492   26.9844 H         1 UNK         0.0000 
     55 H55        -2.2415   52.0278   28.0300 H         1 UNK         0.0000 
     56 H56         3.7595   54.2553   29.8075 H         1 UNK         0.0000 
     57 H57         6.1307   54.4642   29.2802 H         1 UNK         0.0000 
     58 H58         6.9140   54.3918   26.9568 H         1 UNK         0.0000 
     59 H59         1.5745   53.9815   25.4432 H         1 UNK         0.0000 
     60 H60         2.4268   53.9798   23.1363 H         1 UNK         0.0000 
     61 H61         4.8340   54.0936   22.6888 H         1 UNK         0.0000 
     62 H62         6.4476   54.2533   24.5498 H         1 UNK         0.0000 
     63 O63        -2.4908   46.1747   23.2971 O.co2     1 UNK         0.0000 
@<TRIPOS>BOND
     1    1    2 1    
     2    1   36 1    
     3    1   37 1    
     4    1   38 1    
     5    2    3 1    
     6    3    8 ar   
     7    3    4 ar   
     8    4    5 ar   
     9    4   39 1    
    10    5    6 ar   
    11    5   34 1    
    12    6    7 ar   
    13    6   13 1    
    14    7    8 ar   
    15    7   11 1    
    16    8    9 1    
    17    9   10 1    
    18   10   40 1    
    19   10   41 1    
    20   10   42 1    
    21   11   12 1    
    22   12   43 1    
    23   12   44 1    
    24   12   45 1    
    25   13   14 am   BACKBONE|DICT|INTERRES
    26   13   46 1    
    27   14   15 2    
    28   14   16 1    
    29   16   21 1    
    30   16   17 1    
    31   16   47 1    
    32   17   18 1    
    33   17   48 1    
    34   17   49 1    
    35   18   19 1    
    36   18   50 1    
    37   18   51 1    
    38   19   20 1    
    39   19   22 am   BACKBONE|DICT|INTERRES
    40   20   21 1    
    41   20   52 1    
    42   20   53 1    
    43   21   54 1    
    44   21   55 1    
    45   22   23 2    
    46   22   24 1    
    47   24   29 ar   
    48   24   25 ar   
    49   25   26 ar   
    50   25   56 1    
    51   26   27 ar   
    52   26   57 1    
    53   27   28 ar   
    54   27   58 1    
    55   28   33 ar   
    56   28   29 ar   
    57   29   30 ar   
    58   30   31 ar   
    59   30   59 1    
    60   31   32 ar   
    61   31   60 1    
    62   32   33 ar   
    63   32   61 1    
    64   33   62 1    
    65   34   35 2    
    66   34   63 1    
@<TRIPOS>SUBSTRUCTURE
     1 UNK         1 GROUP             0       ****    0 ROOT    
