ZINC21185580_2256
                    3D
 Schrodinger Suite 2024-2.
 57 59  0  0  1  0            999 V2000
   -1.4200   51.2969   29.1779 C   0  0  0  0  0  0
   -0.1924   51.7289   28.3629 C   0  0  2  0  0  0
    0.5285   50.9110   28.4322 H   0  0  0  0  0  0
    0.4089   53.0421   28.9071 C   0  0  0  0  0  0
    1.7686   53.3692   28.2535 C   0  0  0  0  0  0
    1.6769   53.1737   26.7367 C   0  0  0  0  0  0
    0.6020   52.4963   26.1322 C   0  0  0  0  0  0
    0.7285   52.4519   24.4008 S   0  0  0  0  0  0
    2.2193   53.3152   24.4790 C   0  0  0  0  0  0
    2.5976   53.6394   25.7736 C   0  0  0  0  0  0
    3.8215   54.4132   25.9692 C   0  0  0  0  0  0
    4.1933   54.8834   27.0485 O   0  0  0  0  0  0
    4.5251   54.5722   24.7729 N   0  0  0  0  0  0
    4.0713   54.1785   23.5029 C   0  0  0  0  0  0
    2.9262   53.6082   23.3627 N   0  0  0  0  0  0
    5.0460   54.4960   21.9919 S   0  0  0  0  0  0
    4.0451   53.8284   20.6223 C   0  0  1  0  0  0
    3.1044   54.3528   20.7298 H   0  0  0  0  0  0
    4.6360   54.2189   19.2547 C   0  0  0  0  0  0
    3.7736   52.3124   20.6841 C   0  0  0  0  0  0
    4.7040   51.5264   20.8818 O   0  0  0  0  0  0
    2.4716   51.9602   20.5467 N   0  0  0  0  0  0
    1.9171   50.7671   20.2329 C   0  0  0  0  0  0
    0.7154   50.5921   20.4283 O   0  0  0  0  0  0
    2.7044   49.8228   19.6816 N   0  0  0  0  0  0
    2.3030   48.4505   19.4066 C   0  0  0  0  0  0
    5.8267   55.2906   24.9141 C   0  0  0  0  0  0
    7.0735   54.4069   25.1904 C   0  0  0  0  0  0
    6.9742   53.6594   26.5461 C   0  0  0  0  0  0
    7.4293   53.5325   23.9667 C   0  0  0  0  0  0
   -0.5869   51.9104   26.8789 C   0  0  0  0  0  0
   -2.1356   52.0966   29.2814 H   0  0  0  0  0  0
   -1.9641   50.4967   28.6850 H   0  0  0  0  0  0
   -1.1486   50.9618   30.1794 H   0  0  0  0  0  0
   -0.3037   53.8611   28.7941 H   0  0  0  0  0  0
    0.5515   52.9567   29.9856 H   0  0  0  0  0  0
    2.5437   52.7169   28.6593 H   0  0  0  0  0  0
    2.0561   54.3901   28.5087 H   0  0  0  0  0  0
    4.0174   53.8633   18.4285 H   0  0  0  0  0  0
    4.7139   55.3023   19.1548 H   0  0  0  0  0  0
    5.6362   53.8030   19.1186 H   0  0  0  0  0  0
    1.8054   52.7088   20.6590 H   0  0  0  0  0  0
    3.6213   50.0965   19.3454 H   0  0  0  0  0  0
    2.9458   48.0331   18.6308 H   0  0  0  0  0  0
    1.2705   48.3939   19.0583 H   0  0  0  0  0  0
    2.4071   47.8406   20.3043 H   0  0  0  0  0  0
    6.0276   55.8843   24.0253 H   0  0  0  0  0  0
    5.7607   56.0535   25.6906 H   0  0  0  0  0  0
    7.9039   55.0984   25.2819 H   0  0  0  0  0  0
    6.1970   52.8972   26.5247 H   0  0  0  0  0  0
    7.8894   53.1698   26.8817 H   0  0  0  0  0  0
    6.7190   54.3550   27.3462 H   0  0  0  0  0  0
    6.5957   52.8967   23.6819 H   0  0  0  0  0  0
    7.6396   54.1566   23.0995 H   0  0  0  0  0  0
    8.3045   52.8969   24.0819 H   0  0  0  0  0  0
   -1.4394   52.5847   26.7947 H   0  0  0  0  0  0
   -0.8898   50.9568   26.4453 H   0  0  0  0  0  0
  1  2  1  0  0  0
  1 32  1  0  0  0
  1 33  1  0  0  0
  1 34  1  0  0  0
  2  3  1  0  0  0
  2 31  1  0  0  0
  2  4  1  0  0  0
  4  5  1  0  0  0
  4 35  1  0  0  0
  4 36  1  0  0  0
  5  6  1  0  0  0
  5 37  1  0  0  0
  5 38  1  0  0  0
  6 10  1  0  0  0
  6  7  2  0  0  0
  7  8  1  0  0  0
  7 31  1  0  0  0
  8  9  1  0  0  0
  9 15  1  0  0  0
  9 10  2  0  0  0
 10 11  1  0  0  0
 11 12  2  0  0  0
 11 13  1  0  0  0
 13 14  1  0  0  0
 13 27  1  0  0  0
 14 15  2  0  0  0
 14 16  1  0  0  0
 16 17  1  0  0  0
 17 18  1  0  0  0
 17 19  1  0  0  0
 17 20  1  0  0  0
 19 39  1  0  0  0
 19 40  1  0  0  0
 19 41  1  0  0  0
 20 21  2  0  0  0
 20 22  1  0  0  0
 22 23  1  0  0  0
 22 42  1  0  0  0
 23 24  2  0  0  0
 23 25  1  0  0  0
 25 26  1  0  0  0
 25 43  1  0  0  0
 26 44  1  0  0  0
 26 45  1  0  0  0
 26 46  1  0  0  0
 27 28  1  0  0  0
 27 47  1  0  0  0
 27 48  1  0  0  0
 28 29  1  0  0  0
 28 30  1  0  0  0
 28 49  1  0  0  0
 29 50  1  0  0  0
 29 51  1  0  0  0
 29 52  1  0  0  0
 30 53  1  0  0  0
 30 54  1  0  0  0
 30 55  1  0  0  0
 31 56  1  0  0  0
 31 57  1  0  0  0
M  END
> <i_i_glide_confnum>
12

> <i_i_glide_lignum>
2257

> <i_i_glide_posenum>
316

> <i_i_glide_rotatable_bonds>
8

> <i_m_Source_File_Index>
227

> <b_m_subgroup_collapsed>
0

> <r_i_docking_score>
-4.20789

> <r_i_glide_ecoul>
-4.00449

> <r_i_glide_eff_state_penalty>
0

> <r_i_glide_einternal>
6.19079

> <r_i_glide_emodel>
-49.3374

> <r_i_glide_energy>
-42.6673

> <r_i_glide_erotb>
0.627473

> <r_i_glide_esite>
-0.106762

> <r_i_glide_evdw>
-38.6628

> <r_i_glide_gscore>
-4.20789

> <r_i_glide_hbond>
-0.123632

> <r_i_glide_ligand_efficiency>
-0.1451

> <r_i_glide_ligand_efficiency_ln>
-0.963499

> <r_i_glide_ligand_efficiency_sa>
-0.445792

> <r_i_glide_lipo>
-1.98396

> <r_i_glide_metal>
0

> <r_i_glide_rewards>
-0.0871867

> <s_i_glide_gridfile>
wee1_glide-grid

> <s_m_Source_File>
wee1_decoys_glide_SP.sdf

> <s_m_Source_Path>
/Users/zhangxujun/Desktop

> <s_m_entry_id>
502

> <s_m_entry_name>
wee1_decoys_glide_SP.227

> <s_m_subgroup_title>
wee1_decoys_glide_SP

> <s_m_subgroupid>
wee1_decoys_glide_SP


$$$$
