@<TRIPOS>MOLECULE
ZINC49560642_1603
39   40    1
SMALL
USER_CHARGES


@<TRIPOS>ATOM
      1 C1          5.9048   54.6972   28.0184 C.3       1 UNK         0.0000 
      2 C2          5.2424   54.4962   26.6709 C.ar      1 UNK         0.0000 
      3 C3          3.8643   54.3037   26.5930 C.ar      1 UNK         0.0000 
      4 C4          3.2671   54.0551   25.3616 C.ar      1 UNK         0.0000 
      5 C5          4.0404   53.9906   24.1935 C.ar      1 UNK         0.0000 
      6 C6          5.4212   54.2167   24.2834 C.ar      1 UNK         0.0000 
      7 C7          6.0191   54.4754   25.5135 C.ar      1 UNK         0.0000 
      8 C8          3.4205   53.5580   22.8523 C.3       1 UNK         0.0000 
      9 H9          3.6528   52.4967   22.7710 H         1 UNK         0.0000 
     10 C10         4.0211   54.2160   21.5996 C.3       1 UNK         0.0000 
     11 N11         1.9406   53.6568   22.8195 N.pl3     1 UNK         0.0000 
     12 S12         1.0149   52.1605   22.9271 S.o2      1 UNK         0.0000 
     13 O13         1.5038   51.4022   24.0819 O.2       1 UNK         0.0000 
     14 O14        -0.4059   52.4964   22.7924 O.2       1 UNK         0.0000 
     15 C15         1.4663   51.2525   21.4558 C.ar      1 UNK         0.0000 
     16 C16         1.9337   49.9361   21.5269 C.ar      1 UNK         0.0000 
     17 C17         2.2856   49.2967   20.3372 C.ar      1 UNK         0.0000 
     18 N18         2.2028   49.8978   19.1230 N.ar      1 UNK         0.0000 
     19 C19         1.7726   51.1892   19.0677 C.ar      1 UNK         0.0000 
     20 C20         1.3742   51.8814   20.2112 C.ar      1 UNK         0.0000 
     21 N21         1.6912   51.8349   17.8261 N.pl3     1 UNK         0.0000 
     22 N22         2.3043   51.2967   16.6274 N.3       1 UNK         0.0000 
     23 H23         5.2173   54.5377   28.8495 H         1 UNK         0.0000 
     24 H24         6.7390   54.0047   28.1398 H         1 UNK         0.0000 
     25 H25         6.3042   55.7050   28.0816 H         1 UNK         0.0000 
     26 H26         3.2557   54.3175   27.4854 H         1 UNK         0.0000 
     27 H27         2.2040   53.8669   25.3355 H         1 UNK         0.0000 
     28 H28         6.0542   54.1556   23.4116 H         1 UNK         0.0000 
     29 H29         7.0881   54.6172   25.5658 H         1 UNK         0.0000 
     30 H30         5.0595   53.9239   21.4461 H         1 UNK         0.0000 
     31 H31         3.4854   53.9311   20.6939 H         1 UNK         0.0000 
     32 H32         3.9913   55.2966   21.6820 H         1 UNK         0.0000 
     33 H33         1.5769   54.3162   22.1263 H         1 UNK         0.0000 
     34 H34         2.0281   49.4246   22.4751 H         1 UNK         0.0000 
     35 H35         2.6616   48.2837   20.3421 H         1 UNK         0.0000 
     36 H36         1.0172   52.8968   20.1374 H         1 UNK         0.0000 
     37 H37         1.6897   52.8464   17.8055 H         1 UNK         0.0000 
     38 H38         3.1586   50.7920   16.8810 H         1 UNK         0.0000 
     39 H39         1.6548   50.6568   16.1915 H         1 UNK         0.0000 
@<TRIPOS>BOND
     1    1    2 1    
     2    1   23 1    
     3    1   24 1    
     4    1   25 1    
     5    2    7 ar   
     6    2    3 ar   
     7    3    4 ar   
     8    3   26 1    
     9    4    5 ar   
    10    4   27 1    
    11    5    6 ar   
    12    5    8 1    
    13    6    7 ar   
    14    6   28 1    
    15    7   29 1    
    16    8    9 1    
    17    8   10 1    
    18    8   11 1    
    19   10   30 1    
    20   10   31 1    
    21   10   32 1    
    22   11   12 1    
    23   11   33 1    
    24   12   13 2    
    25   12   14 2    
    26   12   15 1    
    27   15   20 ar   
    28   15   16 ar   
    29   16   17 ar   
    30   16   34 1    
    31   17   18 ar   
    32   17   35 1    
    33   18   19 ar   
    34   19   20 ar   
    35   19   21 1    
    36   20   36 1    
    37   21   22 1    
    38   21   37 1    
    39   22   38 1    
    40   22   39 1    
@<TRIPOS>SUBSTRUCTURE
     1 UNK         1 GROUP             0       ****    0 ROOT    
