@<TRIPOS>MOLECULE
ZINC38547622_2923
57   60    1
SMALL
USER_CHARGES


@<TRIPOS>ATOM
      1 C1         -2.8312   46.2454   25.7360 C.3       1 UNK         0.0000 
      2 C2         -2.0186   47.2638   24.9655 C.ar      1 UNK         0.0000 
      3 C3         -2.0253   47.3736   23.5710 C.ar      1 UNK         0.0000 
      4 C4         -1.3038   48.4091   22.9654 C.ar      1 UNK         0.0000 
      5 C5         -0.6038   49.3226   23.7620 C.ar      1 UNK         0.0000 
      6 C6         -0.6104   49.1651   25.1542 C.ar      1 UNK         0.0000 
      7 N7         -1.2952   48.1409   25.6816 N.pl3     1 UNK         0.0000 
      8 N8         -0.0425   50.0880   26.0705 N.pl3     1 UNK         0.0000 
      9 C9         -0.1479   51.5378   25.8439 C.3       1 UNK         0.0000 
     10 H10         0.3199   51.6574   24.8679 H         1 UNK         0.0000 
     11 C11        -1.6143   51.9757   25.6662 C.ar      1 UNK         0.0000 
     12 C12        -2.6254   51.4498   26.4823 C.ar      1 UNK         0.0000 
     13 C13        -3.9483   51.8362   26.3121 C.ar      1 UNK         0.0000 
     14 C14        -4.2887   52.7471   25.3114 C.ar      1 UNK         0.0000 
     15 C15        -3.2912   53.2517   24.4700 C.ar      1 UNK         0.0000 
     16 C16        -1.9615   52.8656   24.6450 C.ar      1 UNK         0.0000 
     17 C17        -5.7449   53.1759   25.1539 C.3       1 UNK         0.0000 
     18 F18        -6.4144   52.2231   24.5054 F         1 UNK         0.0000 
     19 F19        -6.3121   53.3672   26.3465 F         1 UNK         0.0000 
     20 F20        -5.8474   54.3112   24.4666 F         1 UNK         0.0000 
     21 C21         0.6229   52.3861   26.8707 C.2       1 UNK         0.0000 
     22 C22         0.3937   52.4199   28.2783 C.2       1 UNK         0.0000 
     23 C23         1.2240   53.3244   28.9553 C.2       1 UNK         0.0000 
     24 S24         2.3256   54.0958   27.8733 S.3       1 UNK         0.0000 
     25 C25         1.6856   53.2264   26.5132 C.2       1 UNK         0.0000 
     26 N26         2.2110   53.3393   25.2273 N.am      1 UNK         0.0000 
     27 C27         3.2458   54.0904   24.7894 C.2       1 UNK         0.0000 
     28 O28         3.9012   54.8924   25.4567 O.2       1 UNK         0.0000 
     29 C29         3.5671   53.8269   23.4113 C.2       1 UNK         0.0000 
     30 C30         2.8204   53.2996   22.3571 C.2       1 UNK         0.0000 
     31 C31         3.6450   53.3060   21.2315 C.2       1 UNK         0.0000 
     32 C32         4.8399   53.8800   21.6288 C.2       1 UNK         0.0000 
     33 O33         4.7886   54.2065   22.9458 O.3       1 UNK         0.0000 
     34 C34         1.2851   53.6629   30.4290 C.3       1 UNK         0.0000 
     35 C35        -0.5778   51.5253   29.0239 C.3       1 UNK         0.0000 
     36 H36        -3.5040   45.6975   25.0790 H         1 UNK         0.0000 
     37 H37        -2.1786   45.5493   26.2635 H         1 UNK         0.0000 
     38 H38        -3.4459   46.7485   26.4850 H         1 UNK         0.0000 
     39 H39        -2.5978   46.6888   22.9628 H         1 UNK         0.0000 
     40 H40        -1.3055   48.5182   21.8905 H         1 UNK         0.0000 
     41 H41        -0.0719   50.1386   23.2986 H         1 UNK         0.0000 
     42 H42         0.0874   49.7881   27.0273 H         1 UNK         0.0000 
     43 H43        -2.4032   50.7175   27.2437 H         1 UNK         0.0000 
     44 H44        -4.7082   51.4187   26.9576 H         1 UNK         0.0000 
     45 H45        -3.5362   53.9533   23.6856 H         1 UNK         0.0000 
     46 H46        -1.2003   53.2729   23.9955 H         1 UNK         0.0000 
     47 H47         1.7830   52.7483   24.5327 H         1 UNK         0.0000 
     48 H48         1.8006   52.9466   22.3919 H         1 UNK         0.0000 
     49 H49         3.3916   52.9608   20.2385 H         1 UNK         0.0000 
     50 H50         5.7589   54.1160   21.1129 H         1 UNK         0.0000 
     51 H51         0.4351   53.2803   30.9937 H         1 UNK         0.0000 
     52 H52         2.1839   53.2464   30.8822 H         1 UNK         0.0000 
     53 H53         1.3001   54.7406   30.5916 H         1 UNK         0.0000 
     54 H54        -0.6374   50.5316   28.5854 H         1 UNK         0.0000 
     55 H55        -0.2834   51.3451   30.0573 H         1 UNK         0.0000 
     56 H56        -1.5838   51.9402   29.0485 H         1 UNK         0.0000 
     57 H57        -1.3236   48.0834   26.7021 H         1 UNK         0.0000 
@<TRIPOS>BOND
     1    1    2 1    
     2    1   36 1    
     3    1   37 1    
     4    1   38 1    
     5    2    7 ar   
     6    2    3 ar   
     7    3    4 ar   
     8    3   39 1    
     9    4    5 ar   
    10    4   40 1    
    11    5    6 ar   
    12    5   41 1    
    13    6    7 ar   
    14    6    8 1    
    15    7   57 1    
    16    8    9 1    
    17    8   42 1    
    18    9   10 1    
    19    9   11 1    
    20    9   21 1    
    21   11   16 ar   
    22   11   12 ar   
    23   12   13 ar   
    24   12   43 1    
    25   13   14 ar   
    26   13   44 1    
    27   14   15 ar   
    28   14   17 1    
    29   15   16 ar   
    30   15   45 1    
    31   16   46 1    
    32   17   18 1    
    33   17   19 1    
    34   17   20 1    
    35   21   25 2    
    36   21   22 1    
    37   22   23 2    
    38   22   35 1    
    39   23   24 1    
    40   23   34 1    
    41   24   25 1    
    42   25   26 am   BACKBONE|DICT|INTERRES
    43   26   27 am   BACKBONE|DICT|INTERRES
    44   26   47 1    
    45   27   28 2    
    46   27   29 1    
    47   29   33 1    
    48   29   30 2    
    49   30   31 1    
    50   30   48 1    
    51   31   32 2    
    52   31   49 1    
    53   32   33 1    
    54   32   50 1    
    55   34   51 1    
    56   34   52 1    
    57   34   53 1    
    58   35   54 1    
    59   35   55 1    
    60   35   56 1    
@<TRIPOS>SUBSTRUCTURE
     1 UNK         1 GROUP             0       ****    0 ROOT    
