@<TRIPOS>MOLECULE
ZINC00544009_3757
38   40    1
SMALL
USER_CHARGES


@<TRIPOS>ATOM
      1 C1          5.6850   53.4381   28.4792 C.3       1 UNK         0.0000 
      2 C2          4.4261   52.9868   29.1902 C.2       1 UNK         0.0000 
      3 C3          4.3043   52.0969   30.2508 C.2       1 UNK         0.0000 
      4 O4          3.0342   52.0037   30.6988 O.3       1 UNK         0.0000 
      5 C5          2.3137   52.8237   29.9110 C.2       1 UNK         0.0000 
      6 C6          3.1357   53.4877   29.0014 C.2       1 UNK         0.0000 
      7 C7          2.6050   54.5390   28.0391 C.3       1 UNK         0.0000 
      8 H8          3.2172   55.4349   28.1590 H         1 UNK         0.0000 
      9 C9          1.1753   54.9423   28.4817 C.3       1 UNK         0.0000 
     10 C10         0.2849   53.7430   28.8807 C.3       1 UNK         0.0000 
     11 C11         0.8227   52.9806   30.1086 C.3       1 UNK         0.0000 
     12 N12         2.7272   54.0896   26.6412 N.am      1 UNK         0.0000 
     13 H13         2.2083   53.2553   26.4145 H         1 UNK         0.0000 
     14 C14         3.7008   54.4667   25.7894 C.2       1 UNK         0.0000 
     15 O15         4.5612   55.2956   26.0811 O.2       1 UNK         0.0000 
     16 N16         3.6078   53.8771   24.5802 N.am      1 UNK         0.0000 
     17 C17         4.4403   54.1343   23.4711 C.ar      1 UNK         0.0000 
     18 C18         3.8561   54.0716   22.2043 C.ar      1 UNK         0.0000 
     19 C19         4.5899   54.4429   21.0789 C.ar      1 UNK         0.0000 
     20 C20         5.9051   54.8818   21.2196 C.ar      1 UNK         0.0000 
     21 C21         6.5156   54.8908   22.4704 C.ar      1 UNK         0.0000 
     22 C22         5.7936   54.4965   23.5930 C.ar      1 UNK         0.0000 
     23 Cl23        6.7929   55.4030   19.8354 Cl        1 UNK         0.0000 
     24 H24         6.5951   53.2970   29.0579 H         1 UNK         0.0000 
     25 H25         5.8121   52.9359   27.5197 H         1 UNK         0.0000 
     26 H26         5.6538   54.5087   28.2763 H         1 UNK         0.0000 
     27 H27         5.0314   51.5177   30.7982 H         1 UNK         0.0000 
     28 H28         1.2388   55.6245   29.3301 H         1 UNK         0.0000 
     29 H29         0.7038   55.5122   27.6856 H         1 UNK         0.0000 
     30 H30        -0.7192   54.0917   29.1065 H         1 UNK         0.0000 
     31 H31         0.1883   53.0629   28.0326 H         1 UNK         0.0000 
     32 H32         0.6107   53.5353   31.0235 H         1 UNK         0.0000 
     33 H33         0.3228   52.0127   30.1818 H         1 UNK         0.0000 
     34 H34         2.7934   53.3123   24.3984 H         1 UNK         0.0000 
     35 H35         2.8207   53.7841   22.0847 H         1 UNK         0.0000 
     36 H36         4.1234   54.4240   20.1040 H         1 UNK         0.0000 
     37 H37         7.5421   55.2103   22.5721 H         1 UNK         0.0000 
     38 H38         6.2845   54.5178   24.5545 H         1 UNK         0.0000 
@<TRIPOS>BOND
     1    1    2 1    
     2    1   24 1    
     3    1   25 1    
     4    1   26 1    
     5    2    6 1    
     6    2    3 2    
     7    3    4 1    
     8    3   27 1    
     9    4    5 1    
    10    5   11 1    
    11    5    6 2    
    12    6    7 1    
    13    7    8 1    
    14    7    9 1    
    15    7   12 1    
    16    9   10 1    
    17    9   28 1    
    18    9   29 1    
    19   10   11 1    
    20   10   30 1    
    21   10   31 1    
    22   11   32 1    
    23   11   33 1    
    24   12   13 1    
    25   12   14 am   BACKBONE|DICT|INTERRES
    26   14   15 2    
    27   14   16 am   BACKBONE|DICT|INTERRES
    28   16   17 1    
    29   16   34 1    
    30   17   22 ar   
    31   17   18 ar   
    32   18   19 ar   
    33   18   35 1    
    34   19   20 ar   
    35   19   36 1    
    36   20   21 ar   
    37   20   23 1    
    38   21   22 ar   
    39   21   37 1    
    40   22   38 1    
@<TRIPOS>SUBSTRUCTURE
     1 UNK         1 GROUP             0       ****    0 ROOT    
