@<TRIPOS>MOLECULE
ZINC39253057_5054
48   51    1
SMALL
USER_CHARGES


@<TRIPOS>ATOM
      1 C1          3.0642   54.0534   26.6166 C.ar      1 UNK         0.0000 
      2 C2          3.8755   54.4973   25.5714 C.ar      1 UNK         0.0000 
      3 C3          5.2487   54.6390   25.7566 C.ar      1 UNK         0.0000 
      4 C4          5.8092   54.3214   26.9963 C.ar      1 UNK         0.0000 
      5 C5          4.9983   53.8635   28.0333 C.ar      1 UNK         0.0000 
      6 C6          3.6111   53.7215   27.8662 C.ar      1 UNK         0.0000 
      7 C7          2.7832   53.2556   29.0099 C.2       1 UNK         0.0000 
      8 N8          3.2594   52.7609   30.0814 N.2       1 UNK         0.0000 
      9 N9          2.3601   52.4912   30.9328 N.2       1 UNK         0.0000 
     10 C10         1.2158   52.7846   30.4931 C.2       1 UNK         0.0000 
     11 C11         1.2645   53.3388   29.0960 C.3       1 UNK         0.0000 
     12 H12         0.9488   54.3820   29.1035 H         1 UNK         0.0000 
     13 C13         0.4855   52.5352   28.0484 C.2       1 UNK         0.0000 
     14 N14         0.1740   51.2972   28.1463 N.2       1 UNK         0.0000 
     15 N15        -0.3334   50.6005   27.0661 N.am      1 UNK         0.0000 
     16 C16        -0.0478   50.7308   25.7426 C.2       1 UNK         0.0000 
     17 O17         0.6801   51.6141   25.2741 O.2       1 UNK         0.0000 
     18 C18        -0.6932   49.6907   24.7948 C.3       1 UNK         0.0000 
     19 H19        -1.3964   49.0795   25.3647 H         1 UNK         0.0000 
     20 C20        -1.3506   50.3346   23.6033 C.2       1 UNK         0.0000 
     21 C21        -0.5652   50.1452   22.5312 C.2       1 UNK         0.0000 
     22 N22         0.5490   49.3734   22.8848 N.pl3     1 UNK         0.0000 
     23 N23         0.3043   48.8214   24.2029 N.3       1 UNK         0.0000 
     24 C24         1.8955   49.9158   22.6785 C.3       1 UNK         0.0000 
     25 C25         2.1230   50.5135   21.2910 C.ar      1 UNK         0.0000 
     26 C26         2.3537   51.8907   21.1844 C.ar      1 UNK         0.0000 
     27 C27         2.5477   52.4808   19.9365 C.ar      1 UNK         0.0000 
     28 C28         2.5050   51.7011   18.7834 C.ar      1 UNK         0.0000 
     29 C29         2.2863   50.3280   18.8813 C.ar      1 UNK         0.0000 
     30 C30         2.1101   49.7265   20.1272 C.ar      1 UNK         0.0000 
     31 Cl31        1.8964   48.0119   20.1899 Cl        1 UNK         0.0000 
     32 Cl32        2.7295   52.4340   17.2376 Cl        1 UNK         0.0000 
     33 Cl33        7.4986   54.4962   27.2834 Cl        1 UNK         0.0000 
     34 Cl34        6.2242   55.2198   24.4509 Cl        1 UNK         0.0000 
     35 H35         2.0095   53.9780   26.4178 H         1 UNK         0.0000 
     36 H36         3.4318   54.7430   24.6171 H         1 UNK         0.0000 
     37 H37         5.4682   53.6277   28.9774 H         1 UNK         0.0000 
     38 H38         0.3093   52.6387   31.0760 H         1 UNK         0.0000 
     39 H39         0.2058   53.1412   27.1922 H         1 UNK         0.0000 
     40 H40        -0.7685   49.7272   27.3520 H         1 UNK         0.0000 
     41 H41        -2.2662   50.9034   23.6603 H         1 UNK         0.0000 
     42 H42        -0.6791   50.5221   21.5249 H         1 UNK         0.0000 
     43 H43         1.1892   48.8625   24.6923 H         1 UNK         0.0000 
     44 H44         2.1050   50.6716   23.4346 H         1 UNK         0.0000 
     45 H45         2.6301   49.1265   22.8396 H         1 UNK         0.0000 
     46 H46         2.3733   52.5136   22.0677 H         1 UNK         0.0000 
     47 H47         2.7238   53.5431   19.8605 H         1 UNK         0.0000 
     48 H48         2.2976   49.7234   17.9851 H         1 UNK         0.0000 
@<TRIPOS>BOND
     1    1    6 ar   
     2    1    2 ar   
     3    1   35 1    
     4    2    3 ar   
     5    2   36 1    
     6    3    4 ar   
     7    3   34 1    
     8    4    5 ar   
     9    4   33 1    
    10    5    6 ar   
    11    5   37 1    
    12    6    7 1    
    13    7   11 1    
    14    7    8 2    
    15    8    9 1    
    16    9   10 2    
    17   10   11 1    
    18   10   38 1    
    19   11   12 1    
    20   11   13 1    
    21   13   14 2    
    22   13   39 1    
    23   14   15 1    
    24   15   16 am   BACKBONE|DICT|INTERRES
    25   15   40 1    
    26   16   17 2    
    27   16   18 1    
    28   18   19 1    
    29   18   23 1    
    30   18   20 1    
    31   20   21 2    
    32   20   41 1    
    33   21   22 1    
    34   21   42 1    
    35   22   23 1    
    36   22   24 1    
    37   23   43 1    
    38   24   25 1    
    39   24   44 1    
    40   24   45 1    
    41   25   30 ar   
    42   25   26 ar   
    43   26   27 ar   
    44   26   46 1    
    45   27   28 ar   
    46   27   47 1    
    47   28   29 ar   
    48   28   32 1    
    49   29   30 ar   
    50   29   48 1    
    51   30   31 1    
@<TRIPOS>SUBSTRUCTURE
     1 UNK         1 GROUP             0       ****    0 ROOT    
