@<TRIPOS>MOLECULE
ZINC16017153_5143
54   56    1
SMALL
USER_CHARGES


@<TRIPOS>ATOM
      1 C1          9.1403   54.9720   18.5626 C.3       1 UNK         0.0000 
      2 C2          8.6872   56.2249   19.3391 C.3       1 UNK         0.0000 
      3 C3          8.6249   57.4396   18.3825 C.3       1 UNK         0.0000 
      4 C4          7.3458   55.9566   20.0596 C.2       1 UNK         0.0000 
      5 O5          6.2871   56.2812   19.5201 O.2       1 UNK         0.0000 
      6 N6          7.4203   55.3769   21.2808 N.am      1 UNK         0.0000 
      7 C7          6.3527   54.9299   22.0839 C.ar      1 UNK         0.0000 
      8 C8          5.1258   54.4961   21.5598 C.ar      1 UNK         0.0000 
      9 C9          4.1090   54.0888   22.4171 C.ar      1 UNK         0.0000 
     10 C10         4.3066   54.0967   23.7987 C.ar      1 UNK         0.0000 
     11 C11         5.5452   54.4947   24.3223 C.ar      1 UNK         0.0000 
     12 C12         6.5622   54.9023   23.4640 C.ar      1 UNK         0.0000 
     13 N13         3.2372   53.6320   24.5796 N.am      1 UNK         0.0000 
     14 C14         3.0137   53.7703   25.9047 C.2       1 UNK         0.0000 
     15 O15         3.6740   54.4966   26.6485 O.2       1 UNK         0.0000 
     16 C16         1.8314   52.9833   26.4341 C.ar      1 UNK         0.0000 
     17 C17         0.7045   52.7966   25.6149 C.ar      1 UNK         0.0000 
     18 C18        -0.4147   52.0964   26.0659 C.ar      1 UNK         0.0000 
     19 C19        -0.4133   51.5407   27.3430 C.ar      1 UNK         0.0000 
     20 C20         0.7022   51.6964   28.1617 C.ar      1 UNK         0.0000 
     21 C21         1.8220   52.4055   27.7230 C.ar      1 UNK         0.0000 
     22 Br22        3.3055   52.4921   28.9265 Br        1 UNK         0.0000 
     23 S23        -1.8374   51.9063   24.9905 S.o2      1 UNK         0.0000 
     24 O24        -3.0310   51.8568   25.8419 O.2       1 UNK         0.0000 
     25 O25        -1.7223   52.9047   23.9201 O.2       1 UNK         0.0000 
     26 N26        -1.6286   50.3175   24.2463 N.pl3     1 UNK         0.0000 
     27 C27        -0.4638   50.1066   23.3507 C.3       1 UNK         0.0000 
     28 C28         0.3731   49.1190   24.1392 C.3       1 UNK         0.0000 
     29 C29        -0.6795   48.2117   24.7405 C.3       1 UNK         0.0000 
     30 C30        -1.8763   49.1072   25.0853 C.3       1 UNK         0.0000 
     31 H31         9.2013   54.0970   19.2077 H         1 UNK         0.0000 
     32 H32        10.1301   55.1154   18.1256 H         1 UNK         0.0000 
     33 H33         8.4525   54.7263   17.7520 H         1 UNK         0.0000 
     34 H34         9.4381   56.4468   20.0998 H         1 UNK         0.0000 
     35 H35         8.2857   58.3468   18.8824 H         1 UNK         0.0000 
     36 H36         9.6048   57.6536   17.9580 H         1 UNK         0.0000 
     37 H37         7.9402   57.2602   17.5525 H         1 UNK         0.0000 
     38 H38         8.3345   55.3033   21.7048 H         1 UNK         0.0000 
     39 H39         4.9429   54.4746   20.4942 H         1 UNK         0.0000 
     40 H40         3.1679   53.7688   21.9915 H         1 UNK         0.0000 
     41 H41         5.7413   54.4788   25.3828 H         1 UNK         0.0000 
     42 H42         7.5042   55.2187   23.8833 H         1 UNK         0.0000 
     43 H43         2.5630   53.0834   24.0714 H         1 UNK         0.0000 
     44 H44         0.6678   53.2306   24.6253 H         1 UNK         0.0000 
     45 H45        -1.2662   50.9813   27.7046 H         1 UNK         0.0000 
     46 H46         0.6987   51.2475   29.1460 H         1 UNK         0.0000 
     47 H47        -0.8058   49.6281   22.4321 H         1 UNK         0.0000 
     48 H48         0.0057   51.0326   23.0128 H         1 UNK         0.0000 
     49 H49         1.0929   48.5841   23.5172 H         1 UNK         0.0000 
     50 H50         0.9403   49.6297   24.9217 H         1 UNK         0.0000 
     51 H51        -0.3114   47.6980   25.6259 H         1 UNK         0.0000 
     52 H52        -0.9691   47.4471   24.0179 H         1 UNK         0.0000 
     53 H53        -1.7892   49.3057   26.1534 H         1 UNK         0.0000 
     54 H54        -2.7613   48.5497   24.7799 H         1 UNK         0.0000 
@<TRIPOS>BOND
     1    1    2 1    
     2    1   31 1    
     3    1   32 1    
     4    1   33 1    
     5    2    3 1    
     6    2    4 1    
     7    2   34 1    
     8    3   35 1    
     9    3   36 1    
    10    3   37 1    
    11    4    5 2    
    12    4    6 am   BACKBONE|DICT|INTERRES
    13    6    7 1    
    14    6   38 1    
    15    7   12 ar   
    16    7    8 ar   
    17    8    9 ar   
    18    8   39 1    
    19    9   10 ar   
    20    9   40 1    
    21   10   11 ar   
    22   10   13 1    
    23   11   12 ar   
    24   11   41 1    
    25   12   42 1    
    26   13   14 am   BACKBONE|DICT|INTERRES
    27   13   43 1    
    28   14   15 2    
    29   14   16 1    
    30   16   21 ar   
    31   16   17 ar   
    32   17   18 ar   
    33   17   44 1    
    34   18   19 ar   
    35   18   23 1    
    36   19   20 ar   
    37   19   45 1    
    38   20   21 ar   
    39   20   46 1    
    40   21   22 1    
    41   23   24 2    
    42   23   25 2    
    43   23   26 1    
    44   26   30 1    
    45   26   27 1    
    46   27   28 1    
    47   27   47 1    
    48   27   48 1    
    49   28   29 1    
    50   28   49 1    
    51   28   50 1    
    52   29   30 1    
    53   29   51 1    
    54   29   52 1    
    55   30   53 1    
    56   30   54 1    
@<TRIPOS>SUBSTRUCTURE
     1 UNK         1 GROUP             0       ****    0 ROOT    
