@<TRIPOS>MOLECULE
ZINC67388809_6229
61   62    1
SMALL
USER_CHARGES


@<TRIPOS>ATOM
      1 C1          5.8548   60.4288   14.4451 C.3       1 UNK         0.0000 
      2 C2          6.2596   58.9484   14.5539 C.3       1 UNK         0.0000 
      3 C3          7.7956   58.8159   14.5986 C.3       1 UNK         0.0000 
      4 C4          5.5602   58.2616   15.7525 C.3       1 UNK         0.0000 
      5 C5          5.8196   56.7354   15.8280 C.3       1 UNK         0.0000 
      6 C6          4.9754   55.9842   16.8657 C.2       1 UNK         0.0000 
      7 O7          3.8794   56.4224   17.2244 O.2       1 UNK         0.0000 
      8 N8          5.5263   54.8408   17.3287 N.am      1 UNK         0.0000 
      9 N9          4.7936   54.0176   18.1821 N.am      1 UNK         0.0000 
     10 C10         5.1118   54.0138   19.4903 C.2       1 UNK         0.0000 
     11 O11         5.9044   54.7950   20.0289 O.2       1 UNK         0.0000 
     12 N12         4.4196   53.0857   20.1655 N.am      1 UNK         0.0000 
     13 C13         4.3416   53.0161   21.6269 C.3       1 UNK         0.0000 
     14 C14         3.0052   52.5125   22.1632 C.ar      1 UNK         0.0000 
     15 C15         2.5095   51.3029   21.6433 C.ar      1 UNK         0.0000 
     16 C16         1.2950   50.7815   22.0842 C.ar      1 UNK         0.0000 
     17 C17         0.5594   51.4573   23.0523 C.ar      1 UNK         0.0000 
     18 C18         1.0398   52.6557   23.5780 C.ar      1 UNK         0.0000 
     19 C19         2.2676   53.1904   23.1631 C.ar      1 UNK         0.0000 
     20 C20         2.6833   54.5390   23.7801 C.3       1 UNK         0.0000 
     21 N21         3.5566   54.4942   24.9673 N.3       1 UNK         0.0000 
     22 C22         3.0305   53.6113   26.0186 C.3       1 UNK         0.0000 
     23 C23         3.8843   53.6691   27.2992 C.3       1 UNK         0.0000 
     24 N24         5.3436   53.3219   26.9384 N.4       1 UNK         0.0000 
     25 C25         5.8743   54.3297   25.8987 C.3       1 UNK         0.0000 
     26 C26         4.9738   54.2898   24.6454 C.3       1 UNK         0.0000 
     27 C27         6.2328   53.3052   28.1993 C.3       1 UNK         0.0000 
     28 H28         6.2411   61.0123   15.2828 H         1 UNK         0.0000 
     29 H29         4.7701   60.5463   14.4392 H         1 UNK         0.0000 
     30 H30         6.2325   60.8791   13.5265 H         1 UNK         0.0000 
     31 H31         5.9138   58.4573   13.6435 H         1 UNK         0.0000 
     32 H32         8.2035   59.2522   15.5138 H         1 UNK         0.0000 
     33 H33         8.1142   57.7736   14.5531 H         1 UNK         0.0000 
     34 H34         8.2606   59.3264   13.7522 H         1 UNK         0.0000 
     35 H35         5.8756   58.7395   16.6822 H         1 UNK         0.0000 
     36 H36         4.4862   58.4458   15.6711 H         1 UNK         0.0000 
     37 H37         5.6044   56.2833   14.8587 H         1 UNK         0.0000 
     38 H38         6.8759   56.5549   16.0359 H         1 UNK         0.0000 
     39 H39         6.3491   54.3984   16.9432 H         1 UNK         0.0000 
     40 H40         4.3649   53.2384   17.7055 H         1 UNK         0.0000 
     41 H41         4.0399   52.3038   19.6478 H         1 UNK         0.0000 
     42 H42         5.1231   52.3352   21.9716 H         1 UNK         0.0000 
     43 H43         4.5958   53.9840   22.0532 H         1 UNK         0.0000 
     44 H44         3.0659   50.7619   20.8910 H         1 UNK         0.0000 
     45 H45         0.9259   49.8525   21.6738 H         1 UNK         0.0000 
     46 H46        -0.3835   51.0560   23.3935 H         1 UNK         0.0000 
     47 H47         0.4518   53.1667   24.3249 H         1 UNK         0.0000 
     48 H48         3.1125   55.1786   23.0103 H         1 UNK         0.0000 
     49 H49         1.7788   55.0780   24.0713 H         1 UNK         0.0000 
     50 H50         1.9932   53.8571   26.2582 H         1 UNK         0.0000 
     51 H51         3.0748   52.5887   25.6395 H         1 UNK         0.0000 
     52 H52         3.5540   52.9058   28.0062 H         1 UNK         0.0000 
     53 H53         3.8717   54.6527   27.7742 H         1 UNK         0.0000 
     54 H54         6.8843   54.0000   25.6473 H         1 UNK         0.0000 
     55 H55         5.9055   55.3156   26.3660 H         1 UNK         0.0000 
     56 H56         5.0594   53.2937   24.2185 H         1 UNK         0.0000 
     57 H57         5.3287   55.0235   23.9225 H         1 UNK         0.0000 
     58 H58         6.2564   54.3112   28.6259 H         1 UNK         0.0000 
     59 H59         5.7688   52.5946   28.8817 H         1 UNK         0.0000 
     60 H60         7.2260   52.9711   27.9001 H         1 UNK         0.0000 
     61 H61         5.3552   52.3952   26.5257 H         1 UNK         0.0000 
@<TRIPOS>BOND
     1    1    2 1    
     2    1   28 1    
     3    1   29 1    
     4    1   30 1    
     5    2    3 1    
     6    2    4 1    
     7    2   31 1    
     8    3   32 1    
     9    3   33 1    
    10    3   34 1    
    11    4    5 1    
    12    4   35 1    
    13    4   36 1    
    14    5    6 1    
    15    5   37 1    
    16    5   38 1    
    17    6    7 2    
    18    6    8 am   BACKBONE|DICT|INTERRES
    19    8    9 1    
    20    8   39 1    
    21    9   10 am   BACKBONE|DICT|INTERRES
    22    9   40 1    
    23   10   11 2    
    24   10   12 am   BACKBONE|DICT|INTERRES
    25   12   13 1    
    26   12   41 1    
    27   13   14 1    
    28   13   42 1    
    29   13   43 1    
    30   14   19 ar   
    31   14   15 ar   
    32   15   16 ar   
    33   15   44 1    
    34   16   17 ar   
    35   16   45 1    
    36   17   18 ar   
    37   17   46 1    
    38   18   19 ar   
    39   18   47 1    
    40   19   20 1    
    41   20   21 1    
    42   20   48 1    
    43   20   49 1    
    44   21   26 1    
    45   21   22 1    
    46   22   23 1    
    47   22   50 1    
    48   22   51 1    
    49   23   24 1    
    50   23   52 1    
    51   23   53 1    
    52   24   25 1    
    53   24   27 1    
    54   24   61 1    
    55   25   26 1    
    56   25   54 1    
    57   25   55 1    
    58   26   56 1    
    59   26   57 1    
    60   27   58 1    
    61   27   59 1    
    62   27   60 1    
@<TRIPOS>SUBSTRUCTURE
     1 UNK         1 GROUP             0       ****    0 ROOT    
