ZINC29063180_2530
                    3D
 Schrodinger Suite 2024-2.
 44 46  0  0  1  0            999 V2000
    3.6769   52.9619   29.2988 C   0  0  0  0  0  0
    2.9536   53.8444   28.2490 C   0  0  0  0  0  0
    1.6279   53.1104   27.9050 C   0  0  0  0  0  0
    2.6011   55.2083   28.8842 C   0  0  0  0  0  0
    3.8574   54.0838   27.0081 C   0  0  0  0  0  0
    5.2006   54.4450   27.1941 C   0  0  0  0  0  0
    6.0749   54.6462   26.1264 C   0  0  0  0  0  0
    5.5966   54.4973   24.8213 C   0  0  0  0  0  0
    6.1815   54.6090   23.5230 C   0  0  0  0  0  0
    5.2031   54.3416   22.5790 C   0  0  0  0  0  0
    4.0300   54.0959   23.2651 N   0  0  0  0  0  0
    3.1584   53.8957   22.7963 H   0  0  0  0  0  0
    4.2290   54.1650   24.6301 C   0  0  0  0  0  0
    3.3494   53.9637   25.6994 C   0  0  0  0  0  0
    5.3610   54.3139   21.1429 C   0  0  0  0  0  0
    6.3089   54.8964   20.6052 O   0  0  0  0  0  0
    4.4111   53.6085   20.4849 N   0  0  0  0  0  0
    4.5270   53.3345   19.1146 N   0  0  0  0  0  0
    4.2026   54.2676   18.1905 C   0  0  0  0  0  0
    3.9042   55.4359   18.4491 O   0  0  0  0  0  0
    4.2230   53.8019   16.8235 C   0  0  0  0  0  0
    4.0218   54.5418   15.6599 C   0  0  0  0  0  0
    4.0908   53.6912   14.5508 C   0  0  0  0  0  0
    4.3288   52.4210   15.0509 C   0  0  0  0  0  0
    4.3983   52.4974   16.4185 N   0  0  0  0  0  0
    4.5679   51.7027   17.0303 H   0  0  0  0  0  0
    3.8934   54.1856   12.7227 Br  0  0  0  0  0  0
    3.0282   52.7304   30.1469 H   0  0  0  0  0  0
    4.5610   53.4430   29.7148 H   0  0  0  0  0  0
    3.9952   52.0121   28.8671 H   0  0  0  0  0  0
    0.9761   53.7075   27.2665 H   0  0  0  0  0  0
    1.8145   52.1622   27.3982 H   0  0  0  0  0  0
    1.0501   52.8857   28.8029 H   0  0  0  0  0  0
    2.1233   55.8700   28.1588 H   0  0  0  0  0  0
    1.9181   55.0948   29.7270 H   0  0  0  0  0  0
    3.4939   55.7117   29.2554 H   0  0  0  0  0  0
    5.5988   54.5743   28.1903 H   0  0  0  0  0  0
    7.1030   54.9038   26.3159 H   0  0  0  0  0  0
    7.2037   54.8540   23.2837 H   0  0  0  0  0  0
    2.3187   53.7072   25.5054 H   0  0  0  0  0  0
    3.5963   53.1912   20.9047 H   0  0  0  0  0  0
    4.7979   52.3795   18.9102 H   0  0  0  0  0  0
    3.8373   55.6058   15.6223 H   0  0  0  0  0  0
    4.4456   51.4684   14.5588 H   0  0  0  0  0  0
  1  2  1  0  0  0
  1 28  1  0  0  0
  1 29  1  0  0  0
  1 30  1  0  0  0
  2  3  1  0  0  0
  2  4  1  0  0  0
  2  5  1  0  0  0
  3 31  1  0  0  0
  3 32  1  0  0  0
  3 33  1  0  0  0
  4 34  1  0  0  0
  4 35  1  0  0  0
  4 36  1  0  0  0
  5 14  2  0  0  0
  5  6  1  0  0  0
  6  7  2  0  0  0
  6 37  1  0  0  0
  7  8  1  0  0  0
  7 38  1  0  0  0
  8 13  2  0  0  0
  8  9  1  0  0  0
  9 10  2  0  0  0
  9 39  1  0  0  0
 10 11  1  0  0  0
 10 15  1  0  0  0
 11 12  1  0  0  0
 11 13  1  0  0  0
 13 14  1  0  0  0
 14 40  1  0  0  0
 15 16  2  0  0  0
 15 17  1  0  0  0
 17 18  1  0  0  0
 17 41  1  0  0  0
 18 19  1  0  0  0
 18 42  1  0  0  0
 19 20  2  0  0  0
 19 21  1  0  0  0
 21 25  1  0  0  0
 21 22  2  0  0  0
 22 23  1  0  0  0
 22 43  1  0  0  0
 23 24  2  0  0  0
 23 27  1  0  0  0
 24 25  1  0  0  0
 24 44  1  0  0  0
 25 26  1  0  0  0
M  END
> <i_i_glide_confnum>
4

> <i_i_glide_lignum>
2531

> <i_i_glide_posenum>
253

> <i_i_glide_rotatable_bonds>
6

> <i_m_Source_File_Index>
687

> <b_m_subgroup_collapsed>
0

> <r_i_docking_score>
-6.10351

> <r_i_glide_ecoul>
-3.94537

> <r_i_glide_eff_state_penalty>
0

> <r_i_glide_einternal>
2.2291

> <r_i_glide_emodel>
-52.1288

> <r_i_glide_energy>
-37.429

> <r_i_glide_erotb>
0.482862

> <r_i_glide_esite>
-0.130385

> <r_i_glide_evdw>
-33.4837

> <r_i_glide_gscore>
-6.10351

> <r_i_glide_hbond>
-0.239259

> <r_i_glide_ligand_efficiency>
-0.24414

> <r_i_glide_ligand_efficiency_ln>
-1.44671

> <r_i_glide_ligand_efficiency_sa>
-0.71387

> <r_i_glide_lipo>
-2.98091

> <r_i_glide_metal>
0

> <r_i_glide_rewards>
-0.96982

> <s_i_glide_gridfile>
wee1_glide-grid

> <s_m_Source_File>
wee1_decoys_glide_SP.sdf

> <s_m_Source_Path>
/Users/zhangxujun/Desktop

> <s_m_entry_id>
962

> <s_m_entry_name>
wee1_decoys_glide_SP.687

> <s_m_subgroup_title>
wee1_decoys_glide_SP

> <s_m_subgroupid>
wee1_decoys_glide_SP


$$$$
