@<TRIPOS>MOLECULE
ZINC08835699_4519
64   69    1
SMALL
USER_CHARGES


@<TRIPOS>ATOM
      1 C1          8.9509   57.1284   16.1628 C.ar      1 UNK         0.0000 
      2 C2          9.9042   57.4172   17.1412 C.ar      1 UNK         0.0000 
      3 C3          9.6846   57.0983   18.4817 C.ar      1 UNK         0.0000 
      4 C4          8.4711   56.4788   18.7992 C.ar      1 UNK         0.0000 
      5 C5          7.4903   56.1779   17.8265 C.ar      1 UNK         0.0000 
      6 C6          7.7394   56.5083   16.4854 C.ar      1 UNK         0.0000 
      7 C7          6.4271   55.5702   18.5559 C.2       1 UNK         0.0000 
      8 C8          6.8150   55.5517   19.8938 C.2       1 UNK         0.0000 
      9 O9          8.0628   56.0954   20.0486 O.3       1 UNK         0.0000 
     10 C10         6.0887   55.0606   21.0382 C.2       1 UNK         0.0000 
     11 O11         4.9804   54.5481   20.8765 O.2       1 UNK         0.0000 
     12 N12         6.7047   55.2297   22.2336 N.am      1 UNK         0.0000 
     13 C13         6.2043   54.8930   23.5089 C.ar      1 UNK         0.0000 
     14 C14         6.7437   55.5461   24.6180 C.ar      1 UNK         0.0000 
     15 C15         6.2680   55.2883   25.9037 C.ar      1 UNK         0.0000 
     16 C16         5.2288   54.3754   26.0927 C.ar      1 UNK         0.0000 
     17 C17         4.7157   53.6969   24.9823 C.ar      1 UNK         0.0000 
     18 C18         5.1943   53.9483   23.7069 C.ar      1 UNK         0.0000 
     19 N19         4.7764   54.1407   27.4117 N.pl3     1 UNK         0.0000 
     20 C20         3.5851   53.6462   27.8710 C.2       1 UNK         0.0000 
     21 S21         3.4917   53.2717   29.4949 S.2       1 UNK         0.0000 
     22 N22         2.5714   53.5627   26.9509 N.am      1 UNK         0.0000 
     23 C23         1.5561   52.6825   26.7908 C.2       1 UNK         0.0000 
     24 O24         1.1273   51.9212   27.6577 O.2       1 UNK         0.0000 
     25 C25         0.9945   52.6775   25.3508 C.3       1 UNK         0.0000 
     26 C26        -0.1573   51.7086   24.9400 C.3       1 UNK         0.0000 
     27 C27        -1.4571   51.9318   25.7809 C.3       1 UNK         0.0000 
     28 C28        -2.6018   51.0070   25.2853 C.3       1 UNK         0.0000 
     29 C29        -2.1646   49.5277   25.4345 C.3       1 UNK         0.0000 
     30 C30        -0.8857   49.2690   24.5995 C.3       1 UNK         0.0000 
     31 C31         0.2521   50.2054   25.0919 C.3       1 UNK         0.0000 
     32 C32        -1.1875   49.5599   23.1071 C.3       1 UNK         0.0000 
     33 C33        -1.6319   51.0368   22.9443 C.3       1 UNK         0.0000 
     34 C34        -2.9034   51.2994   23.7923 C.3       1 UNK         0.0000 
     35 C35        -0.4976   51.9691   23.4361 C.3       1 UNK         0.0000 
     36 H36         9.1581   57.3892   15.1341 H         1 UNK         0.0000 
     37 H37        10.8319   57.8911   16.8521 H         1 UNK         0.0000 
     38 H38        10.4209   57.3053   19.2443 H         1 UNK         0.0000 
     39 H39         7.0093   56.2922   15.7190 H         1 UNK         0.0000 
     40 H40         5.4885   55.1959   18.1710 H         1 UNK         0.0000 
     41 H41         7.6038   55.6906   22.2170 H         1 UNK         0.0000 
     42 H42         7.5462   56.2533   24.4823 H         1 UNK         0.0000 
     43 H43         6.7046   55.7989   26.7498 H         1 UNK         0.0000 
     44 H44         3.9704   52.9270   25.0780 H         1 UNK         0.0000 
     45 H45         4.7750   53.3738   22.8962 H         1 UNK         0.0000 
     46 H46         5.4732   54.3093   28.1218 H         1 UNK         0.0000 
     47 H47         2.7263   54.1400   26.1392 H         1 UNK         0.0000 
     48 H48         1.8359   52.4638   24.6911 H         1 UNK         0.0000 
     49 H49         0.7026   53.6970   25.1088 H         1 UNK         0.0000 
     50 H50        -1.7755   52.9721   25.7165 H         1 UNK         0.0000 
     51 H51        -1.2786   51.7423   26.8394 H         1 UNK         0.0000 
     52 H52        -3.4977   51.1835   25.8824 H         1 UNK         0.0000 
     53 H53        -2.9659   48.8589   25.1175 H         1 UNK         0.0000 
     54 H54        -1.9806   49.2976   26.4822 H         1 UNK         0.0000 
     55 H55        -0.5753   48.2296   24.7184 H         1 UNK         0.0000 
     56 H56         0.4896   49.9607   26.1278 H         1 UNK         0.0000 
     57 H57         1.1605   50.0025   24.5209 H         1 UNK         0.0000 
     58 H58        -1.9658   48.8871   22.7421 H         1 UNK         0.0000 
     59 H59        -0.3048   49.3592   22.4975 H         1 UNK         0.0000 
     60 H60        -1.8434   51.2390   21.8938 H         1 UNK         0.0000 
     61 H61        -3.2384   52.3299   23.6689 H         1 UNK         0.0000 
     62 H62        -3.7257   50.6721   23.4439 H         1 UNK         0.0000 
     63 H63         0.3895   51.8214   22.8168 H         1 UNK         0.0000 
     64 H64        -0.7907   53.0094   23.2857 H         1 UNK         0.0000 
@<TRIPOS>BOND
     1    1    6 ar   
     2    1    2 ar   
     3    1   36 1    
     4    2    3 ar   
     5    2   37 1    
     6    3    4 ar   
     7    3   38 1    
     8    4    9 1    
     9    4    5 ar   
    10    5    6 ar   
    11    5    7 1    
    12    6   39 1    
    13    7    8 2    
    14    7   40 1    
    15    8    9 1    
    16    8   10 1    
    17   10   11 2    
    18   10   12 am   BACKBONE|DICT|INTERRES
    19   12   13 1    
    20   12   41 1    
    21   13   18 ar   
    22   13   14 ar   
    23   14   15 ar   
    24   14   42 1    
    25   15   16 ar   
    26   15   43 1    
    27   16   17 ar   
    28   16   19 1    
    29   17   18 ar   
    30   17   44 1    
    31   18   45 1    
    32   19   20 1    
    33   19   46 1    
    34   20   21 2    
    35   20   22 am   BACKBONE|DICT|INTERRES
    36   22   23 am   BACKBONE|DICT|INTERRES
    37   22   47 1    
    38   23   24 2    
    39   23   25 1    
    40   25   26 1    
    41   25   48 1    
    42   25   49 1    
    43   26   31 1    
    44   26   35 1    
    45   26   27 1    
    46   27   28 1    
    47   27   50 1    
    48   27   51 1    
    49   28   34 1    
    50   28   29 1    
    51   28   52 1    
    52   29   30 1    
    53   29   53 1    
    54   29   54 1    
    55   30   31 1    
    56   30   32 1    
    57   30   55 1    
    58   31   56 1    
    59   31   57 1    
    60   32   33 1    
    61   32   58 1    
    62   32   59 1    
    63   33   34 1    
    64   33   35 1    
    65   33   60 1    
    66   34   61 1    
    67   34   62 1    
    68   35   63 1    
    69   35   64 1    
@<TRIPOS>SUBSTRUCTURE
     1 UNK         1 GROUP             0       ****    0 ROOT    
