@<TRIPOS>MOLECULE
ZINC06023668_2003
55   58    1
SMALL
USER_CHARGES


@<TRIPOS>ATOM
      1 C1         -6.6930   48.6916   24.6925 C.3       1 UNK         0.0000 
      2 C2         -5.4114   49.4036   25.0828 C.ar      1 UNK         0.0000 
      3 C3         -4.9359   49.3218   26.3924 C.ar      1 UNK         0.0000 
      4 C4         -3.7665   49.9864   26.7506 C.ar      1 UNK         0.0000 
      5 C5         -3.0583   50.7276   25.7973 C.ar      1 UNK         0.0000 
      6 C6         -3.5487   50.8177   24.4885 C.ar      1 UNK         0.0000 
      7 C7         -4.7204   50.1558   24.1325 C.ar      1 UNK         0.0000 
      8 C8         -1.8424   51.4890   26.2132 C.2       1 UNK         0.0000 
      9 C9         -0.6268   51.5029   25.3858 C.2       1 UNK         0.0000 
     10 C10         0.4379   52.5507   25.5656 C.3       1 UNK         0.0000 
     11 H11         0.0327   53.5142   25.2817 H         1 UNK         0.0000 
     12 N12         1.3728   52.2705   24.4735 N.am      1 UNK         0.0000 
     13 C13         1.0414   51.1233   23.8164 C.2       1 UNK         0.0000 
     14 O14         1.6889   50.5952   22.9038 O.2       1 UNK         0.0000 
     15 C15        -0.2156   50.6875   24.4018 C.2       1 UNK         0.0000 
     16 O16        -0.7685   49.6275   23.9201 O.co2     1 UNK         0.0000 
     17 C17         2.4952   53.0626   24.1413 C.ar      1 UNK         0.0000 
     18 C18         2.7819   53.4030   22.8080 C.ar      1 UNK         0.0000 
     19 C19         3.9756   54.0505   22.4919 C.ar      1 UNK         0.0000 
     20 C20         4.8665   54.3606   23.5200 C.ar      1 UNK         0.0000 
     21 C21         4.5567   54.0975   24.8448 C.ar      1 UNK         0.0000 
     22 C22         3.3811   53.4523   25.1486 C.ar      1 UNK         0.0000 
     23 S23         6.4713   55.0288   23.2290 S.o2      1 UNK         0.0000 
     24 O24         6.6098   55.3909   21.8152 O.2       1 UNK         0.0000 
     25 O25         6.7081   55.9967   24.3035 O.2       1 UNK         0.0000 
     26 N26         7.5044   53.6967   23.5489 N.pl3     1 UNK         0.0000 
     27 C27         1.0743   52.6738   26.9753 C.ar      1 UNK         0.0000 
     28 C28         1.4626   51.5367   27.6816 C.ar      1 UNK         0.0000 
     29 C29         2.2081   51.6619   28.8501 C.ar      1 UNK         0.0000 
     30 C30         2.5295   52.9221   29.3709 C.ar      1 UNK         0.0000 
     31 C31         2.0694   54.0542   28.7164 C.ar      1 UNK         0.0000 
     32 C32         1.3520   53.9286   27.5368 C.ar      1 UNK         0.0000 
     33 O33         3.3117   53.1501   30.4818 O.3       1 UNK         0.0000 
     34 C34         3.7010   52.0549   31.2965 C.3       1 UNK         0.0000 
     35 O35        -1.8437   52.0963   27.2818 O.2       1 UNK         0.0000 
     36 H36        -7.2918   49.3200   24.0326 H         1 UNK         0.0000 
     37 H37        -6.4691   47.7636   24.1658 H         1 UNK         0.0000 
     38 H38        -7.3105   48.4691   25.5634 H         1 UNK         0.0000 
     39 H39        -5.4650   48.7428   27.1350 H         1 UNK         0.0000 
     40 H40        -3.4033   49.9062   27.7676 H         1 UNK         0.0000 
     41 H41        -3.0263   51.3999   23.7428 H         1 UNK         0.0000 
     42 H42        -5.0885   50.2290   23.1196 H         1 UNK         0.0000 
     43 H43         2.1087   53.1219   22.0104 H         1 UNK         0.0000 
     44 H44         4.2181   54.2659   21.4608 H         1 UNK         0.0000 
     45 H45         5.2537   54.3233   25.6391 H         1 UNK         0.0000 
     46 H46         3.2850   53.1437   26.1701 H         1 UNK         0.0000 
     47 H47         8.4743   54.0201   23.4327 H         1 UNK         0.0000 
     48 H48         7.4212   53.4008   24.5220 H         1 UNK         0.0000 
     49 H49         1.2554   50.5540   27.2818 H         1 UNK         0.0000 
     50 H50         2.5721   50.7528   29.2817 H         1 UNK         0.0000 
     51 H51         2.3098   55.0357   29.0980 H         1 UNK         0.0000 
     52 H52         1.1044   54.8357   27.0234 H         1 UNK         0.0000 
     53 H53         4.3501   52.4215   32.0890 H         1 UNK         0.0000 
     54 H54         4.2587   51.2992   30.7424 H         1 UNK         0.0000 
     55 H55         2.8323   51.5965   31.7703 H         1 UNK         0.0000 
@<TRIPOS>BOND
     1    1    2 1    
     2    1   36 1    
     3    1   37 1    
     4    1   38 1    
     5    2    7 ar   
     6    2    3 ar   
     7    3    4 ar   
     8    3   39 1    
     9    4    5 ar   
    10    4   40 1    
    11    5    6 ar   
    12    5    8 1    
    13    6    7 ar   
    14    6   41 1    
    15    7   42 1    
    16    8    9 1    
    17    8   35 2    
    18    9   15 2    
    19    9   10 1    
    20   10   11 1    
    21   10   12 1    
    22   10   27 1    
    23   12   13 am   BACKBONE|DICT|INTERRES
    24   12   17 1    
    25   13   14 2    
    26   13   15 1    
    27   15   16 1    
    28   17   22 ar   
    29   17   18 ar   
    30   18   19 ar   
    31   18   43 1    
    32   19   20 ar   
    33   19   44 1    
    34   20   21 ar   
    35   20   23 1    
    36   21   22 ar   
    37   21   45 1    
    38   22   46 1    
    39   23   24 2    
    40   23   25 2    
    41   23   26 1    
    42   26   47 1    
    43   26   48 1    
    44   27   32 ar   
    45   27   28 ar   
    46   28   29 ar   
    47   28   49 1    
    48   29   30 ar   
    49   29   50 1    
    50   30   31 ar   
    51   30   33 1    
    52   31   32 ar   
    53   31   51 1    
    54   32   52 1    
    55   33   34 1    
    56   34   53 1    
    57   34   54 1    
    58   34   55 1    
@<TRIPOS>SUBSTRUCTURE
     1 UNK         1 GROUP             0       ****    0 ROOT    
