ZINC59121210_3492
                    3D
 Schrodinger Suite 2024-2.
 62 65  0  0  1  0            999 V2000
   -2.4476   47.6381   22.6062 C   0  0  0  0  0  0
   -2.9558   48.9268   22.4589 C   0  0  0  0  0  0
   -2.7030   49.8830   23.4380 C   0  0  0  0  0  0
   -1.9374   49.5521   24.5605 C   0  0  0  0  0  0
   -1.4389   48.2520   24.7069 C   0  0  0  0  0  0
   -1.6936   47.2971   23.7270 C   0  0  0  0  0  0
   -1.6543   50.6134   25.6280 C   0  0  2  0  0  0
   -2.0321   51.5817   25.3030 H   0  0  0  0  0  0
   -0.1329   50.7720   26.0013 C   0  0  2  0  0  0
    0.1938   49.8296   26.4440 H   0  0  0  0  0  0
    0.2334   51.8087   27.1057 C   0  0  0  0  0  0
    1.1685   52.8293   26.8766 C   0  0  0  0  0  0
    1.5045   53.7445   27.8712 C   0  0  0  0  0  0
    0.9233   53.6393   29.1304 C   0  0  0  0  0  0
    0.0362   52.6050   29.4059 C   0  0  0  0  0  0
   -0.2935   51.6966   28.4037 C   0  0  0  0  0  0
    0.7044   50.8958   24.7614 N   0  0  0  0  0  0
    0.3068   52.0700   23.4915 S   0  0  0  0  0  0
   -0.2052   51.3227   22.3382 O   0  0  0  0  0  0
   -0.4714   53.1645   24.0822 O   0  0  0  0  0  0
    1.8832   52.7608   22.9974 C   0  0  0  0  0  0
    2.3522   53.9176   23.6190 C   0  0  0  0  0  0
    3.5995   54.4226   23.2812 C   0  0  0  0  0  0
    4.3553   53.8117   22.2839 C   0  0  0  0  0  0
    3.8767   52.6751   21.6340 C   0  0  0  0  0  0
    2.6416   52.1407   21.9991 C   0  0  0  0  0  0
    5.8873   54.4831   21.8547 Cl  0  0  0  0  0  0
   -2.4952   50.3353   26.8821 N   0  3  0  0  0  0
   -4.0251   50.2336   26.7533 C   0  0  0  0  0  0
   -4.5276   49.7833   28.1452 C   0  0  0  0  0  0
   -6.0633   49.7978   28.2541 C   0  0  0  0  0  0
   -6.6463   51.1748   27.8786 C   0  0  0  0  0  0
   -6.1509   51.6540   26.5006 C   0  0  0  0  0  0
   -4.6128   51.6222   26.3956 C   0  0  0  0  0  0
   -2.6378   46.8999   21.8414 H   0  0  0  0  0  0
   -3.5368   49.1863   21.5853 H   0  0  0  0  0  0
   -3.0915   50.8830   23.3137 H   0  0  0  0  0  0
   -0.8563   47.9781   25.5765 H   0  0  0  0  0  0
   -1.3000   46.2979   23.8333 H   0  0  0  0  0  0
    1.6622   52.9126   25.9271 H   0  0  0  0  0  0
    2.2203   54.5275   27.6674 H   0  0  0  0  0  0
    1.1823   54.3458   29.9059 H   0  0  0  0  0  0
   -0.3823   52.4942   30.3974 H   0  0  0  0  0  0
   -0.9369   50.8827   28.6874 H   0  0  0  0  0  0
    0.8444   49.9695   24.3480 H   0  0  0  0  0  0
    1.7638   54.4268   24.3686 H   0  0  0  0  0  0
    3.9718   55.2963   23.7903 H   0  0  0  0  0  0
    4.4607   52.2044   20.8546 H   0  0  0  0  0  0
    2.2795   51.2492   21.5052 H   0  0  0  0  0  0
   -2.3051   51.0754   27.5401 H   0  0  0  0  0  0
   -4.3169   49.4660   26.0335 H   0  0  0  0  0  0
   -4.1396   50.4650   28.9056 H   0  0  0  0  0  0
   -4.1020   48.8151   28.4201 H   0  0  0  0  0  0
   -6.3673   49.5283   29.2662 H   0  0  0  0  0  0
   -6.4806   49.0323   27.5982 H   0  0  0  0  0  0
   -6.3682   51.9057   28.6382 H   0  0  0  0  0  0
   -7.7363   51.1335   27.8898 H   0  0  0  0  0  0
   -6.5173   52.6623   26.3048 H   0  0  0  0  0  0
   -6.5792   51.0214   25.7208 H   0  0  0  0  0  0
   -4.2741   51.9516   25.4139 H   0  0  0  0  0  0
   -4.2110   52.3682   27.0831 H   0  0  0  0  0  0
   -2.1493   49.4922   27.3526 H   0  0  0  0  0  0
  1  6  2  0  0  0
  1  2  1  0  0  0
  1 35  1  0  0  0
  2  3  2  0  0  0
  2 36  1  0  0  0
  3  4  1  0  0  0
  3 37  1  0  0  0
  4  5  2  0  0  0
  4  7  1  0  0  0
  5  6  1  0  0  0
  5 38  1  0  0  0
  6 39  1  0  0  0
  7  8  1  0  0  0
  7  9  1  0  0  0
  7 28  1  0  0  0
  9 10  1  0  0  0
  9 11  1  0  0  0
  9 17  1  0  0  0
 11 16  2  0  0  0
 11 12  1  0  0  0
 12 13  2  0  0  0
 12 40  1  0  0  0
 13 14  1  0  0  0
 13 41  1  0  0  0
 14 15  2  0  0  0
 14 42  1  0  0  0
 15 16  1  0  0  0
 15 43  1  0  0  0
 16 44  1  0  0  0
 17 18  1  0  0  0
 17 45  1  0  0  0
 18 19  2  0  0  0
 18 20  2  0  0  0
 18 21  1  0  0  0
 21 26  2  0  0  0
 21 22  1  0  0  0
 22 23  2  0  0  0
 22 46  1  0  0  0
 23 24  1  0  0  0
 23 47  1  0  0  0
 24 25  2  0  0  0
 24 27  1  0  0  0
 25 26  1  0  0  0
 25 48  1  0  0  0
 26 49  1  0  0  0
 28 29  1  0  0  0
 28 50  1  0  0  0
 28 62  1  0  0  0
 29 34  1  0  0  0
 29 30  1  0  0  0
 29 51  1  0  0  0
 30 31  1  0  0  0
 30 52  1  0  0  0
 30 53  1  0  0  0
 31 32  1  0  0  0
 31 54  1  0  0  0
 31 55  1  0  0  0
 32 33  1  0  0  0
 32 56  1  0  0  0
 32 57  1  0  0  0
 33 34  1  0  0  0
 33 58  1  0  0  0
 33 59  1  0  0  0
 34 60  1  0  0  0
 34 61  1  0  0  0
M  CHG  1  28   1
M  END
> <i_i_glide_confnum>
167

> <i_i_glide_lignum>
3493

> <i_i_glide_posenum>
94

> <i_i_glide_rotatable_bonds>
8

> <i_m_Source_File_Index>
2005

> <b_m_subgroup_collapsed>
0

> <r_i_docking_score>
-3.00844

> <r_i_glide_ecoul>
-4.2896

> <r_i_glide_eff_state_penalty>
0

> <r_i_glide_einternal>
6.96953

> <r_i_glide_emodel>
-39.4649

> <r_i_glide_energy>
-37.1029

> <r_i_glide_erotb>
0.640047

> <r_i_glide_esite>
-0.1

> <r_i_glide_evdw>
-32.8133

> <r_i_glide_gscore>
-3.00844

> <r_i_glide_hbond>
-0.2

> <r_i_glide_ligand_efficiency>
-0.0940137

> <r_i_glide_ligand_efficiency_ln>
-0.673671

> <r_i_glide_ligand_efficiency_sa>
-0.298475

> <r_i_glide_lipo>
-1.63508

> <r_i_glide_metal>
0

> <r_i_glide_rewards>
0.570696

> <s_i_glide_gridfile>
wee1_glide-grid

> <s_m_Source_File>
wee1_decoys_glide_SP.sdf

> <s_m_Source_Path>
/Users/zhangxujun/Desktop

> <s_m_entry_id>
2280

> <s_m_entry_name>
wee1_decoys_glide_SP.2005

> <s_m_subgroup_title>
wee1_decoys_glide_SP

> <s_m_subgroupid>
wee1_decoys_glide_SP


$$$$
