@<TRIPOS>MOLECULE
ZINC22851811_5605
60   65    1
SMALL
USER_CHARGES


@<TRIPOS>ATOM
      1 C1         -4.0979   45.1906   22.6310 C.3       1 UNK         0.0000 
      2 O2         -4.0603   45.7807   23.9260 O.3       1 UNK         0.0000 
      3 C3         -3.1092   46.7473   24.1896 C.ar      1 UNK         0.0000 
      4 C4         -3.3212   47.5514   25.3049 C.ar      1 UNK         0.0000 
      5 C5         -2.4277   48.5699   25.6235 C.ar      1 UNK         0.0000 
      6 C6         -1.2756   48.7938   24.8566 C.ar      1 UNK         0.0000 
      7 C7         -1.0639   47.9658   23.7447 C.ar      1 UNK         0.0000 
      8 C8         -1.9650   46.9573   23.4105 C.ar      1 UNK         0.0000 
      9 N9         -0.4120   49.8533   25.1548 N.pl3     1 UNK         0.0000 
     10 C10        -0.0858   50.2496   26.5367 C.3       1 UNK         0.0000 
     11 C11         0.4191   51.7051   26.7057 C.3       1 UNK         0.0000 
     12 N12         1.5038   52.0968   25.7897 N.3       1 UNK         0.0000 
     13 C13         1.1121   51.7290   24.4227 C.3       1 UNK         0.0000 
     14 C14         0.6769   50.2621   24.2592 C.3       1 UNK         0.0000 
     15 C15         2.0110   53.4924   25.9147 C.3       1 UNK         0.0000 
     16 H16         1.1724   54.0980   25.5713 H         1 UNK         0.0000 
     17 C17         2.1851   53.9753   27.3869 C.ar      1 UNK         0.0000 
     18 C18         1.0288   54.3120   28.0971 C.ar      1 UNK         0.0000 
     19 C19         1.0916   54.8886   29.3581 C.ar      1 UNK         0.0000 
     20 C20         2.3157   55.1701   29.9221 C.ar      1 UNK         0.0000 
     21 C21         3.4857   54.7516   29.2919 C.ar      1 UNK         0.0000 
     22 C22         3.4135   54.1204   28.0529 C.ar      1 UNK         0.0000 
     23 C23         3.1186   53.8619   24.8801 C.2       1 UNK         0.0000 
     24 C24         2.9369   54.1164   23.5151 C.2       1 UNK         0.0000 
     25 N25         4.1266   54.2964   22.8320 N.pl3     1 UNK         0.0000 
     26 C26         5.2505   54.3376   23.5896 C.ar      1 UNK         0.0000 
     27 S27         4.8542   54.0976   25.2566 S.3       1 UNK         0.0000 
     28 N28         6.3046   54.5912   22.8582 N.2       1 UNK         0.0000 
     29 C29         5.7749   54.7307   21.6515 C.ar      1 UNK         0.0000 
     30 N30         4.4781   54.4971   21.5336 N.2       1 UNK         0.0000 
     31 C31         6.5725   55.1514   20.5071 C.2       1 UNK         0.0000 
     32 C32         6.2903   55.3529   19.1615 C.2       1 UNK         0.0000 
     33 C33         7.4808   55.7363   18.5427 C.2       1 UNK         0.0000 
     34 C34         8.4454   55.7512   19.5341 C.2       1 UNK         0.0000 
     35 O35         7.8928   55.4109   20.7253 O.3       1 UNK         0.0000 
     36 O36         1.7256   54.1854   22.8770 O.3       1 UNK         0.0000 
     37 H37        -5.0043   44.5902   22.5402 H         1 UNK         0.0000 
     38 H38        -4.1189   45.9446   21.8394 H         1 UNK         0.0000 
     39 H39        -3.2446   44.5304   22.4722 H         1 UNK         0.0000 
     40 H40        -4.1966   47.3978   25.9197 H         1 UNK         0.0000 
     41 H41        -2.6475   49.1818   26.4825 H         1 UNK         0.0000 
     42 H42        -0.1934   48.0939   23.1219 H         1 UNK         0.0000 
     43 H43        -1.7548   46.3493   22.5451 H         1 UNK         0.0000 
     44 H44        -0.9242   50.0967   27.2127 H         1 UNK         0.0000 
     45 H45         0.7100   49.5862   26.8806 H         1 UNK         0.0000 
     46 H46         0.7407   51.7992   27.7413 H         1 UNK         0.0000 
     47 H47        -0.4460   52.3430   26.5193 H         1 UNK         0.0000 
     48 H48         0.2769   52.3508   24.0979 H         1 UNK         0.0000 
     49 H49         1.9526   51.8332   23.7415 H         1 UNK         0.0000 
     50 H50         0.4050   50.1170   23.2134 H         1 UNK         0.0000 
     51 H51         1.5333   49.6178   24.4668 H         1 UNK         0.0000 
     52 H52         0.0574   54.1050   27.6824 H         1 UNK         0.0000 
     53 H53         0.2014   55.1264   29.9161 H         1 UNK         0.0000 
     54 H54         2.3112   55.6756   30.8795 H         1 UNK         0.0000 
     55 H55         4.4459   54.8985   29.7653 H         1 UNK         0.0000 
     56 H56         4.3395   53.7502   27.6587 H         1 UNK         0.0000 
     57 H57         5.3296   55.2228   18.6842 H         1 UNK         0.0000 
     58 H58         7.6241   55.9629   17.4962 H         1 UNK         0.0000 
     59 H59         9.5033   55.9727   19.5446 H         1 UNK         0.0000 
     60 H60         1.8301   54.4211   21.9465 H         1 UNK         0.0000 
@<TRIPOS>BOND
     1    1    2 1    
     2    1   37 1    
     3    1   38 1    
     4    1   39 1    
     5    2    3 1    
     6    3    8 ar   
     7    3    4 ar   
     8    4    5 ar   
     9    4   40 1    
    10    5    6 ar   
    11    5   41 1    
    12    6    7 ar   
    13    6    9 1    
    14    7    8 ar   
    15    7   42 1    
    16    8   43 1    
    17    9   14 1    
    18    9   10 1    
    19   10   11 1    
    20   10   44 1    
    21   10   45 1    
    22   11   12 1    
    23   11   46 1    
    24   11   47 1    
    25   12   13 1    
    26   12   15 1    
    27   13   14 1    
    28   13   48 1    
    29   13   49 1    
    30   14   50 1    
    31   14   51 1    
    32   15   16 1    
    33   15   17 1    
    34   15   23 1    
    35   17   22 ar   
    36   17   18 ar   
    37   18   19 ar   
    38   18   52 1    
    39   19   20 ar   
    40   19   53 1    
    41   20   21 ar   
    42   20   54 1    
    43   21   22 ar   
    44   21   55 1    
    45   22   56 1    
    46   23   27 1    
    47   23   24 2    
    48   24   25 1    
    49   24   36 1    
    50   25   30 ar   
    51   25   26 ar   
    52   26   27 1    
    53   26   28 ar   
    54   28   29 ar   
    55   29   30 ar   
    56   29   31 1    
    57   31   35 1    
    58   31   32 2    
    59   32   33 1    
    60   32   57 1    
    61   33   34 2    
    62   33   58 1    
    63   34   35 1    
    64   34   59 1    
    65   36   60 1    
@<TRIPOS>SUBSTRUCTURE
     1 UNK         1 GROUP             0       ****    0 ROOT    
