ZINC36698942_5710
                    3D
 Schrodinger Suite 2024-2.
 70 73  0  0  1  0            999 V2000
    2.3455   53.7144   27.9774 C   0  0  0  0  0  0
    3.4830   53.9698   26.9988 C   0  0  0  0  0  0
    3.2120   53.8746   25.6298 C   0  0  0  0  0  0
    4.2417   54.1317   24.7176 C   0  0  0  0  0  0
    5.5320   54.4733   25.1820 C   0  0  0  0  0  0
    5.8111   54.5477   26.5515 C   0  0  0  0  0  0
    4.7707   54.3061   27.4552 C   0  0  0  0  0  0
    5.0713   54.4175   28.9437 C   0  0  0  0  0  0
    6.5735   54.7452   23.7957 S   0  0  0  0  0  0
    5.1860   54.4594   22.7289 C   0  0  0  0  0  0
    4.0988   54.0969   23.3680 N   0  0  0  0  0  0
    5.2081   54.6162   21.3141 N   0  0  0  0  0  0
    4.0126   54.1169   20.5884 C   0  0  0  0  0  0
    4.0569   52.6165   20.2769 C   0  0  0  0  0  0
    2.7668   52.1747   19.5695 C   0  0  0  0  0  0
    2.8209   50.6647   19.2568 N   0  3  0  0  0  0
    2.5734   49.7668   20.4888 C   0  0  0  0  0  0
    1.9025   50.2726   18.0823 C   0  0  0  0  0  0
    6.2023   55.2996   20.6494 C   0  0  0  0  0  0
    7.1062   55.9325   21.1977 O   0  0  0  0  0  0
    6.2184   55.3261   19.1372 C   0  0  0  0  0  0
    5.2905   56.0838   18.4083 C   0  0  0  0  0  0
    5.3659   56.1422   17.0215 C   0  0  0  0  0  0
    6.4009   55.4895   16.3556 C   0  0  0  0  0  0
    7.3368   54.7395   17.0715 C   0  0  0  0  0  0
    7.2455   54.6612   18.4577 C   0  0  0  0  0  0
    6.5358   55.6512   14.5767 S   0  0  0  0  0  0
    7.4343   54.5808   14.1259 O   0  0  0  0  0  0
    5.1645   55.7482   14.0589 O   0  0  0  0  0  0
    7.3542   57.2071   14.2945 N   0  0  0  0  0  0
    6.5706   58.4690   14.3504 C   0  0  0  0  0  0
    6.6967   59.1697   15.7202 C   0  0  0  0  0  0
    8.1670   59.3086   16.1722 C   0  0  0  0  0  0
    8.9457   57.9798   16.0622 C   0  0  0  0  0  0
    8.7846   57.3381   14.6687 C   0  0  0  0  0  0
    2.5363   52.8075   28.5518 H   0  0  0  0  0  0
    1.3822   53.6098   27.4759 H   0  0  0  0  0  0
    2.2571   54.5416   28.6815 H   0  0  0  0  0  0
    2.2250   53.6150   25.2773 H   0  0  0  0  0  0
    6.7992   54.8018   26.9052 H   0  0  0  0  0  0
    6.1407   54.4967   29.1435 H   0  0  0  0  0  0
    4.5748   55.2905   29.3671 H   0  0  0  0  0  0
    4.7055   53.5368   29.4723 H   0  0  0  0  0  0
    3.1141   54.3237   21.1709 H   0  0  0  0  0  0
    3.8114   54.6592   19.6699 H   0  0  0  0  0  0
    4.9159   52.3968   19.6391 H   0  0  0  0  0  0
    4.1980   52.0637   21.2052 H   0  0  0  0  0  0
    1.8607   52.3536   20.1506 H   0  0  0  0  0  0
    2.6787   52.6825   18.6072 H   0  0  0  0  0  0
    1.5550   49.9484   20.8355 H   0  0  0  0  0  0
    2.7041   48.7308   20.1709 H   0  0  0  0  0  0
    3.3031   50.0212   21.2565 H   0  0  0  0  0  0
    0.8712   50.4916   18.3618 H   0  0  0  0  0  0
    2.2227   50.8527   17.2149 H   0  0  0  0  0  0
    2.0551   49.2094   17.8870 H   0  0  0  0  0  0
    4.5042   56.6451   18.8867 H   0  0  0  0  0  0
    4.6407   56.7255   16.4709 H   0  0  0  0  0  0
    8.1440   54.2333   16.5613 H   0  0  0  0  0  0
    7.9948   54.1024   19.0000 H   0  0  0  0  0  0
    6.9450   59.1256   13.5642 H   0  0  0  0  0  0
    5.5268   58.2582   14.1130 H   0  0  0  0  0  0
    6.2281   60.1549   15.6769 H   0  0  0  0  0  0
    6.1351   58.6273   16.4777 H   0  0  0  0  0  0
    8.2025   59.6866   17.1948 H   0  0  0  0  0  0
    8.6569   60.0631   15.5538 H   0  0  0  0  0  0
    8.6017   57.2899   16.8318 H   0  0  0  0  0  0
   10.0032   58.1522   16.2698 H   0  0  0  0  0  0
    9.2575   56.3571   14.6283 H   0  0  0  0  0  0
    9.2704   57.9584   13.9147 H   0  0  0  0  0  0
    3.7673   50.4952   18.9027 H   0  0  0  0  0  0
  1  2  1  0  0  0
  1 36  1  0  0  0
  1 37  1  0  0  0
  1 38  1  0  0  0
  2  7  2  0  0  0
  2  3  1  0  0  0
  3  4  2  0  0  0
  3 39  1  0  0  0
  4 11  1  0  0  0
  4  5  1  0  0  0
  5  6  2  0  0  0
  5  9  1  0  0  0
  6  7  1  0  0  0
  6 40  1  0  0  0
  7  8  1  0  0  0
  8 41  1  0  0  0
  8 42  1  0  0  0
  8 43  1  0  0  0
  9 10  1  0  0  0
 10 11  2  0  0  0
 10 12  1  0  0  0
 12 13  1  0  0  0
 12 19  1  0  0  0
 13 14  1  0  0  0
 13 44  1  0  0  0
 13 45  1  0  0  0
 14 15  1  0  0  0
 14 46  1  0  0  0
 14 47  1  0  0  0
 15 16  1  0  0  0
 15 48  1  0  0  0
 15 49  1  0  0  0
 16 17  1  0  0  0
 16 18  1  0  0  0
 16 70  1  0  0  0
 17 50  1  0  0  0
 17 51  1  0  0  0
 17 52  1  0  0  0
 18 53  1  0  0  0
 18 54  1  0  0  0
 18 55  1  0  0  0
 19 20  2  0  0  0
 19 21  1  0  0  0
 21 26  2  0  0  0
 21 22  1  0  0  0
 22 23  2  0  0  0
 22 56  1  0  0  0
 23 24  1  0  0  0
 23 57  1  0  0  0
 24 25  2  0  0  0
 24 27  1  0  0  0
 25 26  1  0  0  0
 25 58  1  0  0  0
 26 59  1  0  0  0
 27 28  2  0  0  0
 27 29  2  0  0  0
 27 30  1  0  0  0
 30 35  1  0  0  0
 30 31  1  0  0  0
 31 32  1  0  0  0
 31 60  1  0  0  0
 31 61  1  0  0  0
 32 33  1  0  0  0
 32 62  1  0  0  0
 32 63  1  0  0  0
 33 34  1  0  0  0
 33 64  1  0  0  0
 33 65  1  0  0  0
 34 35  1  0  0  0
 34 66  1  0  0  0
 34 67  1  0  0  0
 35 68  1  0  0  0
 35 69  1  0  0  0
M  CHG  1  16   1
M  END
> <i_i_glide_confnum>
157

> <i_i_glide_lignum>
5711

> <i_i_glide_posenum>
264

> <i_i_glide_rotatable_bonds>
9

> <i_m_Source_File_Index>
4094

> <b_m_subgroup_collapsed>
0

> <r_i_docking_score>
-5.3578

> <r_i_glide_ecoul>
-4.67315

> <r_i_glide_eff_state_penalty>
0

> <r_i_glide_einternal>
4.56963

> <r_i_glide_emodel>
-59.2984

> <r_i_glide_energy>
-44.438

> <r_i_glide_erotb>
0.617262

> <r_i_glide_esite>
-0.100023

> <r_i_glide_evdw>
-39.7648

> <r_i_glide_gscore>
-5.3578

> <r_i_glide_hbond>
-0.2

> <r_i_glide_ligand_efficiency>
-0.15308

> <r_i_glide_ligand_efficiency_ln>
-1.17616

> <r_i_glide_ligand_efficiency_sa>
-0.500735

> <r_i_glide_lipo>
-2.55723

> <r_i_glide_metal>
0

> <r_i_glide_rewards>
-0.428597

> <s_i_glide_gridfile>
wee1_glide-grid

> <s_m_Source_File>
wee1_decoys_glide_SP.sdf

> <s_m_Source_Path>
/Users/zhangxujun/Desktop

> <s_m_entry_id>
4369

> <s_m_entry_name>
wee1_decoys_glide_SP.4094

> <s_m_subgroup_title>
wee1_decoys_glide_SP

> <s_m_subgroupid>
wee1_decoys_glide_SP


$$$$
