ZINC39633648_633
                    3D
 Schrodinger Suite 2024-2.
 72 76  0  0  1  0            999 V2000
    4.5638   54.0968   22.5057 C   0  0  0  0  0  0
    5.2992   54.2679   23.6758 C   0  0  0  0  0  0
    4.6569   54.2131   24.9098 C   0  0  0  0  0  0
    3.2780   53.9501   24.9843 C   0  0  0  0  0  0
    2.5528   53.8249   23.7968 C   0  0  0  0  0  0
    3.1888   53.8915   22.5618 C   0  0  0  0  0  0
    2.5261   53.7887   26.1395 O   0  0  0  0  0  0
    2.9513   53.2977   27.3696 C   0  0  0  0  0  0
    2.0005   52.8413   28.3030 C   0  0  0  0  0  0
    2.4545   52.4139   29.5589 C   0  0  0  0  0  0
    3.8161   52.4323   29.8579 C   0  0  0  0  0  0
    4.6963   52.8867   28.8807 C   0  0  0  0  0  0
    4.2812   53.2973   27.6594 N   0  0  0  0  0  0
    0.5185   52.9533   28.0712 C   0  0  0  0  0  0
   -0.0956   53.6968   28.8343 O   0  0  0  0  0  0
   -0.0907   52.2745   27.0600 N   0  0  0  0  0  0
   -1.4927   52.5137   26.7268 C   0  0  0  0  0  0
   -1.5481   52.2377   25.2168 C   0  0  1  0  0  0
   -1.1392   53.1053   24.6957 H   0  0  0  0  0  0
   -0.6136   51.0142   25.0648 C   0  0  0  0  0  0
    0.5234   51.3798   26.0735 C   0  0  0  0  0  0
   -1.3311   49.6873   25.4604 C   0  0  0  0  0  0
   -0.3686   48.4967   25.4680 C   0  0  0  0  0  0
    0.3043   48.3924   24.0835 N   0  3  0  0  0  0
    0.9219   49.6956   23.5256 C   0  0  0  0  0  0
   -0.1354   50.8056   23.6080 C   0  0  0  0  0  0
   -3.0165   52.0911   24.7265 C   0  0  0  0  0  0
   -3.2346   51.6007   23.6172 O   0  0  0  0  0  0
   -4.0035   52.5771   25.4996 N   0  0  0  0  0  0
   -5.4413   52.5414   25.2139 C   0  0  0  0  0  0
   -6.1107   51.3691   25.9682 C   0  0  0  0  0  0
   -6.4016   51.6002   27.4656 C   0  0  0  0  0  0
   -7.7393   52.3147   27.7443 C   0  0  0  0  0  0
   -7.8403   53.7799   27.2814 C   0  0  0  0  0  0
   -7.5450   54.0358   25.7900 C   0  0  0  0  0  0
   -6.0481   53.9476   25.4332 C   0  0  0  0  0  0
    5.0585   54.1427   21.5471 H   0  0  0  0  0  0
    6.3631   54.4520   23.6269 H   0  0  0  0  0  0
    5.2662   54.3788   25.7816 H   0  0  0  0  0  0
    1.4872   53.6592   23.8395 H   0  0  0  0  0  0
    2.6190   53.7800   21.6510 H   0  0  0  0  0  0
    1.7498   52.0937   30.3138 H   0  0  0  0  0  0
    4.1786   52.1128   30.8237 H   0  0  0  0  0  0
    5.7620   52.9194   29.0483 H   0  0  0  0  0  0
   -1.8224   53.5395   26.8828 H   0  0  0  0  0  0
   -2.1073   51.7984   27.2785 H   0  0  0  0  0  0
    1.0667   50.5337   26.4888 H   0  0  0  0  0  0
    1.2424   51.9686   25.5114 H   0  0  0  0  0  0
   -1.7395   49.7593   26.4705 H   0  0  0  0  0  0
   -2.1889   49.4727   24.8220 H   0  0  0  0  0  0
    0.4226   48.5664   26.2151 H   0  0  0  0  0  0
   -0.8961   47.5564   25.6421 H   0  0  0  0  0  0
    1.0410   47.6974   24.1412 H   0  0  0  0  0  0
    1.8227   49.8992   24.1028 H   0  0  0  0  0  0
    1.2164   49.4776   22.4981 H   0  0  0  0  0  0
   -0.9661   50.6109   22.9289 H   0  0  0  0  0  0
    0.3232   51.7236   23.2404 H   0  0  0  0  0  0
   -3.7461   53.0468   26.3550 H   0  0  0  0  0  0
   -5.5771   52.3145   24.1527 H   0  0  0  0  0  0
   -5.4868   50.4787   25.8591 H   0  0  0  0  0  0
   -7.0448   51.1110   25.4651 H   0  0  0  0  0  0
   -5.5771   52.1369   27.9364 H   0  0  0  0  0  0
   -6.4368   50.6282   27.9601 H   0  0  0  0  0  0
   -7.9327   52.2817   28.8183 H   0  0  0  0  0  0
   -8.5507   51.7407   27.2890 H   0  0  0  0  0  0
   -7.1799   54.3986   27.8931 H   0  0  0  0  0  0
   -8.8510   54.1320   27.4987 H   0  0  0  0  0  0
   -7.8921   55.0422   25.5475 H   0  0  0  0  0  0
   -8.1306   53.3644   25.1575 H   0  0  0  0  0  0
   -5.8920   54.4986   24.5055 H   0  0  0  0  0  0
   -5.4688   54.5074   26.1698 H   0  0  0  0  0  0
   -0.3812   48.0574   23.4204 H   0  0  0  0  0  0
  1  6  2  0  0  0
  1  2  1  0  0  0
  1 37  1  0  0  0
  2  3  2  0  0  0
  2 38  1  0  0  0
  3  4  1  0  0  0
  3 39  1  0  0  0
  4  5  2  0  0  0
  4  7  1  0  0  0
  5  6  1  0  0  0
  5 40  1  0  0  0
  6 41  1  0  0  0
  7  8  1  0  0  0
  8 13  2  0  0  0
  8  9  1  0  0  0
  9 10  2  0  0  0
  9 14  1  0  0  0
 10 11  1  0  0  0
 10 42  1  0  0  0
 11 12  2  0  0  0
 11 43  1  0  0  0
 12 13  1  0  0  0
 12 44  1  0  0  0
 14 15  2  0  0  0
 14 16  1  0  0  0
 16 21  1  0  0  0
 16 17  1  0  0  0
 17 18  1  0  0  0
 17 45  1  0  0  0
 17 46  1  0  0  0
 18 19  1  0  0  0
 18 20  1  0  0  0
 18 27  1  0  0  0
 20 26  1  0  0  0
 20 21  1  0  0  0
 20 22  1  0  0  0
 21 47  1  0  0  0
 21 48  1  0  0  0
 22 23  1  0  0  0
 22 49  1  0  0  0
 22 50  1  0  0  0
 23 24  1  0  0  0
 23 51  1  0  0  0
 23 52  1  0  0  0
 24 25  1  0  0  0
 24 53  1  0  0  0
 24 72  1  0  0  0
 25 26  1  0  0  0
 25 54  1  0  0  0
 25 55  1  0  0  0
 26 56  1  0  0  0
 26 57  1  0  0  0
 27 28  2  0  0  0
 27 29  1  0  0  0
 29 30  1  0  0  0
 29 58  1  0  0  0
 30 36  1  0  0  0
 30 31  1  0  0  0
 30 59  1  0  0  0
 31 32  1  0  0  0
 31 60  1  0  0  0
 31 61  1  0  0  0
 32 33  1  0  0  0
 32 62  1  0  0  0
 32 63  1  0  0  0
 33 34  1  0  0  0
 33 64  1  0  0  0
 33 65  1  0  0  0
 34 35  1  0  0  0
 34 66  1  0  0  0
 34 67  1  0  0  0
 35 36  1  0  0  0
 35 68  1  0  0  0
 35 69  1  0  0  0
 36 70  1  0  0  0
 36 71  1  0  0  0
M  CHG  1  24   1
M  END
> <i_i_glide_confnum>
1186

> <i_i_glide_lignum>
634

> <i_i_glide_posenum>
83

> <i_i_glide_rotatable_bonds>
7

> <i_m_Source_File_Index>
5362

> <b_m_subgroup_collapsed>
0

> <r_i_docking_score>
-4.80825

> <r_i_glide_ecoul>
-3.53212

> <r_i_glide_eff_state_penalty>
0

> <r_i_glide_einternal>
5.47862

> <r_i_glide_emodel>
-59.9881

> <r_i_glide_energy>
-47.1344

> <r_i_glide_erotb>
0.621644

> <r_i_glide_esite>
-0.0462283

> <r_i_glide_evdw>
-43.6022

> <r_i_glide_gscore>
-4.80825

> <r_i_glide_hbond>
0

> <r_i_glide_ligand_efficiency>
-0.137379

> <r_i_glide_ligand_efficiency_ln>
-1.05552

> <r_i_glide_ligand_efficiency_sa>
-0.449374

> <r_i_glide_lipo>
-2.31235

> <r_i_glide_metal>
0

> <r_i_glide_rewards>
-0.36139

> <s_i_glide_gridfile>
wee1_glide-grid

> <s_m_Source_File>
wee1_decoys_glide_SP.sdf

> <s_m_Source_Path>
/Users/zhangxujun/Desktop

> <s_m_entry_id>
5637

> <s_m_entry_name>
wee1_decoys_glide_SP.5362

> <s_m_subgroup_title>
wee1_decoys_glide_SP

> <s_m_subgroupid>
wee1_decoys_glide_SP


$$$$
