ZINC66907955_2582
                    3D
 Schrodinger Suite 2024-2.
 41 42  0  0  1  0            999 V2000
    3.2095   53.9468   22.1096 C   0  0  0  0  0  0
    4.6490   53.9266   22.6849 C   0  0  2  0  0  0
    5.0421   52.9240   22.4973 H   0  0  0  0  0  0
    4.7403   54.0982   24.2133 C   0  0  0  0  0  0
    6.0007   54.2123   24.8209 C   0  0  0  0  0  0
    6.1108   54.3350   26.2041 C   0  0  0  0  0  0
    4.9611   54.3483   26.9880 C   0  0  0  0  0  0
    3.7044   54.2489   26.4023 C   0  0  0  0  0  0
    3.5936   54.1240   25.0216 C   0  0  0  0  0  0
    5.1017   54.4950   28.8782 Br  0  0  0  0  0  0
    5.5354   54.8682   21.9923 N   0  0  0  0  0  0
    5.9045   54.8118   20.7057 C   0  0  0  0  0  0
    5.5049   53.9493   19.9209 O   0  0  0  0  0  0
    6.8020   55.7750   20.4137 N   0  0  0  0  0  0
    7.3150   55.8997   19.1150 N   0  0  0  0  0  0
    6.5515   56.3929   18.1141 C   0  0  0  0  0  0
    5.4391   56.8984   18.2749 O   0  0  0  0  0  0
    7.1303   56.2665   16.6999 C   0  0  0  0  0  0
    6.7946   54.9087   16.0825 C   0  0  0  0  0  0
    5.8263   54.8234   15.0740 C   0  0  0  0  0  0
    5.4911   53.5860   14.5219 C   0  0  0  0  0  0
    6.1243   52.4263   14.9702 C   0  0  0  0  0  0
    7.0986   52.5035   15.9656 C   0  0  0  0  0  0
    7.4367   53.7377   16.5195 C   0  0  0  0  0  0
    8.3913   53.7908   17.4786 F   0  0  0  0  0  0
    2.5993   53.1489   22.5325 H   0  0  0  0  0  0
    2.7120   54.8968   22.3036 H   0  0  0  0  0  0
    3.1962   53.7944   21.0302 H   0  0  0  0  0  0
    6.9034   54.1806   24.2269 H   0  0  0  0  0  0
    7.0818   54.4028   26.6714 H   0  0  0  0  0  0
    2.8173   54.2611   27.0178 H   0  0  0  0  0  0
    2.6036   54.0423   24.6017 H   0  0  0  0  0  0
    6.0151   55.5191   22.5941 H   0  0  0  0  0  0
    6.9675   56.5824   20.9910 H   0  0  0  0  0  0
    8.1645   55.3718   18.9666 H   0  0  0  0  0  0
    8.2130   56.4039   16.7117 H   0  0  0  0  0  0
    6.7315   57.0768   16.0868 H   0  0  0  0  0  0
    5.3197   55.7135   14.7261 H   0  0  0  0  0  0
    4.7340   53.5254   13.7533 H   0  0  0  0  0  0
    5.8546   51.4656   14.5547 H   0  0  0  0  0  0
    7.5854   51.6068   16.3215 H   0  0  0  0  0  0
  1  2  1  0  0  0
  1 26  1  0  0  0
  1 27  1  0  0  0
  1 28  1  0  0  0
  2  3  1  0  0  0
  2  4  1  0  0  0
  2 11  1  0  0  0
  4  9  2  0  0  0
  4  5  1  0  0  0
  5  6  2  0  0  0
  5 29  1  0  0  0
  6  7  1  0  0  0
  6 30  1  0  0  0
  7  8  2  0  0  0
  7 10  1  0  0  0
  8  9  1  0  0  0
  8 31  1  0  0  0
  9 32  1  0  0  0
 11 12  1  0  0  0
 11 33  1  0  0  0
 12 13  2  0  0  0
 12 14  1  0  0  0
 14 15  1  0  0  0
 14 34  1  0  0  0
 15 16  1  0  0  0
 15 35  1  0  0  0
 16 17  2  0  0  0
 16 18  1  0  0  0
 18 19  1  0  0  0
 18 36  1  0  0  0
 18 37  1  0  0  0
 19 24  2  0  0  0
 19 20  1  0  0  0
 20 21  2  0  0  0
 20 38  1  0  0  0
 21 22  1  0  0  0
 21 39  1  0  0  0
 22 23  2  0  0  0
 22 40  1  0  0  0
 23 24  1  0  0  0
 23 41  1  0  0  0
 24 25  1  0  0  0
M  END
> <i_i_glide_confnum>
39

> <i_i_glide_lignum>
2583

> <i_i_glide_posenum>
242

> <i_i_glide_rotatable_bonds>
8

> <i_m_Source_File_Index>
5634

> <b_m_subgroup_collapsed>
0

> <r_i_docking_score>
-3.64432

> <r_i_glide_ecoul>
2.69341

> <r_i_glide_eff_state_penalty>
0

> <r_i_glide_einternal>
5.68123

> <r_i_glide_emodel>
-36.3599

> <r_i_glide_energy>
-29.2869

> <r_i_glide_erotb>
0.754436

> <r_i_glide_esite>
0

> <r_i_glide_evdw>
-31.9804

> <r_i_glide_gscore>
-3.64432

> <r_i_glide_hbond>
0

> <r_i_glide_ligand_efficiency>
-0.151847

> <r_i_glide_ligand_efficiency_ln>
-0.872253

> <r_i_glide_ligand_efficiency_sa>
-0.438002

> <r_i_glide_lipo>
-2.04481

> <r_i_glide_metal>
0

> <r_i_glide_rewards>
-1.15894

> <s_i_glide_gridfile>
wee1_glide-grid

> <s_m_Source_File>
wee1_decoys_glide_SP.sdf

> <s_m_Source_Path>
/Users/zhangxujun/Desktop

> <s_m_entry_id>
5909

> <s_m_entry_name>
wee1_decoys_glide_SP.5634

> <s_m_subgroup_title>
wee1_decoys_glide_SP

> <s_m_subgroupid>
wee1_decoys_glide_SP


$$$$
