@<TRIPOS>MOLECULE
ZINC38685016_2985
64   68    1
SMALL
USER_CHARGES


@<TRIPOS>ATOM
      1 C1         -2.6536   51.0754   28.7280 C.3       1 UNK         0.0000 
      2 C2         -1.9845   51.0773   27.3530 C.3       1 UNK         0.0000 
      3 O3         -0.9738   52.0836   27.2760 O.3       1 UNK         0.0000 
      4 C4         -0.0791   52.0251   26.2230 C.ar      1 UNK         0.0000 
      5 C5         -0.2125   51.1569   25.1288 C.ar      1 UNK         0.0000 
      6 C6          0.7353   51.1436   24.1132 C.ar      1 UNK         0.0000 
      7 C7          1.8249   52.0062   24.1733 C.ar      1 UNK         0.0000 
      8 C8          1.9909   52.8973   25.2486 C.ar      1 UNK         0.0000 
      9 C9          1.0187   52.8919   26.2601 C.ar      1 UNK         0.0000 
     10 C10         3.1796   53.8886   25.3239 C.3       1 UNK         0.0000 
     11 H11         2.7045   54.8529   25.4890 H         1 UNK         0.0000 
     12 C12         3.9650   54.0965   24.0113 C.ar      1 UNK         0.0000 
     13 C13         3.3147   54.2521   22.7785 C.ar      1 UNK         0.0000 
     14 C14         4.0287   54.3694   21.5948 C.ar      1 UNK         0.0000 
     15 C15         5.4179   54.3955   21.6056 C.ar      1 UNK         0.0000 
     16 C16         6.0958   54.2895   22.8283 C.ar      1 UNK         0.0000 
     17 C17         5.3720   54.1522   24.0134 C.ar      1 UNK         0.0000 
     18 O18         6.1143   54.0954   25.1757 O.3       1 UNK         0.0000 
     19 C19         5.4835   53.8562   26.3491 C.2       1 UNK         0.0000 
     20 C20         4.1516   53.7091   26.5073 C.2       1 UNK         0.0000 
     21 C21         3.6406   53.4503   27.8187 C.1       1 UNK         0.0000 
     22 N22         3.2711   53.2578   28.8993 N.1       1 UNK         0.0000 
     23 N23         6.4419   53.7514   27.3218 N.pl3     1 UNK         0.0000 
     24 O24         6.0509   54.5363   20.3926 O.3       1 UNK         0.0000 
     25 C25         6.7578   55.6669   20.1341 C.2       1 UNK         0.0000 
     26 O26         7.1046   56.4967   20.9750 O.2       1 UNK         0.0000 
     27 C27         7.0685   55.9046   18.6429 C.3       1 UNK         0.0000 
     28 C28         7.7526   54.6890   17.9959 C.ar      1 UNK         0.0000 
     29 C29         9.1486   54.6921   17.8862 C.ar      1 UNK         0.0000 
     30 C30         9.8098   53.6276   17.2817 C.ar      1 UNK         0.0000 
     31 C31         9.0779   52.5528   16.7843 C.ar      1 UNK         0.0000 
     32 C32         7.6891   52.5362   16.8841 C.ar      1 UNK         0.0000 
     33 C33         7.0269   53.6001   17.4930 C.ar      1 UNK         0.0000 
     34 C34         5.8419   56.4940   17.9196 C.ar      1 UNK         0.0000 
     35 C35         4.5918   55.8567   17.9186 C.ar      1 UNK         0.0000 
     36 C36         3.5047   56.4480   17.2815 C.ar      1 UNK         0.0000 
     37 C37         3.6566   57.6814   16.6544 C.ar      1 UNK         0.0000 
     38 C38         4.8879   58.3288   16.6551 C.ar      1 UNK         0.0000 
     39 C39         5.9769   57.7358   17.2863 C.ar      1 UNK         0.0000 
     40 H40        -3.3005   50.2031   28.8344 H         1 UNK         0.0000 
     41 H41        -3.2709   51.9565   28.8687 H         1 UNK         0.0000 
     42 H42        -1.9152   51.0278   29.5308 H         1 UNK         0.0000 
     43 H43        -1.5402   50.0980   27.1870 H         1 UNK         0.0000 
     44 H44        -2.7330   51.2361   26.5751 H         1 UNK         0.0000 
     45 H45        -1.0458   50.4747   25.0472 H         1 UNK         0.0000 
     46 H46         0.6358   50.4570   23.2867 H         1 UNK         0.0000 
     47 H47         2.5497   51.9363   23.3781 H         1 UNK         0.0000 
     48 H48         1.1044   53.5705   27.0963 H         1 UNK         0.0000 
     49 H49         2.2341   54.2654   22.7288 H         1 UNK         0.0000 
     50 H50         3.5043   54.4693   20.6563 H         1 UNK         0.0000 
     51 H51         7.1769   54.3289   22.8592 H         1 UNK         0.0000 
     52 H52         6.1771   53.6359   28.2900 H         1 UNK         0.0000 
     53 H53         7.3942   53.5218   27.0723 H         1 UNK         0.0000 
     54 H54         7.8158   56.6973   18.6432 H         1 UNK         0.0000 
     55 H55         9.7275   55.5178   18.2745 H         1 UNK         0.0000 
     56 H56        10.8884   53.6302   17.2079 H         1 UNK         0.0000 
     57 H57         9.5921   51.7212   16.3257 H         1 UNK         0.0000 
     58 H58         7.1219   51.6970   16.5070 H         1 UNK         0.0000 
     59 H59         5.9517   53.5553   17.5721 H         1 UNK         0.0000 
     60 H60         4.4453   54.9103   18.4136 H         1 UNK         0.0000 
     61 H61         2.5440   55.9572   17.2863 H         1 UNK         0.0000 
     62 H62         2.8099   58.1499   16.1703 H         1 UNK         0.0000 
     63 H63         4.9945   59.2960   16.1843 H         1 UNK         0.0000 
     64 H64         6.9244   58.2553   17.2873 H         1 UNK         0.0000 
@<TRIPOS>BOND
     1    1    2 1    
     2    1   40 1    
     3    1   41 1    
     4    1   42 1    
     5    2    3 1    
     6    2   43 1    
     7    2   44 1    
     8    3    4 1    
     9    4    9 ar   
    10    4    5 ar   
    11    5    6 ar   
    12    5   45 1    
    13    6    7 ar   
    14    6   46 1    
    15    7    8 ar   
    16    7   47 1    
    17    8    9 ar   
    18    8   10 1    
    19    9   48 1    
    20   10   11 1    
    21   10   20 1    
    22   10   12 1    
    23   12   17 ar   
    24   12   13 ar   
    25   13   14 ar   
    26   13   49 1    
    27   14   15 ar   
    28   14   50 1    
    29   15   16 ar   
    30   15   24 1    
    31   16   17 ar   
    32   16   51 1    
    33   17   18 1    
    34   18   19 1    
    35   19   20 2    
    36   19   23 1    
    37   20   21 1    
    38   21   22 3    
    39   23   52 1    
    40   23   53 1    
    41   24   25 1    
    42   25   26 2    
    43   25   27 1    
    44   27   28 1    
    45   27   34 1    
    46   27   54 1    
    47   28   33 ar   
    48   28   29 ar   
    49   29   30 ar   
    50   29   55 1    
    51   30   31 ar   
    52   30   56 1    
    53   31   32 ar   
    54   31   57 1    
    55   32   33 ar   
    56   32   58 1    
    57   33   59 1    
    58   34   39 ar   
    59   34   35 ar   
    60   35   36 ar   
    61   35   60 1    
    62   36   37 ar   
    63   36   61 1    
    64   37   38 ar   
    65   37   62 1    
    66   38   39 ar   
    67   38   63 1    
    68   39   64 1    
@<TRIPOS>SUBSTRUCTURE
     1 UNK         1 GROUP             0       ****    0 ROOT    
