@<TRIPOS>MOLECULE
ZINC34971878_5684
72   74    1
SMALL
USER_CHARGES


@<TRIPOS>ATOM
      1 C1          4.1547   52.0966   30.9932 C.3       1 UNK         0.0000 
      2 O2          3.0528   51.9571   30.1096 O.3       1 UNK         0.0000 
      3 C3          3.0799   52.5680   28.8678 C.ar      1 UNK         0.0000 
      4 C4          4.1761   53.3012   28.3832 C.ar      1 UNK         0.0000 
      5 C5          4.1366   53.8897   27.1195 C.ar      1 UNK         0.0000 
      6 C6          3.0092   53.7487   26.3101 C.ar      1 UNK         0.0000 
      7 C7          1.9073   53.0357   26.7971 C.ar      1 UNK         0.0000 
      8 C8          1.9352   52.4320   28.0662 C.ar      1 UNK         0.0000 
      9 O9          0.8825   51.6999   28.5900 O.3       1 UNK         0.0000 
     10 C10        -0.2810   51.4637   27.8054 C.3       1 UNK         0.0000 
     11 C11         2.9291   54.4926   24.9772 C.3       1 UNK         0.0000 
     12 N12         3.2610   53.7153   23.7642 N.am      1 UNK         0.0000 
     13 C13         4.7226   53.6916   23.5056 C.3       1 UNK         0.0000 
     14 C14         5.2178   53.6152   22.0383 C.3       1 UNK         0.0000 
     15 C15         4.7720   54.7841   21.1522 C.3       1 UNK         0.0000 
     16 C16         5.2661   54.7004   19.6916 C.3       1 UNK         0.0000 
     17 C17         4.8720   55.9543   18.8940 C.3       1 UNK         0.0000 
     18 C18         5.4256   56.0236   17.4627 C.3       1 UNK         0.0000 
     19 N19         5.0947   57.3114   16.8353 N.pl3     1 UNK         0.0000 
     20 C20         3.8058   57.6285   16.3296 C.ar      1 UNK         0.0000 
     21 C21         2.7632   56.6960   16.2264 C.ar      1 UNK         0.0000 
     22 C22         1.5316   57.0873   15.6981 C.ar      1 UNK         0.0000 
     23 C23         1.3510   58.4098   15.2804 C.ar      1 UNK         0.0000 
     24 C24         2.4051   59.3171   15.4153 C.ar      1 UNK         0.0000 
     25 N25         3.5757   58.8966   15.9294 N.pl3     1 UNK         0.0000 
     26 C26         2.3586   52.8990   23.1341 C.2       1 UNK         0.0000 
     27 O27         2.6821   52.0823   22.2752 O.2       1 UNK         0.0000 
     28 N28         1.0767   53.0822   23.5207 N.am      1 UNK         0.0000 
     29 C29        -0.1023   52.4320   23.1251 C.ar      1 UNK         0.0000 
     30 C30        -0.2278   51.6127   21.9930 C.ar      1 UNK         0.0000 
     31 C31        -1.4572   51.0343   21.6853 C.ar      1 UNK         0.0000 
     32 C32        -2.5667   51.2682   22.4975 C.ar      1 UNK         0.0000 
     33 C33        -2.4594   52.0947   23.6220 C.ar      1 UNK         0.0000 
     34 C34        -1.2208   52.6671   23.9268 C.ar      1 UNK         0.0000 
     35 C35        -3.6599   52.3803   24.5249 C.3       1 UNK         0.0000 
     36 F36        -3.3605   52.0804   25.7881 F         1 UNK         0.0000 
     37 F37        -3.9693   53.6748   24.4591 F         1 UNK         0.0000 
     38 F38        -4.7365   51.6780   24.1734 F         1 UNK         0.0000 
     39 H39         3.9578   51.5425   31.9128 H         1 UNK         0.0000 
     40 H40         5.0722   51.6967   30.5594 H         1 UNK         0.0000 
     41 H41         4.3035   53.1409   31.2677 H         1 UNK         0.0000 
     42 H42         5.0699   53.4250   28.9701 H         1 UNK         0.0000 
     43 H43         4.9836   54.4628   26.7747 H         1 UNK         0.0000 
     44 H44         1.0262   52.9551   26.1832 H         1 UNK         0.0000 
     45 H45        -1.0034   50.8965   28.3923 H         1 UNK         0.0000 
     46 H46        -0.7650   52.3963   27.5100 H         1 UNK         0.0000 
     47 H47        -0.0456   50.8788   26.9144 H         1 UNK         0.0000 
     48 H48         3.5718   55.3657   25.0410 H         1 UNK         0.0000 
     49 H49         1.9251   54.8967   24.8778 H         1 UNK         0.0000 
     50 H50         5.1855   52.8967   24.0841 H         1 UNK         0.0000 
     51 H51         5.1468   54.6073   23.9176 H         1 UNK         0.0000 
     52 H52         4.9633   52.6568   21.5816 H         1 UNK         0.0000 
     53 H53         6.3032   53.6295   22.0827 H         1 UNK         0.0000 
     54 H54         5.1609   55.6965   21.5943 H         1 UNK         0.0000 
     55 H55         3.6835   54.8658   21.1672 H         1 UNK         0.0000 
     56 H56         4.8570   53.8088   19.2131 H         1 UNK         0.0000 
     57 H57         6.3507   54.5881   19.6815 H         1 UNK         0.0000 
     58 H58         5.2314   56.8326   19.4312 H         1 UNK         0.0000 
     59 H59         3.7830   56.0312   18.8800 H         1 UNK         0.0000 
     60 H60         5.0428   55.2166   16.8360 H         1 UNK         0.0000 
     61 H61         6.5141   55.9494   17.4566 H         1 UNK         0.0000 
     62 H62         5.8017   58.0353   16.8537 H         1 UNK         0.0000 
     63 H63         2.8953   55.6717   16.5416 H         1 UNK         0.0000 
     64 H64         0.7256   56.3729   15.6119 H         1 UNK         0.0000 
     65 H65         0.4005   58.7306   14.8763 H         1 UNK         0.0000 
     66 H66         2.3585   60.3677   15.1578 H         1 UNK         0.0000 
     67 H67         0.9474   53.7671   24.2471 H         1 UNK         0.0000 
     68 H68         0.6048   51.4188   21.3323 H         1 UNK         0.0000 
     69 H69        -1.5476   50.3968   20.8172 H         1 UNK         0.0000 
     70 H70        -3.5090   50.8047   22.2407 H         1 UNK         0.0000 
     71 H71        -1.1392   53.2968   24.8012 H         1 UNK         0.0000 
     72 H72         4.2961   59.5966   16.0741 H         1 UNK         0.0000 
@<TRIPOS>BOND
     1    1    2 1    
     2    1   39 1    
     3    1   40 1    
     4    1   41 1    
     5    2    3 1    
     6    3    8 ar   
     7    3    4 ar   
     8    4    5 ar   
     9    4   42 1    
    10    5    6 ar   
    11    5   43 1    
    12    6    7 ar   
    13    6   11 1    
    14    7    8 ar   
    15    7   44 1    
    16    8    9 1    
    17    9   10 1    
    18   10   45 1    
    19   10   46 1    
    20   10   47 1    
    21   11   12 1    
    22   11   48 1    
    23   11   49 1    
    24   12   13 1    
    25   12   26 am   BACKBONE|DICT|INTERRES
    26   13   14 1    
    27   13   50 1    
    28   13   51 1    
    29   14   15 1    
    30   14   52 1    
    31   14   53 1    
    32   15   16 1    
    33   15   54 1    
    34   15   55 1    
    35   16   17 1    
    36   16   56 1    
    37   16   57 1    
    38   17   18 1    
    39   17   58 1    
    40   17   59 1    
    41   18   19 1    
    42   18   60 1    
    43   18   61 1    
    44   19   20 1    
    45   19   62 1    
    46   20   25 ar   
    47   20   21 ar   
    48   21   22 ar   
    49   21   63 1    
    50   22   23 ar   
    51   22   64 1    
    52   23   24 ar   
    53   23   65 1    
    54   24   25 ar   
    55   24   66 1    
    56   25   72 1    
    57   26   27 2    
    58   26   28 am   BACKBONE|DICT|INTERRES
    59   28   29 1    
    60   28   67 1    
    61   29   34 ar   
    62   29   30 ar   
    63   30   31 ar   
    64   30   68 1    
    65   31   32 ar   
    66   31   69 1    
    67   32   33 ar   
    68   32   70 1    
    69   33   34 ar   
    70   33   35 1    
    71   34   71 1    
    72   35   36 1    
    73   35   37 1    
    74   35   38 1    
@<TRIPOS>SUBSTRUCTURE
     1 UNK         1 GROUP             0       ****    0 ROOT    
