@<TRIPOS>MOLECULE
ZINC63479911_1261
64   70    1
SMALL
USER_CHARGES


@<TRIPOS>ATOM
      1 C1          1.8130   50.8307   17.9236 C.3       1 UNK         0.0000 
      2 C2          1.0246   50.9407   19.2182 C.ar      1 UNK         0.0000 
      3 C3          1.6142   50.5417   20.4177 C.ar      1 UNK         0.0000 
      4 C4          0.9084   50.6626   21.6113 C.ar      1 UNK         0.0000 
      5 C5         -0.3925   51.1902   21.6171 C.ar      1 UNK         0.0000 
      6 C6         -0.9828   51.5788   20.4057 C.ar      1 UNK         0.0000 
      7 C7         -0.2720   51.4588   19.2122 C.ar      1 UNK         0.0000 
      8 N8         -1.0868   51.3357   22.8464 N.am      1 UNK         0.0000 
      9 C9         -0.5636   52.0003   23.9088 C.2       1 UNK         0.0000 
     10 O10         0.4776   52.6568   23.9262 O.2       1 UNK         0.0000 
     11 C11        -1.5099   51.8747   25.0991 C.3       1 UNK         0.0000 
     12 H12        -1.7959   52.8817   25.4062 H         1 UNK         0.0000 
     13 C13        -0.9667   51.0449   26.2958 C.3       1 UNK         0.0000 
     14 H14        -1.4599   51.4135   27.1961 H         1 UNK         0.0000 
     15 N15        -1.4665   49.6967   26.0817 N.3       1 UNK         0.0000 
     16 C16        -2.7926   49.8019   25.4718 C.3       1 UNK         0.0000 
     17 C17        -2.6813   51.0857   24.5634 C.3       1 UNK         0.0000 
     18 H18        -3.5846   51.6999   24.5672 H         1 UNK         0.0000 
     19 C19        -2.3236   50.8298   23.0966 C.2       1 UNK         0.0000 
     20 O20        -3.0843   50.2944   22.2884 O.2       1 UNK         0.0000 
     21 C21        -3.2788   48.4950   24.8829 C.ar      1 UNK         0.0000 
     22 C22        -2.7311   47.6614   23.9023 C.ar      1 UNK         0.0000 
     23 C23        -3.4050   46.4990   23.5247 C.ar      1 UNK         0.0000 
     24 C24        -4.6117   46.1562   24.1404 C.ar      1 UNK         0.0000 
     25 C25        -5.1497   46.9658   25.1477 C.ar      1 UNK         0.0000 
     26 C26        -4.4604   48.1304   25.5030 C.ar      1 UNK         0.0000 
     27 N27        -4.7703   49.0642   26.4781 N.am      1 UNK         0.0000 
     28 C28        -3.8766   50.0627   26.5654 C.2       1 UNK         0.0000 
     29 O29        -3.9313   51.0160   27.3462 O.2       1 UNK         0.0000 
     30 C30        -6.4482   46.5632   25.8257 C.3       1 UNK         0.0000 
     31 C31         0.5465   51.0442   26.5986 C.3       1 UNK         0.0000 
     32 C32         1.0705   52.3142   27.2501 C.2       1 UNK         0.0000 
     33 C33         0.8740   52.7918   28.4914 C.2       1 UNK         0.0000 
     34 C34         0.0933   52.2503   29.6125 C.2       1 UNK         0.0000 
     35 C35         0.0271   52.9151   30.7813 C.2       1 UNK         0.0000 
     36 C36         0.7043   54.1985   30.8817 C.2       1 UNK         0.0000 
     37 C37         1.4521   54.7014   29.8655 C.2       1 UNK         0.0000 
     38 C38         1.5697   53.9929   28.6646 C.2       1 UNK         0.0000 
     39 N39         2.2656   54.2796   27.5952 N.pl3     1 UNK         0.0000 
     40 C40         2.0378   53.2584   26.5602 C.3       1 UNK         0.0000 
     41 H41         2.8689   51.0483   18.0918 H         1 UNK         0.0000 
     42 H42         1.7416   49.8243   17.5091 H         1 UNK         0.0000 
     43 H43         1.4644   51.5481   17.1802 H         1 UNK         0.0000 
     44 H44         2.6179   50.1414   20.4240 H         1 UNK         0.0000 
     45 H45         1.3812   50.3516   22.5332 H         1 UNK         0.0000 
     46 H46        -1.9850   51.9801   20.3867 H         1 UNK         0.0000 
     47 H47        -0.7284   51.7706   18.2839 H         1 UNK         0.0000 
     48 H48        -1.4933   49.1502   26.9655 H         1 UNK         0.0000 
     49 H49        -1.7988   47.9181   23.4207 H         1 UNK         0.0000 
     50 H50        -2.9958   45.8737   22.7453 H         1 UNK         0.0000 
     51 H51        -5.1284   45.2587   23.8336 H         1 UNK         0.0000 
     52 H52        -5.5642   48.9987   27.0955 H         1 UNK         0.0000 
     53 H53        -6.8309   45.6090   25.4613 H         1 UNK         0.0000 
     54 H54        -6.2960   46.4789   26.9021 H         1 UNK         0.0000 
     55 H55        -7.2090   47.3270   25.6606 H         1 UNK         0.0000 
     56 H56         1.1043   50.8061   25.6982 H         1 UNK         0.0000 
     57 H57         0.7685   50.2260   27.2821 H         1 UNK         0.0000 
     58 H58        -0.4157   51.2968   29.5449 H         1 UNK         0.0000 
     59 H59        -0.4958   52.4989   31.6300 H         1 UNK         0.0000 
     60 H60         0.6043   54.7672   31.7959 H         1 UNK         0.0000 
     61 H61         1.9306   55.6618   29.9973 H         1 UNK         0.0000 
     62 H62         1.6257   53.7683   25.6909 H         1 UNK         0.0000 
     63 H63         2.9979   52.8091   26.3042 H         1 UNK         0.0000 
     64 H64         2.8604   55.0949   27.4738 H         1 UNK         0.0000 
@<TRIPOS>BOND
     1    1    2 1    
     2    1   41 1    
     3    1   42 1    
     4    1   43 1    
     5    2    7 ar   
     6    2    3 ar   
     7    3    4 ar   
     8    3   44 1    
     9    4    5 ar   
    10    4   45 1    
    11    5    6 ar   
    12    5    8 1    
    13    6    7 ar   
    14    6   46 1    
    15    7   47 1    
    16    8   19 am   BACKBONE|DICT|INTERRES
    17    8    9 am   BACKBONE|DICT|INTERRES
    18    9   10 2    
    19    9   11 1    
    20   11   12 1    
    21   11   17 1    
    22   11   13 1    
    23   13   14 1    
    24   13   15 1    
    25   13   31 1    
    26   15   16 1    
    27   15   48 1    
    28   16   28 1    
    29   16   17 1    
    30   16   21 1    
    31   17   18 1    
    32   17   19 1    
    33   19   20 2    
    34   21   26 ar   
    35   21   22 ar   
    36   22   23 ar   
    37   22   49 1    
    38   23   24 ar   
    39   23   50 1    
    40   24   25 ar   
    41   24   51 1    
    42   25   26 ar   
    43   25   30 1    
    44   26   27 1    
    45   27   28 am   BACKBONE|DICT|INTERRES
    46   27   52 1    
    47   28   29 2    
    48   30   53 1    
    49   30   54 1    
    50   30   55 1    
    51   31   32 1    
    52   31   56 1    
    53   31   57 1    
    54   32   40 1    
    55   32   33 2    
    56   33   38 1    
    57   33   34 1    
    58   34   35 2    
    59   34   58 1    
    60   35   36 1    
    61   35   59 1    
    62   36   37 2    
    63   36   60 1    
    64   37   38 1    
    65   37   61 1    
    66   38   39 2    
    67   39   40 1    
    68   39   64 1    
    69   40   62 1    
    70   40   63 1    
@<TRIPOS>SUBSTRUCTURE
     1 UNK         1 GROUP             0       ****    0 ROOT    
