ZINC35375125_4989
                    3D
 Schrodinger Suite 2024-2.
 58 60  0  0  1  0            999 V2000
   -6.3439   47.0336   30.3549 C   0  0  0  0  0  0
   -6.3316   47.8019   29.0201 C   0  0  0  0  0  0
   -5.7070   47.0532   27.8157 C   0  0  2  0  0  0
   -5.7483   47.7501   26.9765 H   0  0  0  0  0  0
   -6.5391   45.8192   27.4044 C   0  0  0  0  0  0
   -4.2136   46.7176   28.0452 C   0  0  0  0  0  0
   -3.5451   46.1305   26.8798 N   0  0  0  0  0  0
   -2.8958   46.7528   25.8782 C   0  0  0  0  0  0
   -2.3605   46.0967   24.9893 O   0  0  0  0  0  0
   -2.7606   48.2831   25.8245 C   0  0  2  0  0  0
   -3.0983   48.7571   26.7441 H   0  0  0  0  0  0
   -3.4095   48.8982   24.5725 C   0  0  0  0  0  0
   -2.5389   50.4624   24.2894 S   0  0  0  0  0  0
   -1.1172   50.1145   25.3726 C   0  0  0  0  0  0
   -1.2695   48.6231   25.6817 N   0  3  0  0  0  0
    0.2480   50.3547   24.6878 C   0  0  0  0  0  0
    0.5663   51.8637   24.5365 C   0  0  0  0  0  0
    0.4469   52.4967   25.8727 N   0  0  0  0  0  0
   -0.8880   52.3894   26.4962 C   0  0  0  0  0  0
   -1.1953   50.8967   26.7048 C   0  0  0  0  0  0
    1.5044   52.8967   26.6343 C   0  0  0  0  0  0
    1.4404   52.9558   27.8636 O   0  0  0  0  0  0
    2.5825   53.2967   25.9214 N   0  0  0  0  0  0
    3.8211   53.8238   26.3451 C   0  0  0  0  0  0
    4.2177   53.9378   27.6904 C   0  0  0  0  0  0
    5.4665   54.4643   28.0178 C   0  0  0  0  0  0
    6.3331   54.8827   27.0127 C   0  0  0  0  0  0
    5.9570   54.7722   25.6761 C   0  0  0  0  0  0
    4.7092   54.2446   25.3395 C   0  0  0  0  0  0
    4.2618   54.0967   23.4878 Br  0  0  0  0  0  0
   -6.8248   47.6274   31.1329 H   0  0  0  0  0  0
   -5.3353   46.8112   30.7037 H   0  0  0  0  0  0
   -6.8958   46.0968   30.2790 H   0  0  0  0  0  0
   -7.3556   48.0860   28.7714 H   0  0  0  0  0  0
   -5.8021   48.7447   29.1678 H   0  0  0  0  0  0
   -6.5049   45.0340   28.1593 H   0  0  0  0  0  0
   -7.5862   46.0825   27.2500 H   0  0  0  0  0  0
   -6.1783   45.3888   26.4698 H   0  0  0  0  0  0
   -3.6956   47.5914   28.4383 H   0  0  0  0  0  0
   -4.1231   45.9808   28.8439 H   0  0  0  0  0  0
   -3.5258   45.1209   26.8817 H   0  0  0  0  0  0
   -3.2771   48.2872   23.6771 H   0  0  0  0  0  0
   -4.4750   49.0903   24.7059 H   0  0  0  0  0  0
   -0.8166   48.4000   26.5675 H   0  0  0  0  0  0
    1.0506   49.8818   25.2577 H   0  0  0  0  0  0
    0.2723   49.8789   23.7061 H   0  0  0  0  0  0
    1.5111   52.0627   24.0297 H   0  0  0  0  0  0
   -0.1892   52.3329   23.9046 H   0  0  0  0  0  0
   -0.9884   52.9954   27.3984 H   0  0  0  0  0  0
   -1.6022   52.8220   25.7945 H   0  0  0  0  0  0
   -2.1796   50.7984   27.1637 H   0  0  0  0  0  0
   -0.4956   50.4943   27.4408 H   0  0  0  0  0  0
    2.4950   53.2375   24.9191 H   0  0  0  0  0  0
    3.5875   53.6203   28.5044 H   0  0  0  0  0  0
    5.7655   54.5522   29.0526 H   0  0  0  0  0  0
    7.2942   55.2932   27.2817 H   0  0  0  0  0  0
    6.6338   55.0909   24.8962 H   0  0  0  0  0  0
   -0.8453   48.0572   24.9619 H   0  0  0  0  0  0
  1  2  1  0  0  0
  1 31  1  0  0  0
  1 32  1  0  0  0
  1 33  1  0  0  0
  2  3  1  0  0  0
  2 34  1  0  0  0
  2 35  1  0  0  0
  3  4  1  0  0  0
  3  5  1  0  0  0
  3  6  1  0  0  0
  5 36  1  0  0  0
  5 37  1  0  0  0
  5 38  1  0  0  0
  6  7  1  0  0  0
  6 39  1  0  0  0
  6 40  1  0  0  0
  7  8  1  0  0  0
  7 41  1  0  0  0
  8  9  2  0  0  0
  8 10  1  0  0  0
 10 11  1  0  0  0
 10 15  1  0  0  0
 10 12  1  0  0  0
 12 13  1  0  0  0
 12 42  1  0  0  0
 12 43  1  0  0  0
 13 14  1  0  0  0
 14 20  1  0  0  0
 14 15  1  0  0  0
 14 16  1  0  0  0
 15 44  1  0  0  0
 15 58  1  0  0  0
 16 17  1  0  0  0
 16 45  1  0  0  0
 16 46  1  0  0  0
 17 18  1  0  0  0
 17 47  1  0  0  0
 17 48  1  0  0  0
 18 19  1  0  0  0
 18 21  1  0  0  0
 19 20  1  0  0  0
 19 49  1  0  0  0
 19 50  1  0  0  0
 20 51  1  0  0  0
 20 52  1  0  0  0
 21 22  2  0  0  0
 21 23  1  0  0  0
 23 24  1  0  0  0
 23 53  1  0  0  0
 24 29  2  0  0  0
 24 25  1  0  0  0
 25 26  2  0  0  0
 25 54  1  0  0  0
 26 27  1  0  0  0
 26 55  1  0  0  0
 27 28  2  0  0  0
 27 56  1  0  0  0
 28 29  1  0  0  0
 28 57  1  0  0  0
 29 30  1  0  0  0
M  CHG  1  15   1
M  END
> <i_i_glide_confnum>
53

> <i_i_glide_lignum>
4990

> <i_i_glide_posenum>
178

> <i_i_glide_rotatable_bonds>
8

> <i_m_Source_File_Index>
4333

> <b_m_subgroup_collapsed>
0

> <r_i_docking_score>
-3.53912

> <r_i_glide_ecoul>
-6.27566

> <r_i_glide_eff_state_penalty>
0

> <r_i_glide_einternal>
8.74826

> <r_i_glide_emodel>
-42.9453

> <r_i_glide_energy>
-40.2316

> <r_i_glide_erotb>
0.639053

> <r_i_glide_esite>
-0.287794

> <r_i_glide_evdw>
-33.9559

> <r_i_glide_gscore>
-3.53912

> <r_i_glide_hbond>
-0.171958

> <r_i_glide_ligand_efficiency>
-0.126397

> <r_i_glide_ligand_efficiency_ln>
-0.816933

> <r_i_glide_ligand_efficiency_sa>
-0.383816

> <r_i_glide_lipo>
-1.96603

> <r_i_glide_metal>
0

> <r_i_glide_rewards>
0.886749

> <s_i_glide_gridfile>
wee1_glide-grid

> <s_m_Source_File>
wee1_decoys_glide_SP.sdf

> <s_m_Source_Path>
/Users/zhangxujun/Desktop

> <s_m_entry_id>
4608

> <s_m_entry_name>
wee1_decoys_glide_SP.4333

> <s_m_subgroup_title>
wee1_decoys_glide_SP

> <s_m_subgroupid>
wee1_decoys_glide_SP


$$$$
