@<TRIPOS>MOLECULE
ZINC13036149_2010
49   51    1
SMALL
USER_CHARGES


@<TRIPOS>ATOM
      1 C1          0.9594   52.9258   25.3699 C.3       1 UNK         0.0000 
      2 C2          2.2062   53.2966   26.1660 C.ar      1 UNK         0.0000 
      3 C3          2.2675   52.9084   27.5065 C.ar      1 UNK         0.0000 
      4 C4          3.4025   53.1751   28.2707 C.ar      1 UNK         0.0000 
      5 C5          4.5060   53.7739   27.6636 C.ar      1 UNK         0.0000 
      6 C6          4.4892   54.1347   26.3124 C.ar      1 UNK         0.0000 
      7 C7          3.2956   53.9678   25.5734 C.ar      1 UNK         0.0000 
      8 C8          3.1355   54.4979   24.1548 C.3       1 UNK         0.0000 
      9 S9          6.0633   54.7149   25.6259 S.o2      1 UNK         0.0000 
     10 O10         5.9044   56.0966   25.1696 O.2       1 UNK         0.0000 
     11 O11         7.1044   54.3928   26.6052 O.2       1 UNK         0.0000 
     12 N12         6.4139   53.6973   24.2146 N.pl3     1 UNK         0.0000 
     13 C13         6.1753   54.1334   22.9094 C.ar      1 UNK         0.0000 
     14 C14         6.8255   55.2687   22.4234 C.ar      1 UNK         0.0000 
     15 C15         6.6412   55.6635   21.1048 C.ar      1 UNK         0.0000 
     16 C16         5.7817   54.9387   20.2754 C.ar      1 UNK         0.0000 
     17 C17         5.1031   53.8206   20.7688 C.ar      1 UNK         0.0000 
     18 C18         5.3243   53.4027   22.0795 C.ar      1 UNK         0.0000 
     19 S19         5.5654   55.4232   18.5597 S.o2      1 UNK         0.0000 
     20 O20         4.1331   55.7143   18.4600 O.2       1 UNK         0.0000 
     21 O21         6.4503   56.5865   18.4038 O.2       1 UNK         0.0000 
     22 N22         6.0953   53.8969   17.8428 N.2       1 UNK         0.0000 
     23 C23         7.3047   53.7069   17.5000 C.ar      1 UNK         0.0000 
     24 C24         7.8271   52.4945   16.8845 C.ar      1 UNK         0.0000 
     25 C25         9.1353   52.2992   16.5857 C.ar      1 UNK         0.0000 
     26 C26        10.1095   53.3420   16.8811 C.ar      1 UNK         0.0000 
     27 C27         9.6661   54.4894   17.4350 C.ar      1 UNK         0.0000 
     28 N28         8.3151   54.6627   17.7068 N.pl3     1 UNK         0.0000 
     29 C29         3.4506   52.8231   29.7133 C.2       1 UNK         0.0000 
     30 O30         3.9029   53.6971   30.4817 O.co2     1 UNK         0.0000 
     31 O31         3.0358   51.6971   30.0649 O.co2     1 UNK         0.0000 
     32 H32         0.1439   52.5908   26.0127 H         1 UNK         0.0000 
     33 H33         0.5860   53.7706   24.7956 H         1 UNK         0.0000 
     34 H34         1.1938   52.1302   24.6623 H         1 UNK         0.0000 
     35 H35         1.4266   52.4009   27.9613 H         1 UNK         0.0000 
     36 H36         5.3963   53.9371   28.2573 H         1 UNK         0.0000 
     37 H37         3.9499   55.1406   23.8447 H         1 UNK         0.0000 
     38 H38         2.2406   55.1163   24.0828 H         1 UNK         0.0000 
     39 H39         3.0144   53.6793   23.4463 H         1 UNK         0.0000 
     40 H40         6.2207   52.7248   24.3970 H         1 UNK         0.0000 
     41 H41         7.5033   55.8215   23.0588 H         1 UNK         0.0000 
     42 H42         7.1808   56.5194   20.7322 H         1 UNK         0.0000 
     43 H43         4.4406   53.2594   20.1242 H         1 UNK         0.0000 
     44 H44         4.8288   52.5156   22.4438 H         1 UNK         0.0000 
     45 H45         7.1341   51.6948   16.6663 H         1 UNK         0.0000 
     46 H46         9.4589   51.3692   16.1392 H         1 UNK         0.0000 
     47 H47        11.1593   53.1915   16.6762 H         1 UNK         0.0000 
     48 H48        10.3148   55.3133   17.7002 H         1 UNK         0.0000 
     49 H49         8.0011   55.5573   18.0676 H         1 UNK         0.0000 
@<TRIPOS>BOND
     1    1    2 1    
     2    1   32 1    
     3    1   33 1    
     4    1   34 1    
     5    2    7 ar   
     6    2    3 ar   
     7    3    4 ar   
     8    3   35 1    
     9    4    5 ar   
    10    4   29 1    
    11    5    6 ar   
    12    5   36 1    
    13    6    7 ar   
    14    6    9 1    
    15    7    8 1    
    16    8   37 1    
    17    8   38 1    
    18    8   39 1    
    19    9   10 2    
    20    9   11 2    
    21    9   12 1    
    22   12   13 1    
    23   12   40 1    
    24   13   18 ar   
    25   13   14 ar   
    26   14   15 ar   
    27   14   41 1    
    28   15   16 ar   
    29   15   42 1    
    30   16   17 ar   
    31   16   19 1    
    32   17   18 ar   
    33   17   43 1    
    34   18   44 1    
    35   19   20 2    
    36   19   21 2    
    37   19   22 1    
    38   22   23 2    
    39   23   28 ar   
    40   23   24 ar   
    41   24   25 ar   
    42   24   45 1    
    43   25   26 ar   
    44   25   46 1    
    45   26   27 ar   
    46   26   47 1    
    47   27   28 ar   
    48   27   48 1    
    49   28   49 1    
    50   29   30 2    
    51   29   31 1    
@<TRIPOS>SUBSTRUCTURE
     1 UNK         1 GROUP             0       ****    0 ROOT    
