@<TRIPOS>MOLECULE
ZINC59198309_1002
41   43    1
SMALL
USER_CHARGES


@<TRIPOS>ATOM
      1 C1          3.3453   52.6154   15.8424 C.2       1 UNK         0.0000 
      2 C2          4.2461   53.6048   15.9646 C.2       1 UNK         0.0000 
      3 C3          5.6701   53.4219   16.4615 C.3       1 UNK         0.0000 
      4 O4          6.0206   54.3809   17.4586 O.3       1 UNK         0.0000 
      5 C5          5.5347   54.2660   18.7487 C.ar      1 UNK         0.0000 
      6 C6          4.6598   53.2545   19.1773 C.ar      1 UNK         0.0000 
      7 C7          4.2182   53.1982   20.4985 C.ar      1 UNK         0.0000 
      8 C8          4.6489   54.1407   21.4344 C.ar      1 UNK         0.0000 
      9 C9          5.5155   55.1512   21.0036 C.ar      1 UNK         0.0000 
     10 C10         5.9560   55.2159   19.6833 C.ar      1 UNK         0.0000 
     11 Br11        7.1430   56.6240   19.1885 Br        1 UNK         0.0000 
     12 C12         4.1361   54.0602   22.8253 C.2       1 UNK         0.0000 
     13 C13         4.7670   54.1654   24.0371 C.2       1 UNK         0.0000 
     14 C14         6.2290   54.3038   24.1898 C.2       1 UNK         0.0000 
     15 O15         6.9565   54.0968   23.2240 O.2       1 UNK         0.0000 
     16 N16         6.7045   54.5981   25.3822 N.2       1 UNK         0.0000 
     17 C17         5.9925   54.6047   26.4941 C.2       1 UNK         0.0000 
     18 O18         6.4845   54.8915   27.5833 O.2       1 UNK         0.0000 
     19 N19         4.6503   54.2676   26.4406 N.am      1 UNK         0.0000 
     20 C20         3.9447   54.0967   25.2643 C.2       1 UNK         0.0000 
     21 O21         2.7245   53.8903   25.2341 O.2       1 UNK         0.0000 
     22 C22         3.9717   54.0099   27.6702 C.ar      1 UNK         0.0000 
     23 C23         4.3255   52.8964   28.4417 C.ar      1 UNK         0.0000 
     24 C24         3.6545   52.6045   29.6280 C.ar      1 UNK         0.0000 
     25 C25         2.6486   53.4555   30.0817 C.ar      1 UNK         0.0000 
     26 C26         2.3419   54.6117   29.3649 C.ar      1 UNK         0.0000 
     27 C27         2.9747   54.8671   28.1493 C.ar      1 UNK         0.0000 
     28 Br28        1.1043   55.8669   30.0754 Br        1 UNK         0.0000 
     29 H29         3.5955   51.5942   16.0995 H         1 UNK         0.0000 
     30 H30         2.3444   52.8111   15.4876 H         1 UNK         0.0000 
     31 H31         3.9632   54.6149   15.7067 H         1 UNK         0.0000 
     32 H32         5.8524   52.4034   16.8105 H         1 UNK         0.0000 
     33 H33         6.3422   53.5665   15.6146 H         1 UNK         0.0000 
     34 H34         4.3146   52.4941   18.4970 H         1 UNK         0.0000 
     35 H35         3.5427   52.4075   20.7928 H         1 UNK         0.0000 
     36 H36         5.8825   55.8967   21.6918 H         1 UNK         0.0000 
     37 H37         3.0617   53.9278   22.8291 H         1 UNK         0.0000 
     38 H38         5.1130   52.2390   28.1025 H         1 UNK         0.0000 
     39 H39         3.9242   51.7275   30.1951 H         1 UNK         0.0000 
     40 H40         2.1238   53.2330   30.9985 H         1 UNK         0.0000 
     41 H41         2.7036   55.7321   27.5767 H         1 UNK         0.0000 
@<TRIPOS>BOND
     1    1    2 2    
     2    1   29 1    
     3    1   30 1    
     4    2    3 1    
     5    2   31 1    
     6    3    4 1    
     7    3   32 1    
     8    3   33 1    
     9    4    5 1    
    10    5   10 ar   
    11    5    6 ar   
    12    6    7 ar   
    13    6   34 1    
    14    7    8 ar   
    15    7   35 1    
    16    8    9 ar   
    17    8   12 1    
    18    9   10 ar   
    19    9   36 1    
    20   10   11 1    
    21   12   13 2    
    22   12   37 1    
    23   13   20 1    
    24   13   14 1    
    25   14   15 2    
    26   14   16 1    
    27   16   17 1    
    28   17   18 2    
    29   17   19 am   BACKBONE|DICT|INTERRES
    30   19   20 am   BACKBONE|DICT|INTERRES
    31   19   22 1    
    32   20   21 2    
    33   22   27 ar   
    34   22   23 ar   
    35   23   24 ar   
    36   23   38 1    
    37   24   25 ar   
    38   24   39 1    
    39   25   26 ar   
    40   25   40 1    
    41   26   27 ar   
    42   26   28 1    
    43   27   41 1    
@<TRIPOS>SUBSTRUCTURE
     1 UNK         1 GROUP             0       ****    0 ROOT    
