@<TRIPOS>MOLECULE
ZINC39666295_178
72   75    1
SMALL
USER_CHARGES


@<TRIPOS>ATOM
      1 C1          4.9239   54.5761   28.1211 C.3       1 UNK         0.0000 
      2 C2          5.1778   54.4133   26.6309 C.ar      1 UNK         0.0000 
      3 C3          4.1110   54.3979   25.7295 C.ar      1 UNK         0.0000 
      4 C4          4.3463   54.2313   24.3645 C.ar      1 UNK         0.0000 
      5 C5          5.6625   54.1018   23.8909 C.ar      1 UNK         0.0000 
      6 C6          6.7177   54.1192   24.8032 C.ar      1 UNK         0.0000 
      7 C7          6.4862   54.2865   26.1657 C.ar      1 UNK         0.0000 
      8 O8          6.0251   53.9318   22.5685 O.3       1 UNK         0.0000 
      9 C9          5.1431   54.2791   21.4955 C.3       1 UNK         0.0000 
     10 H10         4.1941   54.7031   21.8208 H         1 UNK         0.0000 
     11 C11         5.8647   55.3705   20.6886 C.3       1 UNK         0.0000 
     12 C12         4.8747   53.0339   20.6168 C.3       1 UNK         0.0000 
     13 N13         4.1855   51.9113   21.2647 N.am      1 UNK         0.0000 
     14 C14         2.9006   51.8952   21.6618 C.2       1 UNK         0.0000 
     15 O15         2.1952   52.9013   21.6914 O.2       1 UNK         0.0000 
     16 C16         2.3493   50.5431   22.1581 C.3       1 UNK         0.0000 
     17 H17         3.1567   49.8456   22.3335 H         1 UNK         0.0000 
     18 C18         1.6260   50.7491   23.5015 C.3       1 UNK         0.0000 
     19 N19         0.2147   50.5019   23.2324 N.am      1 UNK         0.0000 
     20 C20         0.1649   49.4708   22.1944 C.3       1 UNK         0.0000 
     21 C21         1.2947   49.8590   21.2094 C.3       1 UNK         0.0000 
     22 C22         0.5743   50.7388   20.1190 C.3       1 UNK         0.0000 
     23 C23         1.3975   51.0492   18.8463 C.3       1 UNK         0.0000 
     24 N24         1.9982   49.7399   18.3030 N.4       1 UNK         0.0000 
     25 C25         2.8282   49.0019   19.3594 C.3       1 UNK         0.0000 
     26 C26         1.8577   48.6058   20.4822 C.3       1 UNK         0.0000 
     27 C27        -0.7013   51.5028   23.2713 C.2       1 UNK         0.0000 
     28 O28        -1.7106   51.5104   22.5634 O.2       1 UNK         0.0000 
     29 C29        -0.5025   52.6660   24.2574 C.3       1 UNK         0.0000 
     30 C30        -0.4639   52.2377   25.7222 C.ar      1 UNK         0.0000 
     31 C31        -1.5817   51.6436   26.3200 C.ar      1 UNK         0.0000 
     32 C32        -1.5529   51.2979   27.6703 C.ar      1 UNK         0.0000 
     33 C33        -0.4146   51.5507   28.4351 C.ar      1 UNK         0.0000 
     34 C34         0.7069   52.1429   27.8506 C.ar      1 UNK         0.0000 
     35 C35         0.6771   52.4817   26.4945 C.ar      1 UNK         0.0000 
     36 C36         1.9582   52.4011   28.6675 C.3       1 UNK         0.0000 
     37 H37         3.9718   55.0704   28.3130 H         1 UNK         0.0000 
     38 H38         4.9264   53.6074   28.6188 H         1 UNK         0.0000 
     39 H39         5.6968   55.1968   28.5780 H         1 UNK         0.0000 
     40 H40         3.0973   54.5077   26.0851 H         1 UNK         0.0000 
     41 H41         3.4937   54.1952   23.7042 H         1 UNK         0.0000 
     42 H42         7.7292   54.0230   24.4418 H         1 UNK         0.0000 
     43 H43         7.3171   54.2981   26.8585 H         1 UNK         0.0000 
     44 H44         5.2683   55.6892   19.8355 H         1 UNK         0.0000 
     45 H45         6.0576   56.2525   21.2954 H         1 UNK         0.0000 
     46 H46         6.8269   55.0199   20.3110 H         1 UNK         0.0000 
     47 H47         5.8277   52.6581   20.2341 H         1 UNK         0.0000 
     48 H48         4.3044   53.3273   19.7345 H         1 UNK         0.0000 
     49 H49         4.7302   51.0709   21.3821 H         1 UNK         0.0000 
     50 H50         1.9068   51.6251   24.0828 H         1 UNK         0.0000 
     51 H51         1.9357   49.9224   24.1354 H         1 UNK         0.0000 
     52 H52         0.4229   48.5361   22.6962 H         1 UNK         0.0000 
     53 H53        -0.8078   49.2612   21.7445 H         1 UNK         0.0000 
     54 H54        -0.3241   50.2215   19.7759 H         1 UNK         0.0000 
     55 H55         0.1876   51.6625   20.5497 H         1 UNK         0.0000 
     56 H56         0.7855   51.4644   18.0453 H         1 UNK         0.0000 
     57 H57         2.2411   51.7198   19.0093 H         1 UNK         0.0000 
     58 H58         1.2734   49.1317   17.9502 H         1 UNK         0.0000 
     59 H59         3.3806   48.1803   18.8831 H         1 UNK         0.0000 
     60 H60         3.5685   49.7307   19.6774 H         1 UNK         0.0000 
     61 H61         2.3577   47.9511   21.1940 H         1 UNK         0.0000 
     62 H62         1.0416   48.0098   20.0655 H         1 UNK         0.0000 
     63 H63        -1.3192   53.3792   24.1365 H         1 UNK         0.0000 
     64 H64         0.3957   53.2163   23.9764 H         1 UNK         0.0000 
     65 H65        -2.4718   51.4496   25.7368 H         1 UNK         0.0000 
     66 H66        -2.4063   50.8171   28.1275 H         1 UNK         0.0000 
     67 H67        -0.4086   51.2689   29.4797 H         1 UNK         0.0000 
     68 H68         1.5420   52.9386   26.0425 H         1 UNK         0.0000 
     69 H69         2.0666   53.4679   28.8633 H         1 UNK         0.0000 
     70 H70         1.9455   51.8625   29.6179 H         1 UNK         0.0000 
     71 H71         2.8449   52.0742   28.1198 H         1 UNK         0.0000 
     72 H72         2.6256   49.9232   17.5208 H         1 UNK         0.0000 
@<TRIPOS>BOND
     1    1    2 1    
     2    1   37 1    
     3    1   38 1    
     4    1   39 1    
     5    2    7 ar   
     6    2    3 ar   
     7    3    4 ar   
     8    3   40 1    
     9    4    5 ar   
    10    4   41 1    
    11    5    6 ar   
    12    5    8 1    
    13    6    7 ar   
    14    6   42 1    
    15    7   43 1    
    16    8    9 1    
    17    9   10 1    
    18    9   11 1    
    19    9   12 1    
    20   11   44 1    
    21   11   45 1    
    22   11   46 1    
    23   12   13 1    
    24   12   47 1    
    25   12   48 1    
    26   13   14 am   BACKBONE|DICT|INTERRES
    27   13   49 1    
    28   14   15 2    
    29   14   16 1    
    30   16   17 1    
    31   16   21 1    
    32   16   18 1    
    33   18   19 1    
    34   18   50 1    
    35   18   51 1    
    36   19   20 1    
    37   19   27 am   BACKBONE|DICT|INTERRES
    38   20   21 1    
    39   20   52 1    
    40   20   53 1    
    41   21   26 1    
    42   21   22 1    
    43   22   23 1    
    44   22   54 1    
    45   22   55 1    
    46   23   24 1    
    47   23   56 1    
    48   23   57 1    
    49   24   25 1    
    50   24   58 1    
    51   24   72 1    
    52   25   26 1    
    53   25   59 1    
    54   25   60 1    
    55   26   61 1    
    56   26   62 1    
    57   27   28 2    
    58   27   29 1    
    59   29   30 1    
    60   29   63 1    
    61   29   64 1    
    62   30   35 ar   
    63   30   31 ar   
    64   31   32 ar   
    65   31   65 1    
    66   32   33 ar   
    67   32   66 1    
    68   33   34 ar   
    69   33   67 1    
    70   34   35 ar   
    71   34   36 1    
    72   35   68 1    
    73   36   69 1    
    74   36   70 1    
    75   36   71 1    
@<TRIPOS>SUBSTRUCTURE
     1 UNK         1 GROUP             0       ****    0 ROOT    
