@<TRIPOS>MOLECULE
ZINC14661903_3165
51   53    1
SMALL
USER_CHARGES


@<TRIPOS>ATOM
      1 C1          1.8260   55.9213   29.8082 C.3       1 UNK         0.0000 
      2 O2          2.7652   54.8848   30.0721 O.3       1 UNK         0.0000 
      3 C3          2.5356   53.6520   29.3920 C.3       1 UNK         0.0000 
      4 C4          2.7350   53.7202   27.8659 C.3       1 UNK         0.0000 
      5 O5          4.0849   54.0571   27.5380 O.3       1 UNK         0.0000 
      6 C6          4.4431   54.1878   26.2062 C.ar      1 UNK         0.0000 
      7 C7          3.5263   54.0967   25.1464 C.ar      1 UNK         0.0000 
      8 C8          3.9408   54.2412   23.8261 C.ar      1 UNK         0.0000 
      9 C9          5.2871   54.4963   23.5182 C.ar      1 UNK         0.0000 
     10 C10         6.2048   54.5801   24.5753 C.ar      1 UNK         0.0000 
     11 C11         5.7917   54.4201   25.9005 C.ar      1 UNK         0.0000 
     12 Br12        7.1035   54.4966   27.2818 Br        1 UNK         0.0000 
     13 C13         5.7463   54.7062   22.0891 C.2       1 UNK         0.0000 
     14 O14         6.8053   55.2969   21.8627 O.2       1 UNK         0.0000 
     15 N15         4.9268   54.1713   21.1489 N.am      1 UNK         0.0000 
     16 C16         4.9397   54.1644   19.7746 C.2       1 UNK         0.0000 
     17 S17         5.8690   55.1281   18.7758 S.2       1 UNK         0.0000 
     18 N18         4.0390   53.3406   19.1517 N.pl3     1 UNK         0.0000 
     19 C19         3.2192   52.3812   19.7554 C.2       1 UNK         0.0000 
     20 C20         1.8567   52.0991   19.4680 C.2       1 UNK         0.0000 
     21 C21         1.4155   51.0645   20.3264 C.2       1 UNK         0.0000 
     22 C22         2.3774   50.5615   21.1701 C.2       1 UNK         0.0000 
     23 S23         3.9045   51.2967   20.9453 S.3       1 UNK         0.0000 
     24 C24         1.8774   49.4736   22.0766 C.3       1 UNK         0.0000 
     25 C25         0.3591   49.6077   21.8871 C.3       1 UNK         0.0000 
     26 C26         0.1298   50.2950   20.5296 C.3       1 UNK         0.0000 
     27 C27         0.9829   52.7489   18.4760 C.2       1 UNK         0.0000 
     28 O28        -0.2284   52.5255   18.3904 O.2       1 UNK         0.0000 
     29 O29         1.6597   53.6077   17.6781 O.3       1 UNK         0.0000 
     30 C30         0.9846   54.3576   16.6798 C.3       1 UNK         0.0000 
     31 H31         2.0255   56.7695   30.4637 H         1 UNK         0.0000 
     32 H32         1.8945   56.2821   28.7818 H         1 UNK         0.0000 
     33 H33         0.8037   55.5938   30.0013 H         1 UNK         0.0000 
     34 H34         1.5381   53.2779   29.6288 H         1 UNK         0.0000 
     35 H35         3.2338   52.9218   29.8024 H         1 UNK         0.0000 
     36 H36         2.0427   54.4485   27.4428 H         1 UNK         0.0000 
     37 H37         2.4855   52.7496   27.4331 H         1 UNK         0.0000 
     38 H38         2.4785   53.9123   25.3227 H         1 UNK         0.0000 
     39 H39         3.1852   54.1820   23.0552 H         1 UNK         0.0000 
     40 H40         7.2520   54.7660   24.3740 H         1 UNK         0.0000 
     41 H41         4.1336   53.6906   21.5418 H         1 UNK         0.0000 
     42 H42         3.7851   53.5897   18.2057 H         1 UNK         0.0000 
     43 H43         2.1545   49.6192   23.1223 H         1 UNK         0.0000 
     44 H44         2.2488   48.4958   21.7704 H         1 UNK         0.0000 
     45 H45        -0.0468   50.2387   22.6800 H         1 UNK         0.0000 
     46 H46        -0.1539   48.6479   21.9576 H         1 UNK         0.0000 
     47 H47        -0.0036   49.5459   19.7478 H         1 UNK         0.0000 
     48 H48        -0.7622   50.9219   20.5409 H         1 UNK         0.0000 
     49 H49         1.6968   54.9856   16.1441 H         1 UNK         0.0000 
     50 H50         0.4993   53.6996   15.9569 H         1 UNK         0.0000 
     51 H51         0.2274   55.0058   17.1236 H         1 UNK         0.0000 
@<TRIPOS>BOND
     1    1    2 1    
     2    1   31 1    
     3    1   32 1    
     4    1   33 1    
     5    2    3 1    
     6    3    4 1    
     7    3   34 1    
     8    3   35 1    
     9    4    5 1    
    10    4   36 1    
    11    4   37 1    
    12    5    6 1    
    13    6   11 ar   
    14    6    7 ar   
    15    7    8 ar   
    16    7   38 1    
    17    8    9 ar   
    18    8   39 1    
    19    9   10 ar   
    20    9   13 1    
    21   10   11 ar   
    22   10   40 1    
    23   11   12 1    
    24   13   14 2    
    25   13   15 am   BACKBONE|DICT|INTERRES
    26   15   16 am   BACKBONE|DICT|INTERRES
    27   15   41 1    
    28   16   17 2    
    29   16   18 1    
    30   18   19 1    
    31   18   42 1    
    32   19   23 1    
    33   19   20 2    
    34   20   21 1    
    35   20   27 1    
    36   21   26 1    
    37   21   22 2    
    38   22   23 1    
    39   22   24 1    
    40   24   25 1    
    41   24   43 1    
    42   24   44 1    
    43   25   26 1    
    44   25   45 1    
    45   25   46 1    
    46   26   47 1    
    47   26   48 1    
    48   27   28 2    
    49   27   29 1    
    50   29   30 1    
    51   30   49 1    
    52   30   50 1    
    53   30   51 1    
@<TRIPOS>SUBSTRUCTURE
     1 UNK         1 GROUP             0       ****    0 ROOT    
