@<TRIPOS>MOLECULE
ZINC08909050_919
62   65    1
SMALL
USER_CHARGES


@<TRIPOS>ATOM
      1 C1         -0.0345   52.1552   30.0216 C.3       1 UNK         0.0000 
      2 C2          1.1236   52.6752   29.1810 C.ar      1 UNK         0.0000 
      3 C3          2.3205   53.0210   29.8113 C.ar      1 UNK         0.0000 
      4 C4          3.3910   53.5261   29.0726 C.ar      1 UNK         0.0000 
      5 C5          3.2849   53.6963   27.6817 C.ar      1 UNK         0.0000 
      6 C6          2.0820   53.3356   27.0573 C.ar      1 UNK         0.0000 
      7 C7          1.0081   52.8178   27.7902 C.ar      1 UNK         0.0000 
      8 C8         -0.2593   52.3988   27.0549 C.3       1 UNK         0.0000 
      9 N9          4.3542   54.1891   26.8945 N.am      1 UNK         0.0000 
     10 C10         4.1592   55.0755   25.7350 C.3       1 UNK         0.0000 
     11 C11         5.4865   55.1271   24.9867 C.3       1 UNK         0.0000 
     12 H12         5.7578   56.1507   24.7220 H         1 UNK         0.0000 
     13 C13         6.4788   54.5979   26.0094 C.3       1 UNK         0.0000 
     14 C14         5.6761   53.9447   27.1319 C.2       1 UNK         0.0000 
     15 O15         6.1879   53.2985   28.0446 O.2       1 UNK         0.0000 
     16 C16         5.5196   54.3502   23.6476 C.2       1 UNK         0.0000 
     17 O17         6.5426   54.3938   22.9654 O.2       1 UNK         0.0000 
     18 N18         4.3965   53.6967   23.2862 N.am      1 UNK         0.0000 
     19 C19         4.0721   53.2129   22.0331 C.2       1 UNK         0.0000 
     20 N20         3.1000   52.3531   21.8640 N.2       1 UNK         0.0000 
     21 N21         2.8069   52.1424   20.5238 N.2       1 UNK         0.0000 
     22 C22         3.5132   52.8926   19.7114 C.2       1 UNK         0.0000 
     23 S23         4.7044   53.8590   20.5465 S.3       1 UNK         0.0000 
     24 S24         3.2786   52.8982   17.9611 S.3       1 UNK         0.0000 
     25 C25         3.9313   54.5490   17.5185 C.3       1 UNK         0.0000 
     26 C26         5.4410   54.6609   17.2562 C.2       1 UNK         0.0000 
     27 O27         5.8907   55.7730   16.9836 O.2       1 UNK         0.0000 
     28 N28         6.1843   53.5354   17.3379 N.am      1 UNK         0.0000 
     29 C29         7.5717   53.3857   17.1736 C.ar      1 UNK         0.0000 
     30 C30         8.0205   52.0990   16.8726 C.ar      1 UNK         0.0000 
     31 C31         9.3796   51.8367   16.7031 C.ar      1 UNK         0.0000 
     32 C32        10.3033   52.8780   16.8257 C.ar      1 UNK         0.0000 
     33 C33         9.8735   54.1698   17.1367 C.ar      1 UNK         0.0000 
     34 C34         8.5097   54.4203   17.3223 C.ar      1 UNK         0.0000 
     35 C35        10.8831   55.2908   17.2979 C.3       1 UNK         0.0000 
     36 C36         9.8449   50.4283   16.3846 C.3       1 UNK         0.0000 
     37 H37        -0.8951   52.8151   29.9158 H         1 UNK         0.0000 
     38 H38        -0.3439   51.1659   29.6808 H         1 UNK         0.0000 
     39 H39         0.2085   52.0958   31.0856 H         1 UNK         0.0000 
     40 H40         2.4248   52.8973   30.8786 H         1 UNK         0.0000 
     41 H41         4.2969   53.7968   29.5936 H         1 UNK         0.0000 
     42 H42         1.9788   53.4210   25.9871 H         1 UNK         0.0000 
     43 H43        -0.5030   51.3625   27.2853 H         1 UNK         0.0000 
     44 H44        -1.1032   53.0099   27.3669 H         1 UNK         0.0000 
     45 H45        -0.1558   52.4778   25.9733 H         1 UNK         0.0000 
     46 H46         3.9563   56.0865   26.0817 H         1 UNK         0.0000 
     47 H47         3.2865   54.8687   25.1171 H         1 UNK         0.0000 
     48 H48         7.1448   53.8354   25.6040 H         1 UNK         0.0000 
     49 H49         7.1044   55.3941   26.4081 H         1 UNK         0.0000 
     50 H50         3.7439   53.4680   24.0188 H         1 UNK         0.0000 
     51 H51         3.6300   55.2858   18.2652 H         1 UNK         0.0000 
     52 H52         3.4367   54.8474   16.5951 H         1 UNK         0.0000 
     53 H53         5.6779   52.6724   17.4893 H         1 UNK         0.0000 
     54 H54         7.3050   51.2965   16.7715 H         1 UNK         0.0000 
     55 H55        11.3580   52.6769   16.6952 H         1 UNK         0.0000 
     56 H56         8.1987   55.4175   17.5847 H         1 UNK         0.0000 
     57 H57        10.5637   55.9929   18.0700 H         1 UNK         0.0000 
     58 H58        11.0030   55.8367   16.3614 H         1 UNK         0.0000 
     59 H59        11.8547   54.9071   17.6148 H         1 UNK         0.0000 
     60 H60         9.1478   49.9353   15.7037 H         1 UNK         0.0000 
     61 H61        10.8181   50.4286   15.8939 H         1 UNK         0.0000 
     62 H62         9.9050   49.8332   17.2975 H         1 UNK         0.0000 
@<TRIPOS>BOND
     1    1    2 1    
     2    1   37 1    
     3    1   38 1    
     4    1   39 1    
     5    2    7 ar   
     6    2    3 ar   
     7    3    4 ar   
     8    3   40 1    
     9    4    5 ar   
    10    4   41 1    
    11    5    6 ar   
    12    5    9 1    
    13    6    7 ar   
    14    6   42 1    
    15    7    8 1    
    16    8   43 1    
    17    8   44 1    
    18    8   45 1    
    19    9   14 am   BACKBONE|DICT|INTERRES
    20    9   10 1    
    21   10   11 1    
    22   10   46 1    
    23   10   47 1    
    24   11   12 1    
    25   11   13 1    
    26   11   16 1    
    27   13   14 1    
    28   13   48 1    
    29   13   49 1    
    30   14   15 2    
    31   16   17 2    
    32   16   18 am   BACKBONE|DICT|INTERRES
    33   18   19 am   BACKBONE|DICT|INTERRES
    34   18   50 1    
    35   19   23 1    
    36   19   20 2    
    37   20   21 1    
    38   21   22 2    
    39   22   23 1    
    40   22   24 1    
    41   24   25 1    
    42   25   26 1    
    43   25   51 1    
    44   25   52 1    
    45   26   27 2    
    46   26   28 am   BACKBONE|DICT|INTERRES
    47   28   29 1    
    48   28   53 1    
    49   29   34 ar   
    50   29   30 ar   
    51   30   31 ar   
    52   30   54 1    
    53   31   32 ar   
    54   31   36 1    
    55   32   33 ar   
    56   32   55 1    
    57   33   34 ar   
    58   33   35 1    
    59   34   56 1    
    60   35   57 1    
    61   35   58 1    
    62   35   59 1    
    63   36   60 1    
    64   36   61 1    
    65   36   62 1    
@<TRIPOS>SUBSTRUCTURE
     1 UNK         1 GROUP             0       ****    0 ROOT    
