@<TRIPOS>MOLECULE
ZINC09237766_2033
49   52    1
SMALL
USER_CHARGES


@<TRIPOS>ATOM
      1 C1          2.7097   53.9145   25.6352 C.3       1 UNK         0.0000 
      2 C2          4.0980   54.0969   26.2314 C.ar      1 UNK         0.0000 
      3 C3          4.2409   53.9859   27.6176 C.ar      1 UNK         0.0000 
      4 C4          5.4919   54.1194   28.2128 C.ar      1 UNK         0.0000 
      5 C5          6.6118   54.3748   27.4294 C.ar      1 UNK         0.0000 
      6 C6          6.4827   54.4984   26.0486 C.ar      1 UNK         0.0000 
      7 C7          5.2292   54.3544   25.4322 C.ar      1 UNK         0.0000 
      8 N8          5.0665   54.4960   24.0404 N.am      1 UNK         0.0000 
      9 C9          5.9698   54.2450   23.0670 C.2       1 UNK         0.0000 
     10 O10         7.0531   53.6968   23.2817 O.2       1 UNK         0.0000 
     11 C11         5.5605   54.6491   21.6229 C.3       1 UNK         0.0000 
     12 H12         4.7989   55.4189   21.6815 H         1 UNK         0.0000 
     13 C13         4.9808   53.4425   20.8091 C.3       1 UNK         0.0000 
     14 H14         5.7404   52.6595   20.7836 H         1 UNK         0.0000 
     15 N15         4.7356   53.8335   19.4233 N.3       1 UNK         0.0000 
     16 N16         5.9043   54.2247   18.7794 N.pl3     1 UNK         0.0000 
     17 C17         6.2667   53.9653   17.4790 C.ar      1 UNK         0.0000 
     18 N18         7.4362   54.4932   17.2161 N.2       1 UNK         0.0000 
     19 N19         7.8689   55.1362   18.3724 N.2       1 UNK         0.0000 
     20 C20         6.9430   54.9737   19.2843 C.ar      1 UNK         0.0000 
     21 S21         6.9929   55.5824   20.9370 S.3       1 UNK         0.0000 
     22 C22         5.4257   53.1925   16.4847 C.3       1 UNK         0.0000 
     23 C23         3.7346   52.7869   21.4159 C.ar      1 UNK         0.0000 
     24 C24         2.7429   53.5245   22.0770 C.ar      1 UNK         0.0000 
     25 C25         1.6262   52.8923   22.6195 C.ar      1 UNK         0.0000 
     26 C26         1.4765   51.5007   22.5221 C.ar      1 UNK         0.0000 
     27 C27         2.4556   50.7728   21.8369 C.ar      1 UNK         0.0000 
     28 C28         3.5655   51.4080   21.2822 C.ar      1 UNK         0.0000 
     29 Br29        2.3041   48.8885   21.6551 Br        1 UNK         0.0000 
     30 O30         0.4172   50.7987   23.0665 O.3       1 UNK         0.0000 
     31 C31        -0.5564   51.4892   23.8418 C.3       1 UNK         0.0000 
     32 H32         2.6289   52.9265   25.1823 H         1 UNK         0.0000 
     33 H33         1.9244   54.0221   26.3845 H         1 UNK         0.0000 
     34 H34         2.5164   54.6605   24.8665 H         1 UNK         0.0000 
     35 H35         3.3794   53.7877   28.2387 H         1 UNK         0.0000 
     36 H36         5.5963   54.0348   29.2816 H         1 UNK         0.0000 
     37 H37         7.5762   54.4917   27.9011 H         1 UNK         0.0000 
     38 H38         7.3645   54.7163   25.4666 H         1 UNK         0.0000 
     39 H39         4.1350   54.7407   23.7471 H         1 UNK         0.0000 
     40 H40         4.3859   53.0228   18.9277 H         1 UNK         0.0000 
     41 H41         5.8811   53.1599   15.4939 H         1 UNK         0.0000 
     42 H42         5.2797   52.1583   16.7952 H         1 UNK         0.0000 
     43 H43         4.4359   53.6335   16.3634 H         1 UNK         0.0000 
     44 H44         2.8064   54.5988   22.1484 H         1 UNK         0.0000 
     45 H45         0.8874   53.5025   23.1148 H         1 UNK         0.0000 
     46 H46         4.3019   50.8230   20.7504 H         1 UNK         0.0000 
     47 H47        -1.2866   50.7745   24.2230 H         1 UNK         0.0000 
     48 H48        -0.1066   51.9881   24.7015 H         1 UNK         0.0000 
     49 H49        -1.0968   52.2234   23.2427 H         1 UNK         0.0000 
@<TRIPOS>BOND
     1    1    2 1    
     2    1   32 1    
     3    1   33 1    
     4    1   34 1    
     5    2    7 ar   
     6    2    3 ar   
     7    3    4 ar   
     8    3   35 1    
     9    4    5 ar   
    10    4   36 1    
    11    5    6 ar   
    12    5   37 1    
    13    6    7 ar   
    14    6   38 1    
    15    7    8 1    
    16    8    9 am   BACKBONE|DICT|INTERRES
    17    8   39 1    
    18    9   10 2    
    19    9   11 1    
    20   11   12 1    
    21   11   21 1    
    22   11   13 1    
    23   13   14 1    
    24   13   15 1    
    25   13   23 1    
    26   15   16 1    
    27   15   40 1    
    28   16   20 ar   
    29   16   17 ar   
    30   17   18 ar   
    31   17   22 1    
    32   18   19 ar   
    33   19   20 ar   
    34   20   21 1    
    35   22   41 1    
    36   22   42 1    
    37   22   43 1    
    38   23   28 ar   
    39   23   24 ar   
    40   24   25 ar   
    41   24   44 1    
    42   25   26 ar   
    43   25   45 1    
    44   26   27 ar   
    45   26   30 1    
    46   27   28 ar   
    47   27   29 1    
    48   28   46 1    
    49   30   31 1    
    50   31   47 1    
    51   31   48 1    
    52   31   49 1    
@<TRIPOS>SUBSTRUCTURE
     1 UNK         1 GROUP             0       ****    0 ROOT    
