@<TRIPOS>MOLECULE
ZINC65025204_508
50   52    1
SMALL
USER_CHARGES


@<TRIPOS>ATOM
      1 C1          5.1469   53.8976   23.0308 C.3       1 UNK         0.0000 
      2 C2          3.6992   53.8887   22.4904 C.3       1 UNK         0.0000 
      3 C3          3.6376   53.1906   21.1217 C.3       1 UNK         0.0000 
      4 N4          2.7071   53.2979   23.3950 N.am      1 UNK         0.0000 
      5 C5          2.4609   53.6187   24.6815 C.2       1 UNK         0.0000 
      6 O6          3.1395   54.4413   25.2958 O.2       1 UNK         0.0000 
      7 C7          1.2768   52.9076   25.3282 C.ar      1 UNK         0.0000 
      8 C8          0.2069   52.4653   24.5272 C.ar      1 UNK         0.0000 
      9 C9         -0.9243   51.8487   25.0628 C.ar      1 UNK         0.0000 
     10 C10        -0.9278   51.6742   26.4530 C.ar      1 UNK         0.0000 
     11 N11         0.0670   52.0942   27.2718 N.ar      1 UNK         0.0000 
     12 C12         1.1489   52.7080   26.7260 C.ar      1 UNK         0.0000 
     13 N13         2.1044   53.1124   27.6456 N.pl3     1 UNK         0.0000 
     14 C14         2.7901   52.1465   28.5052 C.3       1 UNK         0.0000 
     15 C15         4.2579   52.5623   28.7276 C.3       1 UNK         0.0000 
     16 N16         4.3028   53.9509   29.3806 N.4       1 UNK         0.0000 
     17 C17         3.4658   54.9960   28.6197 C.3       1 UNK         0.0000 
     18 C18         2.0679   54.4477   28.2563 C.3       1 UNK         0.0000 
     19 N19        -1.9015   51.4568   24.1829 N.2       1 UNK         0.0000 
     20 S20        -3.3244   50.9469   24.6052 S.o2      1 UNK         0.0000 
     21 O21        -4.2367   50.8443   23.4617 O.2       1 UNK         0.0000 
     22 O22        -3.8605   51.5825   25.8140 O.2       1 UNK         0.0000 
     23 C23        -3.1008   49.2131   25.0866 C.2       1 UNK         0.0000 
     24 C24        -1.9249   48.4707   25.0170 C.2       1 UNK         0.0000 
     25 C25        -2.0958   47.1509   25.4449 C.2       1 UNK         0.0000 
     26 C26        -3.3978   46.8754   25.8360 C.2       1 UNK         0.0000 
     27 S27        -4.4222   48.2703   25.6988 S.3       1 UNK         0.0000 
     28 Br28       -4.0922   45.2254   26.4800 Br        1 UNK         0.0000 
     29 H29         5.8358   54.2789   22.2759 H         1 UNK         0.0000 
     30 H30         5.2625   54.5483   23.8965 H         1 UNK         0.0000 
     31 H31         5.4932   52.8972   23.2886 H         1 UNK         0.0000 
     32 H32         3.3939   54.9258   22.3319 H         1 UNK         0.0000 
     33 H33         4.3669   53.6171   20.4331 H         1 UNK         0.0000 
     34 H34         3.8736   52.1283   21.2022 H         1 UNK         0.0000 
     35 H35         2.6590   53.2958   20.6520 H         1 UNK         0.0000 
     36 H36         2.1320   52.5799   22.9800 H         1 UNK         0.0000 
     37 H37         0.2283   52.6206   23.4572 H         1 UNK         0.0000 
     38 H38        -1.7396   51.1699   26.9558 H         1 UNK         0.0000 
     39 H39         2.2482   52.1086   29.4517 H         1 UNK         0.0000 
     40 H40         2.7040   51.1474   28.0826 H         1 UNK         0.0000 
     41 H41         4.8118   52.6358   27.7878 H         1 UNK         0.0000 
     42 H42         4.7890   51.8898   29.4036 H         1 UNK         0.0000 
     43 H43         5.2619   54.2695   29.4478 H         1 UNK         0.0000 
     44 H44         4.0428   55.2631   27.7322 H         1 UNK         0.0000 
     45 H45         3.4082   55.8630   29.2783 H         1 UNK         0.0000 
     46 H46         1.4995   55.1612   27.6627 H         1 UNK         0.0000 
     47 H47         1.4948   54.3096   29.1746 H         1 UNK         0.0000 
     48 H48        -0.9814   48.8708   24.6773 H         1 UNK         0.0000 
     49 H49        -1.2959   46.4283   25.4835 H         1 UNK         0.0000 
     50 H50         3.9503   53.8616   30.3203 H         1 UNK         0.0000 
@<TRIPOS>BOND
     1    1    2 1    
     2    1   29 1    
     3    1   30 1    
     4    1   31 1    
     5    2    3 1    
     6    2    4 1    
     7    2   32 1    
     8    3   33 1    
     9    3   34 1    
    10    3   35 1    
    11    4    5 am   BACKBONE|DICT|INTERRES
    12    4   36 1    
    13    5    6 2    
    14    5    7 1    
    15    7   12 ar   
    16    7    8 ar   
    17    8    9 ar   
    18    8   37 1    
    19    9   10 ar   
    20    9   19 1    
    21   10   11 ar   
    22   10   38 1    
    23   11   12 ar   
    24   12   13 1    
    25   13   18 1    
    26   13   14 1    
    27   14   15 1    
    28   14   39 1    
    29   14   40 1    
    30   15   16 1    
    31   15   41 1    
    32   15   42 1    
    33   16   17 1    
    34   16   43 1    
    35   16   50 1    
    36   17   18 1    
    37   17   44 1    
    38   17   45 1    
    39   18   46 1    
    40   18   47 1    
    41   19   20 1    
    42   20   21 2    
    43   20   22 2    
    44   20   23 1    
    45   23   27 1    
    46   23   24 2    
    47   24   25 1    
    48   24   48 1    
    49   25   26 2    
    50   25   49 1    
    51   26   27 1    
    52   26   28 1    
@<TRIPOS>SUBSTRUCTURE
     1 UNK         1 GROUP             0       ****    0 ROOT    
