ZINC39677318_2208
                    3D
 Schrodinger Suite 2024-2.
 63 67  0  0  1  0            999 V2000
    1.5243   50.9075   17.1266 C   0  0  0  0  0  0
    1.5808   50.1265   18.4224 C   0  0  0  0  0  0
    1.8691   48.7561   18.4817 C   0  0  0  0  0  0
    1.9044   48.2459   19.7617 C   0  0  0  0  0  0
    1.6676   49.4767   20.9363 S   0  0  0  0  0  0
    1.4711   50.7000   19.6977 C   0  0  0  0  0  0
    1.2165   52.1652   20.0218 C   0  0  0  0  0  0
    1.3088   52.4967   21.4424 N   0  0  0  0  0  0
    0.2953   52.4435   22.3251 C   0  0  0  0  0  0
   -0.8379   52.0967   21.9904 O   0  0  0  0  0  0
    0.5116   52.9337   23.7837 C   0  0  2  0  0  0
   -0.0821   53.8417   23.9008 H   0  0  0  0  0  0
    1.9784   53.3429   24.0070 C   0  0  0  0  0  0
    2.1780   53.2187   25.4496 N   0  0  0  0  0  0
    1.0622   52.4963   26.0742 C   0  0  0  0  0  0
    0.2329   51.8955   24.9018 C   0  0  0  0  0  0
   -1.2791   51.7541   25.2052 C   0  0  0  0  0  0
   -1.5323   50.8278   26.4077 C   0  0  0  0  0  0
   -0.9564   49.4317   26.0817 N   0  3  0  0  0  0
    0.5320   49.4386   25.6690 C   0  0  0  0  0  0
    0.7046   50.4506   24.5170 C   0  0  0  0  0  0
    3.2308   53.6967   26.1759 C   0  0  0  0  0  0
    3.2289   53.6847   27.4087 O   0  0  0  0  0  0
    4.4332   54.1430   25.4827 C   0  0  0  0  0  0
    5.6498   54.6078   25.9760 C   0  0  0  0  0  0
    6.4785   54.8413   24.8716 C   0  0  0  0  0  0
    5.7481   54.5165   23.7375 C   0  0  0  0  0  0
    4.5206   54.0944   24.1270 O   0  0  0  0  0  0
    5.9897   54.6149   22.2681 C   0  0  0  0  0  0
    7.1044   55.3136   21.7939 C   0  0  0  0  0  0
    7.3089   55.4631   20.4241 C   0  0  0  0  0  0
    6.3997   54.9067   19.5266 C   0  0  0  0  0  0
    5.2896   54.2020   19.9864 C   0  0  0  0  0  0
    5.0850   54.0578   21.3559 C   0  0  0  0  0  0
    0.5263   50.9005   16.6895 H   0  0  0  0  0  0
    1.8305   51.9457   17.2507 H   0  0  0  0  0  0
    2.2082   50.4967   16.3831 H   0  0  0  0  0  0
    2.0512   48.1597   17.5990 H   0  0  0  0  0  0
    2.1027   47.2334   20.0681 H   0  0  0  0  0  0
    1.9478   52.7895   19.5066 H   0  0  0  0  0  0
    0.2534   52.4837   19.6180 H   0  0  0  0  0  0
    2.1932   52.8712   21.7451 H   0  0  0  0  0  0
    2.6533   52.6075   23.5649 H   0  0  0  0  0  0
    2.1652   54.3494   23.6266 H   0  0  0  0  0  0
    0.4496   53.2486   26.5720 H   0  0  0  0  0  0
    1.3406   51.7697   26.8363 H   0  0  0  0  0  0
   -1.6922   52.7349   25.4464 H   0  0  0  0  0  0
   -1.8348   51.4195   24.3276 H   0  0  0  0  0  0
   -1.0435   51.1564   27.3266 H   0  0  0  0  0  0
   -2.5935   50.6752   26.6114 H   0  0  0  0  0  0
   -1.0771   48.8749   26.9436 H   0  0  0  0  0  0
    1.1044   49.6731   26.5661 H   0  0  0  0  0  0
    0.7712   48.4166   25.3695 H   0  0  0  0  0  0
    0.1798   50.0791   23.6354 H   0  0  0  0  0  0
    1.7556   50.4619   24.2255 H   0  0  0  0  0  0
    5.9045   54.7492   27.0172 H   0  0  0  0  0  0
    7.4912   55.2144   24.8815 H   0  0  0  0  0  0
    7.8140   55.7508   22.4817 H   0  0  0  0  0  0
    8.1733   55.9988   20.0584 H   0  0  0  0  0  0
    6.5598   55.0166   18.4637 H   0  0  0  0  0  0
    4.5919   53.7690   19.2835 H   0  0  0  0  0  0
    4.2179   53.5158   21.7007 H   0  0  0  0  0  0
   -1.5148   48.9849   25.3693 H   0  0  0  0  0  0
  1  2  1  0  0  0
  1 35  1  0  0  0
  1 36  1  0  0  0
  1 37  1  0  0  0
  2  6  2  0  0  0
  2  3  1  0  0  0
  3  4  2  0  0  0
  3 38  1  0  0  0
  4  5  1  0  0  0
  4 39  1  0  0  0
  5  6  1  0  0  0
  6  7  1  0  0  0
  7  8  1  0  0  0
  7 40  1  0  0  0
  7 41  1  0  0  0
  8  9  1  0  0  0
  8 42  1  0  0  0
  9 10  2  0  0  0
  9 11  1  0  0  0
 11 12  1  0  0  0
 11 16  1  0  0  0
 11 13  1  0  0  0
 13 14  1  0  0  0
 13 43  1  0  0  0
 13 44  1  0  0  0
 14 15  1  0  0  0
 14 22  1  0  0  0
 15 16  1  0  0  0
 15 45  1  0  0  0
 15 46  1  0  0  0
 16 21  1  0  0  0
 16 17  1  0  0  0
 17 18  1  0  0  0
 17 47  1  0  0  0
 17 48  1  0  0  0
 18 19  1  0  0  0
 18 49  1  0  0  0
 18 50  1  0  0  0
 19 20  1  0  0  0
 19 51  1  0  0  0
 19 63  1  0  0  0
 20 21  1  0  0  0
 20 52  1  0  0  0
 20 53  1  0  0  0
 21 54  1  0  0  0
 21 55  1  0  0  0
 22 23  2  0  0  0
 22 24  1  0  0  0
 24 28  1  0  0  0
 24 25  2  0  0  0
 25 26  1  0  0  0
 25 56  1  0  0  0
 26 27  2  0  0  0
 26 57  1  0  0  0
 27 28  1  0  0  0
 27 29  1  0  0  0
 29 34  2  0  0  0
 29 30  1  0  0  0
 30 31  2  0  0  0
 30 58  1  0  0  0
 31 32  1  0  0  0
 31 59  1  0  0  0
 32 33  2  0  0  0
 32 60  1  0  0  0
 33 34  1  0  0  0
 33 61  1  0  0  0
 34 62  1  0  0  0
M  CHG  1  19   1
M  END
> <i_i_glide_confnum>
389

> <i_i_glide_lignum>
2209

> <i_i_glide_posenum>
58

> <i_i_glide_rotatable_bonds>
7

> <i_m_Source_File_Index>
136

> <b_m_subgroup_collapsed>
0

> <r_i_docking_score>
-6.11363

> <r_i_glide_ecoul>
-7.89612

> <r_i_glide_eff_state_penalty>
0

> <r_i_glide_einternal>
8.58982

> <r_i_glide_emodel>
-65.8738

> <r_i_glide_energy>
-48.7584

> <r_i_glide_erotb>
0.653797

> <r_i_glide_esite>
-0.114962

> <r_i_glide_evdw>
-40.8622

> <r_i_glide_gscore>
-6.11363

> <r_i_glide_hbond>
-0.2

> <r_i_glide_ligand_efficiency>
-0.185262

> <r_i_glide_ligand_efficiency_ln>
-1.35964

> <r_i_glide_ligand_efficiency_sa>
-0.594233

> <r_i_glide_lipo>
-2.4091

> <r_i_glide_metal>
0

> <r_i_glide_rewards>
-0.815839

> <s_i_glide_gridfile>
wee1_glide-grid

> <s_m_Source_File>
wee1_decoys_glide_SP.sdf

> <s_m_Source_Path>
/Users/zhangxujun/Desktop

> <s_m_entry_id>
411

> <s_m_entry_name>
wee1_decoys_glide_SP.136

> <s_m_subgroup_title>
wee1_decoys_glide_SP

> <s_m_subgroupid>
wee1_decoys_glide_SP


$$$$
