@<TRIPOS>MOLECULE
ZINC06146128_4943
59   63    1
SMALL
USER_CHARGES


@<TRIPOS>ATOM
      1 C1          7.0517   53.6836   28.1396 C.3       1 UNK         0.0000 
      2 C2          5.8803   54.6193   27.8058 C.3       1 UNK         0.0000 
      3 O3          5.3736   54.3997   26.4900 O.3       1 UNK         0.0000 
      4 C4          6.0387   54.8465   25.3966 C.2       1 UNK         0.0000 
      5 O5          7.1034   55.4678   25.4311 O.2       1 UNK         0.0000 
      6 C6          5.3560   54.4967   24.1458 C.ar      1 UNK         0.0000 
      7 C7          4.0269   53.9889   23.9690 C.ar      1 UNK         0.0000 
      8 C8          3.8138   53.7838   22.5808 C.ar      1 UNK         0.0000 
      9 N9          2.6787   53.2777   22.0916 N.ar      1 UNK         0.0000 
     10 C10         1.7067   52.9223   22.9730 C.ar      1 UNK         0.0000 
     11 C11         0.5094   52.3299   22.5119 C.ar      1 UNK         0.0000 
     12 C12        -0.4731   51.9525   23.4269 C.ar      1 UNK         0.0000 
     13 C13        -0.2854   52.1485   24.7944 C.ar      1 UNK         0.0000 
     14 C14         0.8855   52.7308   25.2758 C.ar      1 UNK         0.0000 
     15 C15         1.8935   53.1308   24.3709 C.ar      1 UNK         0.0000 
     16 N16         3.0499   53.6888   24.8291 N.ar      1 UNK         0.0000 
     17 N17         4.9352   54.2287   21.8962 N.pl3     1 UNK         0.0000 
     18 C18         5.8709   54.6146   22.8563 C.ar      1 UNK         0.0000 
     19 N19         7.1044   55.0622   22.4816 N.pl3     1 UNK         0.0000 
     20 C20         5.1034   54.2755   20.4839 C.ar      1 UNK         0.0000 
     21 C21         5.6264   55.4313   19.8894 C.ar      1 UNK         0.0000 
     22 C22         5.7659   55.5092   18.5082 C.ar      1 UNK         0.0000 
     23 C23         5.3812   54.4360   17.7089 C.ar      1 UNK         0.0000 
     24 C24         4.8310   53.2967   18.2923 C.ar      1 UNK         0.0000 
     25 C25         4.6905   53.2122   19.6758 C.ar      1 UNK         0.0000 
     26 N26         5.4803   54.5110   16.3164 N.pl3     1 UNK         0.0000 
     27 S27         7.0054   54.8237   15.4711 S.o2      1 UNK         0.0000 
     28 O28         6.6353   55.1612   14.0937 O.2       1 UNK         0.0000 
     29 O29         7.7986   55.7466   16.2906 O.2       1 UNK         0.0000 
     30 C30         7.8672   53.2546   15.4251 C.ar      1 UNK         0.0000 
     31 C31         7.7494   52.4353   14.2999 C.ar      1 UNK         0.0000 
     32 C32         8.4369   51.2271   14.2476 C.ar      1 UNK         0.0000 
     33 C33         9.2393   50.8356   15.3213 C.ar      1 UNK         0.0000 
     34 C34         9.3390   51.6461   16.4535 C.ar      1 UNK         0.0000 
     35 C35         8.6544   52.8571   16.5080 C.ar      1 UNK         0.0000 
     36 C36         9.9764   49.5103   15.2710 C.3       1 UNK         0.0000 
     37 H37         7.3984   53.8428   29.1592 H         1 UNK         0.0000 
     38 H38         6.7605   52.6373   28.0433 H         1 UNK         0.0000 
     39 H39         7.8997   53.8585   27.4772 H         1 UNK         0.0000 
     40 H40         6.1787   55.6618   27.9285 H         1 UNK         0.0000 
     41 H41         5.0681   54.4469   28.5096 H         1 UNK         0.0000 
     42 H42         0.3666   52.1713   21.4512 H         1 UNK         0.0000 
     43 H43        -1.3865   51.4948   23.0745 H         1 UNK         0.0000 
     44 H44        -1.0534   51.8407   25.4888 H         1 UNK         0.0000 
     45 H45         1.0323   52.8747   26.3371 H         1 UNK         0.0000 
     46 H46         7.8061   55.2972   23.1804 H         1 UNK         0.0000 
     47 H47         7.4182   55.0234   21.5214 H         1 UNK         0.0000 
     48 H48         5.9025   56.2888   20.4850 H         1 UNK         0.0000 
     49 H49         6.1531   56.4155   18.0654 H         1 UNK         0.0000 
     50 H50         4.5152   52.4681   17.6748 H         1 UNK         0.0000 
     51 H51         4.2652   52.3143   20.1028 H         1 UNK         0.0000 
     52 H52         4.7224   54.1413   15.7666 H         1 UNK         0.0000 
     53 H53         7.1377   52.7351   13.4604 H         1 UNK         0.0000 
     54 H54         8.3522   50.5990   13.3720 H         1 UNK         0.0000 
     55 H55         9.9571   51.3393   17.2829 H         1 UNK         0.0000 
     56 H56         8.7450   53.4869   17.3806 H         1 UNK         0.0000 
     57 H57         9.5076   48.8211   14.5685 H         1 UNK         0.0000 
     58 H58        11.0172   49.6584   14.9809 H         1 UNK         0.0000 
     59 H59         9.9575   49.0259   16.2488 H         1 UNK         0.0000 
@<TRIPOS>BOND
     1    1    2 1    
     2    1   37 1    
     3    1   38 1    
     4    1   39 1    
     5    2    3 1    
     6    2   40 1    
     7    2   41 1    
     8    3    4 1    
     9    4    5 2    
    10    4    6 1    
    11    6   18 ar   
    12    6    7 ar   
    13    7   16 ar   
    14    7    8 ar   
    15    8    9 ar   
    16    8   17 ar   
    17    9   10 ar   
    18   10   15 ar   
    19   10   11 ar   
    20   11   12 ar   
    21   11   42 1    
    22   12   13 ar   
    23   12   43 1    
    24   13   14 ar   
    25   13   44 1    
    26   14   15 ar   
    27   14   45 1    
    28   15   16 ar   
    29   17   18 ar   
    30   17   20 1    
    31   18   19 1    
    32   19   46 1    
    33   19   47 1    
    34   20   25 ar   
    35   20   21 ar   
    36   21   22 ar   
    37   21   48 1    
    38   22   23 ar   
    39   22   49 1    
    40   23   24 ar   
    41   23   26 1    
    42   24   25 ar   
    43   24   50 1    
    44   25   51 1    
    45   26   27 1    
    46   26   52 1    
    47   27   28 2    
    48   27   29 2    
    49   27   30 1    
    50   30   35 ar   
    51   30   31 ar   
    52   31   32 ar   
    53   31   53 1    
    54   32   33 ar   
    55   32   54 1    
    56   33   34 ar   
    57   33   36 1    
    58   34   35 ar   
    59   34   55 1    
    60   35   56 1    
    61   36   57 1    
    62   36   58 1    
    63   36   59 1    
@<TRIPOS>SUBSTRUCTURE
     1 UNK         1 GROUP             0       ****    0 ROOT    
