ZINC36252543_3768
                    3D
 Schrodinger Suite 2024-2.
 29 31  0  0  1  0            999 V2000
    4.6600   54.0568   28.0436 C   0  0  0  0  0  0
    4.4198   54.1273   26.5343 C   0  0  0  0  0  0
    5.4365   54.5076   25.6422 C   0  0  0  0  0  0
    5.2093   54.4964   24.2684 C   0  0  0  0  0  0
    3.9856   54.0965   23.7375 C   0  0  0  0  0  0
    2.9729   53.6923   24.6181 C   0  0  0  0  0  0
    3.1907   53.7485   26.0138 N   0  0  0  0  0  0
    1.9637   53.3570   26.5516 C   0  0  0  0  0  0
    1.1608   52.9484   25.5877 N   0  0  0  0  0  0
    1.7411   53.2042   24.3628 N   0  0  0  0  0  0
    1.5008   53.4577   27.9671 C   0  0  0  0  0  0
    0.8570   52.3844   28.5952 C   0  0  0  0  0  0
    0.3551   52.5239   29.8913 C   0  0  0  0  0  0
    0.4837   53.7392   30.5640 C   0  0  0  0  0  0
    1.1067   54.8186   29.9371 C   0  0  0  0  0  0
    1.6084   54.6773   28.6442 C   0  0  0  0  0  0
    1.2487   56.4971   30.8235 Br  0  0  0  0  0  0
    6.7042   54.8874   26.0818 N   0  0  0  0  0  0
    5.7131   53.9250   28.2872 H   0  0  0  0  0  0
    4.3237   54.9686   28.5345 H   0  0  0  0  0  0
    4.1469   53.2035   28.4858 H   0  0  0  0  0  0
    5.9983   54.7923   23.5908 H   0  0  0  0  0  0
    3.8246   54.0712   22.6695 H   0  0  0  0  0  0
    0.7341   51.4440   28.0758 H   0  0  0  0  0  0
   -0.1493   51.6969   30.3716 H   0  0  0  0  0  0
    0.0857   53.8428   31.5637 H   0  0  0  0  0  0
    2.0589   55.5287   28.1555 H   0  0  0  0  0  0
    6.9186   54.7466   27.0593 H   0  0  0  0  0  0
    7.4361   54.8465   25.3867 H   0  0  0  0  0  0
  1  2  1  0  0  0
  1 19  1  0  0  0
  1 20  1  0  0  0
  1 21  1  0  0  0
  2  7  1  0  0  0
  2  3  2  0  0  0
  3  4  1  0  0  0
  3 18  1  0  0  0
  4  5  2  0  0  0
  4 22  1  0  0  0
  5  6  1  0  0  0
  5 23  1  0  0  0
  6 10  2  0  0  0
  6  7  1  0  0  0
  7  8  1  0  0  0
  8  9  2  0  0  0
  8 11  1  0  0  0
  9 10  1  0  0  0
 11 16  2  0  0  0
 11 12  1  0  0  0
 12 13  2  0  0  0
 12 24  1  0  0  0
 13 14  1  0  0  0
 13 25  1  0  0  0
 14 15  2  0  0  0
 14 26  1  0  0  0
 15 16  1  0  0  0
 15 17  1  0  0  0
 16 27  1  0  0  0
 18 28  1  0  0  0
 18 29  1  0  0  0
M  END
> <i_i_glide_confnum>
1

> <i_i_glide_lignum>
3769

> <i_i_glide_posenum>
298

> <i_i_glide_rotatable_bonds>
1

> <i_m_Source_File_Index>
1568

> <b_m_subgroup_collapsed>
0

> <r_i_docking_score>
-6.46027

> <r_i_glide_ecoul>
-0.372299

> <r_i_glide_eff_state_penalty>
0

> <r_i_glide_einternal>
0.0182604

> <r_i_glide_emodel>
-51.4852

> <r_i_glide_energy>
-36.189

> <r_i_glide_erotb>
0.200458

> <r_i_glide_esite>
0

> <r_i_glide_evdw>
-35.8167

> <r_i_glide_gscore>
-6.46027

> <r_i_glide_hbond>
0

> <r_i_glide_ligand_efficiency>
-0.358904

> <r_i_glide_ligand_efficiency_ln>
-1.66058

> <r_i_glide_ligand_efficiency_sa>
-0.940595

> <r_i_glide_lipo>
-2.68181

> <r_i_glide_metal>
0

> <r_i_glide_rewards>
-2.13225

> <s_i_glide_gridfile>
wee1_glide-grid

> <s_m_Source_File>
wee1_decoys_glide_SP.sdf

> <s_m_Source_Path>
/Users/zhangxujun/Desktop

> <s_m_entry_id>
1843

> <s_m_entry_name>
wee1_decoys_glide_SP.1568

> <s_m_subgroup_title>
wee1_decoys_glide_SP

> <s_m_subgroupid>
wee1_decoys_glide_SP


$$$$
