@<TRIPOS>MOLECULE
ZINC65074807_3703
64   67    1
SMALL
USER_CHARGES


@<TRIPOS>ATOM
      1 C1          6.8964   53.9512   27.5659 C.3       1 UNK         0.0000 
      2 C2          5.8575   54.0961   26.4682 C.ar      1 UNK         0.0000 
      3 C3          4.5024   53.9646   26.7793 C.ar      1 UNK         0.0000 
      4 C4          3.5435   54.0982   25.7791 C.ar      1 UNK         0.0000 
      5 C5          3.9354   54.3681   24.4668 C.ar      1 UNK         0.0000 
      6 C6          5.2911   54.4966   24.1543 C.ar      1 UNK         0.0000 
      7 C7          6.2532   54.3715   25.1556 C.ar      1 UNK         0.0000 
      8 C8          2.8790   54.5873   23.3954 C.3       1 UNK         0.0000 
      9 N9          2.1785   53.3731   22.9657 N.pl3     1 UNK         0.0000 
     10 C10         2.4548   52.6256   21.8891 C.2       1 UNK         0.0000 
     11 N11         3.5143   52.9115   21.1165 N.pl3     1 UNK         0.0000 
     12 C12         3.8409   52.2411   19.8615 C.3       1 UNK         0.0000 
     13 C13         3.0885   50.9126   19.7984 C.3       1 UNK         0.0000 
     14 N14         1.7047   51.0975   20.2092 N.3       1 UNK         0.0000 
     15 C15         1.5322   51.4152   21.6371 C.3       1 UNK         0.0000 
     16 C16         1.9010   50.2602   22.6075 C.3       1 UNK         0.0000 
     17 C17         0.9835   49.0325   22.4670 C.3       1 UNK         0.0000 
     18 N18        -0.4565   49.3849   22.5232 N.pl3     1 UNK         0.0000 
     19 C19        -0.8870   50.5009   21.6527 C.3       1 UNK         0.0000 
     20 C20         0.0195   51.7380   21.8422 C.3       1 UNK         0.0000 
     21 S21        -1.3834   48.9886   23.9845 S.o2      1 UNK         0.0000 
     22 O22        -2.8099   49.1432   23.6749 O.2       1 UNK         0.0000 
     23 O23        -0.8805   47.7030   24.4830 O.2       1 UNK         0.0000 
     24 C24        -0.9195   50.2513   25.2045 C.ar      1 UNK         0.0000 
     25 C25         0.2032   49.9822   25.9972 C.ar      1 UNK         0.0000 
     26 C26         0.6252   50.8858   26.9719 C.ar      1 UNK         0.0000 
     27 C27        -0.0789   52.0659   27.1899 C.ar      1 UNK         0.0000 
     28 C28        -1.2159   52.3306   26.4264 C.ar      1 UNK         0.0000 
     29 C29        -1.6458   51.4435   25.4329 C.ar      1 UNK         0.0000 
     30 C30        -2.8979   51.8261   24.6588 C.3       1 UNK         0.0000 
     31 C31         0.3608   53.0286   28.2801 C.3       1 UNK         0.0000 
     32 H32         6.5245   54.3650   28.5049 H         1 UNK         0.0000 
     33 H33         7.1386   52.9003   27.7247 H         1 UNK         0.0000 
     34 H34         7.8105   54.4956   27.3282 H         1 UNK         0.0000 
     35 H35         4.1947   53.7521   27.7924 H         1 UNK         0.0000 
     36 H36         2.4972   53.9991   26.0279 H         1 UNK         0.0000 
     37 H37         5.6073   54.7103   23.1446 H         1 UNK         0.0000 
     38 H38         7.2993   54.4755   24.9019 H         1 UNK         0.0000 
     39 H39         2.1100   55.2468   23.7991 H         1 UNK         0.0000 
     40 H40         3.2813   55.0932   22.5166 H         1 UNK         0.0000 
     41 H41         1.3932   53.0837   23.5307 H         1 UNK         0.0000 
     42 H42         3.5270   52.9019   19.0514 H         1 UNK         0.0000 
     43 H43         4.9185   52.0961   19.7848 H         1 UNK         0.0000 
     44 H44         3.1044   50.5156   18.7802 H         1 UNK         0.0000 
     45 H45         3.5775   50.1481   20.4014 H         1 UNK         0.0000 
     46 H46         1.1766   50.2631   19.9972 H         1 UNK         0.0000 
     47 H47         2.9390   49.9586   22.4824 H         1 UNK         0.0000 
     48 H48         1.8462   50.6201   23.6340 H         1 UNK         0.0000 
     49 H49         1.1728   48.4969   21.5366 H         1 UNK         0.0000 
     50 H50         1.1989   48.3446   23.2826 H         1 UNK         0.0000 
     51 H51        -0.8751   50.1508   20.6199 H         1 UNK         0.0000 
     52 H52        -1.9263   50.7382   21.8676 H         1 UNK         0.0000 
     53 H53        -0.1586   52.1423   22.8382 H         1 UNK         0.0000 
     54 H54        -0.2900   52.5134   21.1451 H         1 UNK         0.0000 
     55 H55         0.7533   49.0606   25.8706 H         1 UNK         0.0000 
     56 H56         1.4921   50.6505   27.5749 H         1 UNK         0.0000 
     57 H57        -1.7712   53.2365   26.6136 H         1 UNK         0.0000 
     58 H58        -3.2076   52.8521   24.8500 H         1 UNK         0.0000 
     59 H59        -2.7321   51.7463   23.5884 H         1 UNK         0.0000 
     60 H60        -3.7248   51.1668   24.9247 H         1 UNK         0.0000 
     61 H61         1.0233   53.7973   27.8774 H         1 UNK         0.0000 
     62 H62        -0.4957   53.5207   28.7393 H         1 UNK         0.0000 
     63 H63         0.8757   52.5000   29.0841 H         1 UNK         0.0000 
     64 H64         4.0442   53.7311   21.3654 H         1 UNK         0.0000 
@<TRIPOS>BOND
     1    1    2 1    
     2    1   32 1    
     3    1   33 1    
     4    1   34 1    
     5    2    7 ar   
     6    2    3 ar   
     7    3    4 ar   
     8    3   35 1    
     9    4    5 ar   
    10    4   36 1    
    11    5    6 ar   
    12    5    8 1    
    13    6    7 ar   
    14    6   37 1    
    15    7   38 1    
    16    8    9 1    
    17    8   39 1    
    18    8   40 1    
    19    9   10 1    
    20    9   41 1    
    21   10   15 1    
    22   10   11 2    
    23   11   12 1    
    24   11   64 1    
    25   12   13 1    
    26   12   42 1    
    27   12   43 1    
    28   13   14 1    
    29   13   44 1    
    30   13   45 1    
    31   14   15 1    
    32   14   46 1    
    33   15   20 1    
    34   15   16 1    
    35   16   17 1    
    36   16   47 1    
    37   16   48 1    
    38   17   18 1    
    39   17   49 1    
    40   17   50 1    
    41   18   19 1    
    42   18   21 1    
    43   19   20 1    
    44   19   51 1    
    45   19   52 1    
    46   20   53 1    
    47   20   54 1    
    48   21   22 2    
    49   21   23 2    
    50   21   24 1    
    51   24   29 ar   
    52   24   25 ar   
    53   25   26 ar   
    54   25   55 1    
    55   26   27 ar   
    56   26   56 1    
    57   27   28 ar   
    58   27   31 1    
    59   28   29 ar   
    60   28   57 1    
    61   29   30 1    
    62   30   58 1    
    63   30   59 1    
    64   30   60 1    
    65   31   61 1    
    66   31   62 1    
    67   31   63 1    
@<TRIPOS>SUBSTRUCTURE
     1 UNK         1 GROUP             0       ****    0 ROOT    
