@<TRIPOS>MOLECULE
ZINC01507372_5092
49   52    1
SMALL
USER_CHARGES


@<TRIPOS>ATOM
      1 C1          6.5082   53.6049   28.3740 C.3       1 UNK         0.0000 
      2 C2          5.1289   54.2089   28.7092 C.3       1 UNK         0.0000 
      3 O3          4.1368   53.8350   27.7557 O.3       1 UNK         0.0000 
      4 C4          4.1690   54.3107   26.4864 C.2       1 UNK         0.0000 
      5 O5          5.0052   55.1212   26.0828 O.2       1 UNK         0.0000 
      6 C6          3.1101   53.7220   25.6372 C.2       1 UNK         0.0000 
      7 C7          3.1932   53.6775   24.2102 C.2       1 UNK         0.0000 
      8 C8          2.0746   53.0927   23.6047 C.2       1 UNK         0.0000 
      9 S9          0.9306   52.5546   24.7543 S.3       1 UNK         0.0000 
     10 C10         1.9099   53.1095   26.0923 C.2       1 UNK         0.0000 
     11 N11         1.5185   52.9004   27.4349 N.pl3     1 UNK         0.0000 
     12 C12         0.3706   52.4397   27.9631 C.2       1 UNK         0.0000 
     13 C13         0.1428   52.2086   29.3509 C.2       1 UNK         0.0000 
     14 C14        -1.0570   51.6272   29.6578 C.2       1 UNK         0.0000 
     15 C15        -2.1015   51.3008   28.6790 C.ar      1 UNK         0.0000 
     16 C16        -3.3472   50.7464   28.9839 C.ar      1 UNK         0.0000 
     17 C17        -4.2608   50.5015   27.9561 C.ar      1 UNK         0.0000 
     18 C18        -3.9302   50.8113   26.6330 C.ar      1 UNK         0.0000 
     19 C19        -2.6902   51.3790   26.3332 C.ar      1 UNK         0.0000 
     20 C20        -1.7860   51.6213   27.3665 C.ar      1 UNK         0.0000 
     21 O21        -0.5656   52.2008   27.0882 O.3       1 UNK         0.0000 
     22 Br22       -5.9582   49.7424   28.3597 Br        1 UNK         0.0000 
     23 C23         1.1227   52.4978   30.4051 C.2       1 UNK         0.0000 
     24 O24         2.3074   52.7395   30.1714 O.2       1 UNK         0.0000 
     25 N25         0.7046   52.4935   31.6805 N.am      1 UNK         0.0000 
     26 C26         1.8317   52.9394   22.1094 C.3       1 UNK         0.0000 
     27 C27         3.1617   53.1232   21.3528 C.3       1 UNK         0.0000 
     28 C28         3.9365   54.3391   21.8745 C.3       1 UNK         0.0000 
     29 C29         4.3681   54.1652   23.3441 C.3       1 UNK         0.0000 
     30 H30         7.2021   53.7055   29.2087 H         1 UNK         0.0000 
     31 H31         6.4259   52.5464   28.1228 H         1 UNK         0.0000 
     32 H32         6.9614   54.1065   27.5190 H         1 UNK         0.0000 
     33 H33         5.1941   55.2965   28.7939 H         1 UNK         0.0000 
     34 H34         4.7944   53.8419   29.6789 H         1 UNK         0.0000 
     35 H35        -1.2827   51.3386   30.6748 H         1 UNK         0.0000 
     36 H36        -3.5949   50.4857   30.0035 H         1 UNK         0.0000 
     37 H37        -4.6375   50.6102   25.8403 H         1 UNK         0.0000 
     38 H38        -2.4288   51.6227   25.3133 H         1 UNK         0.0000 
     39 H39        -0.2514   52.2725   31.9610 H         1 UNK         0.0000 
     40 H40         1.3750   52.6664   32.4127 H         1 UNK         0.0000 
     41 H41         1.1161   53.6957   21.7812 H         1 UNK         0.0000 
     42 H42         1.3964   51.9657   21.8702 H         1 UNK         0.0000 
     43 H43         2.9610   53.2372   20.2867 H         1 UNK         0.0000 
     44 H44         3.7756   52.2252   21.4484 H         1 UNK         0.0000 
     45 H45         3.3048   55.2253   21.7905 H         1 UNK         0.0000 
     46 H46         4.8099   54.5273   21.2500 H         1 UNK         0.0000 
     47 H47         5.1844   53.4448   23.4011 H         1 UNK         0.0000 
     48 H48         4.7754   55.1100   23.6879 H         1 UNK         0.0000 
     49 H49         2.2588   53.1102   28.1045 H         1 UNK         0.0000 
@<TRIPOS>BOND
     1    1    2 1    
     2    1   30 1    
     3    1   31 1    
     4    1   32 1    
     5    2    3 1    
     6    2   33 1    
     7    2   34 1    
     8    3    4 1    
     9    4    5 2    
    10    4    6 1    
    11    6   10 2    
    12    6    7 1    
    13    7   29 1    
    14    7    8 2    
    15    8    9 1    
    16    8   26 1    
    17    9   10 1    
    18   10   11 1    
    19   11   12 2    
    20   11   49 1    
    21   12   21 1    
    22   12   13 1    
    23   13   14 2    
    24   13   23 1    
    25   14   15 1    
    26   14   35 1    
    27   15   20 ar   
    28   15   16 ar   
    29   16   17 ar   
    30   16   36 1    
    31   17   18 ar   
    32   17   22 1    
    33   18   19 ar   
    34   18   37 1    
    35   19   20 ar   
    36   19   38 1    
    37   20   21 1    
    38   23   24 2    
    39   23   25 am   BACKBONE|DICT|INTERRES
    40   25   39 1    
    41   25   40 1    
    42   26   27 1    
    43   26   41 1    
    44   26   42 1    
    45   27   28 1    
    46   27   43 1    
    47   27   44 1    
    48   28   29 1    
    49   28   45 1    
    50   28   46 1    
    51   29   47 1    
    52   29   48 1    
@<TRIPOS>SUBSTRUCTURE
     1 UNK         1 GROUP             0       ****    0 ROOT    
