@<TRIPOS>MOLECULE
ZINC43223274_594
68   71    1
SMALL
USER_CHARGES


@<TRIPOS>ATOM
      1 C1          2.9357   52.5907   28.9934 C.ar      1 UNK         0.0000 
      2 C2          2.3263   53.2253   27.9121 C.ar      1 UNK         0.0000 
      3 C3          3.0944   54.0063   27.0522 C.ar      1 UNK         0.0000 
      4 C4          4.4702   54.1449   27.2622 C.ar      1 UNK         0.0000 
      5 C5          5.0754   53.4936   28.3415 C.ar      1 UNK         0.0000 
      6 C6          4.3045   52.7155   29.2092 C.ar      1 UNK         0.0000 
      7 C7          5.2969   55.0434   26.3408 C.3       1 UNK         0.0000 
      8 C8          5.7666   54.4080   25.0162 C.3       1 UNK         0.0000 
      9 C9          4.5908   54.0287   24.1019 C.3       1 UNK         0.0000 
     10 C10         5.0375   53.4637   22.7476 C.3       1 UNK         0.0000 
     11 N11         5.8903   54.4796   22.0992 N.am      1 UNK         0.0000 
     12 C12         7.1139   54.8328   22.8465 C.3       1 UNK         0.0000 
     13 C13         6.7024   55.3605   24.2375 C.3       1 UNK         0.0000 
     14 C14         5.7286   54.8688   20.8014 C.2       1 UNK         0.0000 
     15 O15         6.5612   55.5634   20.2177 O.2       1 UNK         0.0000 
     16 C16         4.4121   54.4971   20.0467 C.3       1 UNK         0.0000 
     17 H17         3.6257   54.6767   20.7775 H         1 UNK         0.0000 
     18 C18         4.1578   55.3854   18.8036 C.3       1 UNK         0.0000 
     19 N19         4.8069   54.6020   17.6566 N.4       1 UNK         0.0000 
     20 C20         4.3474   53.1649   17.9401 C.3       1 UNK         0.0000 
     21 C21         4.4969   53.0442   19.4690 C.3       1 UNK         0.0000 
     22 H22         5.4764   52.5958   19.6617 H         1 UNK         0.0000 
     23 C23         3.4901   52.0593   20.1069 C.2       1 UNK         0.0000 
     24 O24         3.8852   50.9567   20.4818 O.2       1 UNK         0.0000 
     25 N25         2.2406   52.4965   20.3544 N.am      1 UNK         0.0000 
     26 C26         1.2643   51.7607   21.1606 C.3       1 UNK         0.0000 
     27 C27         1.6097   51.7565   22.6670 C.3       1 UNK         0.0000 
     28 C28         0.5111   51.2064   23.5635 C.ar      1 UNK         0.0000 
     29 C29         0.6504   49.9559   24.1781 C.ar      1 UNK         0.0000 
     30 C30        -0.3346   49.4872   25.0440 C.ar      1 UNK         0.0000 
     31 C31        -1.4759   50.2535   25.2868 C.ar      1 UNK         0.0000 
     32 C32        -1.6400   51.5005   24.6632 C.ar      1 UNK         0.0000 
     33 C33        -0.6339   51.9702   23.8108 C.ar      1 UNK         0.0000 
     34 C34        -2.9028   52.3260   24.9115 C.3       1 UNK         0.0000 
     35 F35        -3.9853   51.5478   24.8684 F         1 UNK         0.0000 
     36 F36        -2.8304   52.8936   26.1147 F         1 UNK         0.0000 
     37 F37        -3.0555   53.2951   24.0043 F         1 UNK         0.0000 
     38 H38         2.3353   51.9875   29.6607 H         1 UNK         0.0000 
     39 H39         1.2648   53.1136   27.7434 H         1 UNK         0.0000 
     40 H40         2.6153   54.4985   26.2187 H         1 UNK         0.0000 
     41 H41         6.1368   53.5923   28.5151 H         1 UNK         0.0000 
     42 H42         4.7652   52.2097   30.0443 H         1 UNK         0.0000 
     43 H43         6.1521   55.4224   26.9057 H         1 UNK         0.0000 
     44 H44         4.7044   55.9202   26.0818 H         1 UNK         0.0000 
     45 H45         6.3327   53.4972   25.2220 H         1 UNK         0.0000 
     46 H46         3.9495   54.8937   23.9297 H         1 UNK         0.0000 
     47 H47         3.9439   53.3056   24.5993 H         1 UNK         0.0000 
     48 H48         4.1264   53.2356   22.2138 H         1 UNK         0.0000 
     49 H49         5.6131   52.5455   22.8816 H         1 UNK         0.0000 
     50 H50         7.7189   53.9322   22.9607 H         1 UNK         0.0000 
     51 H51         7.7090   55.5990   22.3480 H         1 UNK         0.0000 
     52 H52         7.5748   55.5915   24.8443 H         1 UNK         0.0000 
     53 H53         6.2348   56.3311   24.0885 H         1 UNK         0.0000 
     54 H54         3.1060   55.4311   18.5107 H         1 UNK         0.0000 
     55 H55         4.5681   56.3972   18.8300 H         1 UNK         0.0000 
     56 H56         4.5356   54.9334   16.7413 H         1 UNK         0.0000 
     57 H57         4.9837   52.4969   17.3587 H         1 UNK         0.0000 
     58 H58         3.3158   53.0947   17.5853 H         1 UNK         0.0000 
     59 H59         1.9762   53.4343   20.0707 H         1 UNK         0.0000 
     60 H60         1.0934   50.7469   20.7966 H         1 UNK         0.0000 
     61 H61         0.2948   52.2417   21.0225 H         1 UNK         0.0000 
     62 H62         1.8325   52.7725   22.9982 H         1 UNK         0.0000 
     63 H63         2.5310   51.1968   22.8372 H         1 UNK         0.0000 
     64 H64         1.5266   49.3478   24.0003 H         1 UNK         0.0000 
     65 H65        -0.2162   48.5307   25.5371 H         1 UNK         0.0000 
     66 H66        -2.2256   49.8756   25.9676 H         1 UNK         0.0000 
     67 H67        -0.7336   52.9360   23.3388 H         1 UNK         0.0000 
     68 H68         5.8165   54.6720   17.7206 H         1 UNK         0.0000 
@<TRIPOS>BOND
     1    1    6 ar   
     2    1    2 ar   
     3    1   38 1    
     4    2    3 ar   
     5    2   39 1    
     6    3    4 ar   
     7    3   40 1    
     8    4    5 ar   
     9    4    7 1    
    10    5    6 ar   
    11    5   41 1    
    12    6   42 1    
    13    7    8 1    
    14    7   43 1    
    15    7   44 1    
    16    8   13 1    
    17    8    9 1    
    18    8   45 1    
    19    9   10 1    
    20    9   46 1    
    21    9   47 1    
    22   10   11 1    
    23   10   48 1    
    24   10   49 1    
    25   11   12 1    
    26   11   14 am   BACKBONE|DICT|INTERRES
    27   12   13 1    
    28   12   50 1    
    29   12   51 1    
    30   13   52 1    
    31   13   53 1    
    32   14   15 2    
    33   14   16 1    
    34   16   17 1    
    35   16   21 1    
    36   16   18 1    
    37   18   19 1    
    38   18   54 1    
    39   18   55 1    
    40   19   20 1    
    41   19   56 1    
    42   19   68 1    
    43   20   21 1    
    44   20   57 1    
    45   20   58 1    
    46   21   22 1    
    47   21   23 1    
    48   23   24 2    
    49   23   25 am   BACKBONE|DICT|INTERRES
    50   25   26 1    
    51   25   59 1    
    52   26   27 1    
    53   26   60 1    
    54   26   61 1    
    55   27   28 1    
    56   27   62 1    
    57   27   63 1    
    58   28   33 ar   
    59   28   29 ar   
    60   29   30 ar   
    61   29   64 1    
    62   30   31 ar   
    63   30   65 1    
    64   31   32 ar   
    65   31   66 1    
    66   32   33 ar   
    67   32   34 1    
    68   33   67 1    
    69   34   35 1    
    70   34   36 1    
    71   34   37 1    
@<TRIPOS>SUBSTRUCTURE
     1 UNK         1 GROUP             0       ****    0 ROOT    
