@<TRIPOS>MOLECULE
ZINC06507101_1554
49   52    1
SMALL
USER_CHARGES


@<TRIPOS>ATOM
      1 C1          6.3170   54.1700   23.7098 C.3       1 UNK         0.0000 
      2 C2          6.3486   54.6350   22.2715 C.ar      1 UNK         0.0000 
      3 C3          5.4992   54.2907   21.1907 C.ar      1 UNK         0.0000 
      4 C4          6.0308   55.0221   20.1479 C.ar      1 UNK         0.0000 
      5 N5          7.1155   55.6987   20.6040 N.pl3     1 UNK         0.0000 
      6 H6          7.7219   56.2788   20.0434 H         1 UNK         0.0000 
      7 N7          7.3043   55.4738   21.9040 N.2       1 UNK         0.0000 
      8 O8          5.5942   55.1156   18.8584 O.3       1 UNK         0.0000 
      9 C9          4.4726   54.3862   18.6234 C.2       1 UNK         0.0000 
     10 C10         3.8026   53.6072   19.5159 C.2       1 UNK         0.0000 
     11 C11         4.2342   53.4270   21.0080 C.3       1 UNK         0.0000 
     12 C12         4.4705   51.9220   21.2818 C.3       1 UNK         0.0000 
     13 C13         3.1830   51.0507   21.3914 C.3       1 UNK         0.0000 
     14 N14         2.1617   51.7066   22.2424 N.am      1 UNK         0.0000 
     15 C15         1.8637   53.1453   22.0824 C.3       1 UNK         0.0000 
     16 C16         3.1853   53.9181   22.0372 C.3       1 UNK         0.0000 
     17 C17         1.4945   50.9217   23.2005 C.2       1 UNK         0.0000 
     18 O18         1.5795   49.6968   23.2838 O.2       1 UNK         0.0000 
     19 O19         0.7374   51.6657   24.0521 O.3       1 UNK         0.0000 
     20 C20         0.1028   51.0959   25.1995 C.3       1 UNK         0.0000 
     21 C21         0.4945   51.8109   26.4963 C.ar      1 UNK         0.0000 
     22 C22        -0.1204   51.4025   27.6846 C.ar      1 UNK         0.0000 
     23 C23         0.1980   52.0286   28.8882 C.ar      1 UNK         0.0000 
     24 C24         1.1353   53.0600   28.9026 C.ar      1 UNK         0.0000 
     25 C25         1.7608   53.4692   27.7262 C.ar      1 UNK         0.0000 
     26 C26         1.4399   52.8454   26.5221 C.ar      1 UNK         0.0000 
     27 C27         2.6596   52.8968   19.0257 C.1       1 UNK         0.0000 
     28 N28         1.7251   52.3617   18.5987 N.1       1 UNK         0.0000 
     29 N29         4.1572   54.5661   17.3049 N.pl3     1 UNK         0.0000 
     30 H30         5.6423   53.3308   23.8647 H         1 UNK         0.0000 
     31 H31         7.3003   53.8391   24.0491 H         1 UNK         0.0000 
     32 H32         5.9963   54.9663   24.3824 H         1 UNK         0.0000 
     33 H33         5.1050   51.4997   20.5006 H         1 UNK         0.0000 
     34 H34         5.0652   51.8092   22.1837 H         1 UNK         0.0000 
     35 H35         2.7440   50.7533   20.4384 H         1 UNK         0.0000 
     36 H36         3.5043   50.1207   21.8640 H         1 UNK         0.0000 
     37 H37         1.2247   53.2954   21.2126 H         1 UNK         0.0000 
     38 H38         1.3244   53.5565   22.9344 H         1 UNK         0.0000 
     39 H39         3.6040   53.8972   23.0419 H         1 UNK         0.0000 
     40 H40         2.9669   54.9675   21.8542 H         1 UNK         0.0000 
     41 H41        -0.9767   51.1912   25.0686 H         1 UNK         0.0000 
     42 H42         0.3165   50.0303   25.3153 H         1 UNK         0.0000 
     43 H43        -0.8444   50.5976   27.6818 H         1 UNK         0.0000 
     44 H44        -0.2810   51.7116   29.8046 H         1 UNK         0.0000 
     45 H45         1.3793   53.5463   29.8366 H         1 UNK         0.0000 
     46 H46         2.4897   54.2666   27.7448 H         1 UNK         0.0000 
     47 H47         1.9326   53.1708   25.6168 H         1 UNK         0.0000 
     48 H48         3.3712   54.0827   16.8946 H         1 UNK         0.0000 
     49 H49         4.8179   55.0082   16.6817 H         1 UNK         0.0000 
@<TRIPOS>BOND
     1    1    2 1    
     2    1   30 1    
     3    1   31 1    
     4    1   32 1    
     5    2    7 ar   
     6    2    3 ar   
     7    3   11 1    
     8    3    4 ar   
     9    4    5 ar   
    10    4    8 1    
    11    5    6 1    
    12    5    7 ar   
    13    8    9 1    
    14    9   10 2    
    15    9   29 1    
    16   10   11 1    
    17   10   27 1    
    18   11   16 1    
    19   11   12 1    
    20   12   13 1    
    21   12   33 1    
    22   12   34 1    
    23   13   14 1    
    24   13   35 1    
    25   13   36 1    
    26   14   15 1    
    27   14   17 am   BACKBONE|DICT|INTERRES
    28   15   16 1    
    29   15   37 1    
    30   15   38 1    
    31   16   39 1    
    32   16   40 1    
    33   17   18 2    
    34   17   19 1    
    35   19   20 1    
    36   20   21 1    
    37   20   41 1    
    38   20   42 1    
    39   21   26 ar   
    40   21   22 ar   
    41   22   23 ar   
    42   22   43 1    
    43   23   24 ar   
    44   23   44 1    
    45   24   25 ar   
    46   24   45 1    
    47   25   26 ar   
    48   25   46 1    
    49   26   47 1    
    50   27   28 3    
    51   29   48 1    
    52   29   49 1    
@<TRIPOS>SUBSTRUCTURE
     1 UNK         1 GROUP             0       ****    0 ROOT    
