@<TRIPOS>MOLECULE
ZINC33009807_3428
54   57    1
SMALL
USER_CHARGES


@<TRIPOS>ATOM
      1 C1         -0.5555   48.0745   20.2898 C.ar      1 UNK         0.0000 
      2 C2          0.3572   49.1294   20.3005 C.ar      1 UNK         0.0000 
      3 C3          1.3994   49.1763   19.3573 C.ar      1 UNK         0.0000 
      4 C4          1.5077   48.1481   18.4143 C.ar      1 UNK         0.0000 
      5 C5          0.5943   47.0930   18.4078 C.ar      1 UNK         0.0000 
      6 C6         -0.4372   47.0566   19.3450 C.ar      1 UNK         0.0000 
      7 Br7         0.7492   45.7015   17.1184 Br        1 UNK         0.0000 
      8 N8          2.3773   50.1857   19.2869 N.am      1 UNK         0.0000 
      9 C9          2.5489   51.2753   20.0619 C.2       1 UNK         0.0000 
     10 O10         1.7934   51.6472   20.9609 O.2       1 UNK         0.0000 
     11 N11         3.7039   51.8830   19.7349 N.am      1 UNK         0.0000 
     12 C12         4.3577   52.9608   20.3668 C.ar      1 UNK         0.0000 
     13 C13         4.2827   53.0976   21.7610 C.ar      1 UNK         0.0000 
     14 C14         5.0374   54.0519   22.4383 C.ar      1 UNK         0.0000 
     15 C15         5.8756   54.8969   21.7076 C.ar      1 UNK         0.0000 
     16 C16         5.9052   54.8162   20.3179 C.ar      1 UNK         0.0000 
     17 C17         5.1433   53.8694   19.6119 C.ar      1 UNK         0.0000 
     18 N18         5.2266   53.8584   18.2003 N.pl3     1 UNK         0.0000 
     19 C19         6.1630   54.6427   17.3886 C.3       1 UNK         0.0000 
     20 C20         5.9910   54.2167   15.9365 C.3       1 UNK         0.0000 
     21 C21         4.5131   53.9053   15.8794 C.3       1 UNK         0.0000 
     22 C22         4.2506   53.2966   17.2553 C.3       1 UNK         0.0000 
     23 N23         4.8680   54.0947   23.8306 N.am      1 UNK         0.0000 
     24 C24         5.6198   54.6748   24.7886 C.2       1 UNK         0.0000 
     25 O25         6.6724   55.2852   24.5905 O.2       1 UNK         0.0000 
     26 C26         5.0900   54.4973   26.1933 C.ar      1 UNK         0.0000 
     27 C27         3.7213   54.2909   26.4448 C.ar      1 UNK         0.0000 
     28 C28         3.2561   54.1484   27.7496 C.ar      1 UNK         0.0000 
     29 C29         4.1499   54.2198   28.8125 C.ar      1 UNK         0.0000 
     30 C30         5.5044   54.4268   28.5757 C.ar      1 UNK         0.0000 
     31 C31         5.9762   54.5583   27.2753 C.ar      1 UNK         0.0000 
     32 F32         3.6984   54.0952   30.0813 F         1 UNK         0.0000 
     33 H33        -1.3541   48.0471   21.0167 H         1 UNK         0.0000 
     34 H34         0.2309   49.8920   21.0519 H         1 UNK         0.0000 
     35 H35         2.3045   48.1621   17.6815 H         1 UNK         0.0000 
     36 H36        -1.1451   46.2412   19.3378 H         1 UNK         0.0000 
     37 H37         3.0714   50.0423   18.5634 H         1 UNK         0.0000 
     38 H38         4.1565   51.5651   18.8834 H         1 UNK         0.0000 
     39 H39         3.6686   52.4199   22.3353 H         1 UNK         0.0000 
     40 H40         6.4768   55.6508   22.1923 H         1 UNK         0.0000 
     41 H41         6.5382   55.5145   19.7921 H         1 UNK         0.0000 
     42 H42         5.9846   55.7119   17.5151 H         1 UNK         0.0000 
     43 H43         7.1798   54.4354   17.7248 H         1 UNK         0.0000 
     44 H44         6.2781   55.0045   15.2393 H         1 UNK         0.0000 
     45 H45         6.6079   53.3439   15.7152 H         1 UNK         0.0000 
     46 H46         4.2680   53.2145   15.0717 H         1 UNK         0.0000 
     47 H47         3.9140   54.8061   15.7346 H         1 UNK         0.0000 
     48 H48         4.3140   52.2094   17.1900 H         1 UNK         0.0000 
     49 H49         3.2472   53.5961   17.5617 H         1 UNK         0.0000 
     50 H50         4.0848   53.5593   24.1700 H         1 UNK         0.0000 
     51 H51         2.9981   54.2522   25.6428 H         1 UNK         0.0000 
     52 H52         2.2044   53.9921   27.9389 H         1 UNK         0.0000 
     53 H53         6.1997   54.4968   29.3964 H         1 UNK         0.0000 
     54 H54         7.0340   54.7194   27.1221 H         1 UNK         0.0000 
@<TRIPOS>BOND
     1    1    6 ar   
     2    1    2 ar   
     3    1   33 1    
     4    2    3 ar   
     5    2   34 1    
     6    3    4 ar   
     7    3    8 1    
     8    4    5 ar   
     9    4   35 1    
    10    5    6 ar   
    11    5    7 1    
    12    6   36 1    
    13    8    9 am   BACKBONE|DICT|INTERRES
    14    8   37 1    
    15    9   10 2    
    16    9   11 am   BACKBONE|DICT|INTERRES
    17   11   12 1    
    18   11   38 1    
    19   12   17 ar   
    20   12   13 ar   
    21   13   14 ar   
    22   13   39 1    
    23   14   15 ar   
    24   14   23 1    
    25   15   16 ar   
    26   15   40 1    
    27   16   17 ar   
    28   16   41 1    
    29   17   18 1    
    30   18   22 1    
    31   18   19 1    
    32   19   20 1    
    33   19   42 1    
    34   19   43 1    
    35   20   21 1    
    36   20   44 1    
    37   20   45 1    
    38   21   22 1    
    39   21   46 1    
    40   21   47 1    
    41   22   48 1    
    42   22   49 1    
    43   23   24 am   BACKBONE|DICT|INTERRES
    44   23   50 1    
    45   24   25 2    
    46   24   26 1    
    47   26   31 ar   
    48   26   27 ar   
    49   27   28 ar   
    50   27   51 1    
    51   28   29 ar   
    52   28   52 1    
    53   29   30 ar   
    54   29   32 1    
    55   30   31 ar   
    56   30   53 1    
    57   31   54 1    
@<TRIPOS>SUBSTRUCTURE
     1 UNK         1 GROUP             0       ****    0 ROOT    
