ZINC08132043_1421
                    3D
 Schrodinger Suite 2024-2.
 48 52  0  0  1  0            999 V2000
   -4.0005   51.9091   24.2688 C   0  0  0  0  0  0
   -3.4199   52.4943   25.3881 C   0  0  0  0  0  0
   -2.0356   52.4964   25.5250 C   0  0  0  0  0  0
   -1.2097   51.9166   24.5475 C   0  0  0  0  0  0
   -1.8216   51.3486   23.4163 C   0  0  0  0  0  0
   -3.2068   51.3364   23.2814 C   0  0  0  0  0  0
    0.3425   51.8902   24.7034 C   0  0  0  0  0  0
    0.9473   52.8909   23.7159 C   0  0  0  0  0  0
    0.7051   54.0965   23.6815 O   0  0  0  0  0  0
    1.8220   52.1924   22.9610 N   0  0  0  0  0  0
    1.7178   50.8499   23.1022 C   0  0  0  0  0  0
    2.1680   49.9685   22.3732 O   0  0  0  0  0  0
    0.9248   50.6788   24.1666 N   0  0  0  0  0  0
    2.6708   52.7739   21.9986 N   0  0  0  0  0  0
    3.7818   53.4579   22.3665 C   0  0  0  0  0  0
    4.0706   53.6972   23.5428 O   0  0  0  0  0  0
    4.6847   53.9368   21.2486 C   0  0  0  0  0  0
    4.5738   53.4201   19.9335 C   0  0  0  0  0  0
    5.4314   53.8429   18.9084 C   0  0  0  0  0  0
    6.4000   54.7852   19.2263 C   0  0  0  0  0  0
    6.5181   55.2970   20.4856 C   0  0  0  0  0  0
    5.6843   54.8946   21.5219 C   0  0  0  0  0  0
    7.5389   56.1913   20.5103 O   0  0  0  0  0  0
    8.2126   56.0180   19.2923 C   0  0  0  0  0  0
    7.3445   55.3423   18.4244 O   0  0  0  0  0  0
    0.8449   52.0966   26.1675 C   0  0  0  0  0  0
    0.2900   51.3042   27.1839 C   0  0  0  0  0  0
    0.6473   51.4951   28.5133 C   0  0  0  0  0  0
    1.6007   52.4492   28.8489 C   0  0  0  0  0  0
    2.1969   53.2207   27.8571 C   0  0  0  0  0  0
    1.8215   53.0489   26.5281 C   0  0  0  0  0  0
   -5.0761   51.8997   24.1649 H   0  0  0  0  0  0
   -4.0413   52.9391   26.1506 H   0  0  0  0  0  0
   -1.6146   52.9607   26.4035 H   0  0  0  0  0  0
   -1.2248   50.8965   22.6382 H   0  0  0  0  0  0
   -3.6645   50.8836   22.4126 H   0  0  0  0  0  0
    0.9678   49.8446   24.7354 H   0  0  0  0  0  0
    2.3391   52.6743   21.0502 H   0  0  0  0  0  0
    3.8381   52.6696   19.6827 H   0  0  0  0  0  0
    5.3460   53.4282   17.9143 H   0  0  0  0  0  0
    5.8196   55.2966   22.5153 H   0  0  0  0  0  0
    8.5200   56.9754   18.8721 H   0  0  0  0  0  0
    9.1030   55.4074   19.4590 H   0  0  0  0  0  0
   -0.4524   50.5504   26.9509 H   0  0  0  0  0  0
    0.1808   50.8973   29.2819 H   0  0  0  0  0  0
    1.8771   52.5892   29.8839 H   0  0  0  0  0  0
    2.9417   53.9585   28.1188 H   0  0  0  0  0  0
    2.3077   53.6741   25.7938 H   0  0  0  0  0  0
  1  6  2  0  0  0
  1  2  1  0  0  0
  1 32  1  0  0  0
  2  3  2  0  0  0
  2 33  1  0  0  0
  3  4  1  0  0  0
  3 34  1  0  0  0
  4  5  2  0  0  0
  4  7  1  0  0  0
  5  6  1  0  0  0
  5 35  1  0  0  0
  6 36  1  0  0  0
  7 13  1  0  0  0
  7  8  1  0  0  0
  7 26  1  0  0  0
  8  9  2  0  0  0
  8 10  1  0  0  0
 10 11  1  0  0  0
 10 14  1  0  0  0
 11 12  2  0  0  0
 11 13  1  0  0  0
 13 37  1  0  0  0
 14 15  1  0  0  0
 14 38  1  0  0  0
 15 16  2  0  0  0
 15 17  1  0  0  0
 17 22  2  0  0  0
 17 18  1  0  0  0
 18 19  2  0  0  0
 18 39  1  0  0  0
 19 20  1  0  0  0
 19 40  1  0  0  0
 20 25  1  0  0  0
 20 21  2  0  0  0
 21 22  1  0  0  0
 21 23  1  0  0  0
 22 41  1  0  0  0
 23 24  1  0  0  0
 24 25  1  0  0  0
 24 42  1  0  0  0
 24 43  1  0  0  0
 26 31  2  0  0  0
 26 27  1  0  0  0
 27 28  2  0  0  0
 27 44  1  0  0  0
 28 29  1  0  0  0
 28 45  1  0  0  0
 29 30  2  0  0  0
 29 46  1  0  0  0
 30 31  1  0  0  0
 30 47  1  0  0  0
 31 48  1  0  0  0
M  END
> <i_i_glide_confnum>
75

> <i_i_glide_lignum>
1422

> <i_i_glide_posenum>
295

> <i_i_glide_rotatable_bonds>
5

> <i_m_Source_File_Index>
997

> <b_m_subgroup_collapsed>
0

> <r_i_docking_score>
-4.80522

> <r_i_glide_ecoul>
-3.65527

> <r_i_glide_eff_state_penalty>
0

> <r_i_glide_einternal>
2.65418

> <r_i_glide_emodel>
-57.0832

> <r_i_glide_energy>
-43.265

> <r_i_glide_erotb>
0.572175

> <r_i_glide_esite>
0

> <r_i_glide_evdw>
-39.6098

> <r_i_glide_gscore>
-4.80522

> <r_i_glide_hbond>
-0.13266

> <r_i_glide_ligand_efficiency>
-0.155007

> <r_i_glide_ligand_efficiency_ln>
-1.08372

> <r_i_glide_ligand_efficiency_sa>
-0.486936

> <r_i_glide_lipo>
-1.30852

> <r_i_glide_metal>
0

> <r_i_glide_rewards>
-1.40743

> <s_i_glide_gridfile>
wee1_glide-grid

> <s_m_Source_File>
wee1_decoys_glide_SP.sdf

> <s_m_Source_Path>
/Users/zhangxujun/Desktop

> <s_m_entry_id>
1272

> <s_m_entry_name>
wee1_decoys_glide_SP.997

> <s_m_subgroup_title>
wee1_decoys_glide_SP

> <s_m_subgroupid>
wee1_decoys_glide_SP


$$$$
