@<TRIPOS>MOLECULE
ZINC01389174_5727
54   57    1
SMALL
USER_CHARGES


@<TRIPOS>ATOM
      1 C1         -3.3998   46.5663   27.2267 C.3       1 UNK         0.0000 
      2 C2         -3.3461   46.1973   25.7486 C.2       1 UNK         0.0000 
      3 O3         -4.0962   45.3077   25.3362 O.2       1 UNK         0.0000 
      4 C4         -2.3827   46.8805   24.8806 C.2       1 UNK         0.0000 
      5 C5         -1.3493   47.7319   25.2817 C.2       1 UNK         0.0000 
      6 C6         -0.6981   48.1039   24.1299 C.2       1 UNK         0.0000 
      7 O7         -1.3103   47.4952   23.0850 O.3       1 UNK         0.0000 
      8 N8         -2.3734   46.7308   23.5700 N.2       1 UNK         0.0000 
      9 C9          0.4957   48.9743   23.8202 C.3       1 UNK         0.0000 
     10 N10         0.0978   50.1107   22.9476 N.pl3     1 UNK         0.0000 
     11 N11         0.9698   50.3800   21.8603 N.pl3     1 UNK         0.0000 
     12 C12         2.3071   50.8061   22.2926 C.3       1 UNK         0.0000 
     13 C13         0.8057   49.5576   20.7142 C.ar      1 UNK         0.0000 
     14 C14        -0.4385   49.3249   20.0833 C.ar      1 UNK         0.0000 
     15 C15        -0.4742   48.5192   18.9409 C.ar      1 UNK         0.0000 
     16 C16         0.7063   47.9845   18.4124 C.ar      1 UNK         0.0000 
     17 C17         1.9035   48.2888   19.0626 C.ar      1 UNK         0.0000 
     18 N18         1.9558   49.0484   20.1820 N.ar      1 UNK         0.0000 
     19 C19         0.6702   47.0973   17.1720 C.3       1 UNK         0.0000 
     20 F20         0.3541   47.8355   16.1076 F         1 UNK         0.0000 
     21 F21        -0.2553   46.1486   17.3235 F         1 UNK         0.0000 
     22 F22         1.8403   46.4971   16.9455 F         1 UNK         0.0000 
     23 Cl23       -1.9340   50.0073   20.6326 Cl        1 UNK         0.0000 
     24 S24        -0.8322   51.4614   23.6646 S.o2      1 UNK         0.0000 
     25 O25        -1.0194   52.4966   22.6400 O.2       1 UNK         0.0000 
     26 O26        -1.9976   50.8924   24.3513 O.2       1 UNK         0.0000 
     27 C27         0.2199   52.1681   24.9356 C.ar      1 UNK         0.0000 
     28 C28         1.1300   53.1719   24.6057 C.ar      1 UNK         0.0000 
     29 C29         1.9894   53.6967   25.5659 C.ar      1 UNK         0.0000 
     30 C30         1.9219   53.2483   26.9086 C.ar      1 UNK         0.0000 
     31 C31         2.7691   53.7759   27.9151 C.ar      1 UNK         0.0000 
     32 C32         2.6683   53.3217   29.2281 C.ar      1 UNK         0.0000 
     33 C33         1.7336   52.3502   29.5718 C.ar      1 UNK         0.0000 
     34 C34         0.8957   51.8002   28.6034 C.ar      1 UNK         0.0000 
     35 C35         0.9733   52.2382   27.2569 C.ar      1 UNK         0.0000 
     36 C36         0.1352   51.6994   26.2481 C.ar      1 UNK         0.0000 
     37 H37        -2.4790   46.2664   27.7268 H         1 UNK         0.0000 
     38 H38        -3.5076   47.6453   27.3431 H         1 UNK         0.0000 
     39 H39        -4.2383   46.0769   27.7201 H         1 UNK         0.0000 
     40 H40        -1.0919   48.0286   26.2887 H         1 UNK         0.0000 
     41 H41         1.2315   48.3800   23.2861 H         1 UNK         0.0000 
     42 H42         0.9868   49.3576   24.7138 H         1 UNK         0.0000 
     43 H43         2.8578   51.2366   21.4534 H         1 UNK         0.0000 
     44 H44         2.2782   51.5576   23.0744 H         1 UNK         0.0000 
     45 H45         2.8829   49.9575   22.6676 H         1 UNK         0.0000 
     46 H46        -1.4208   48.3234   18.4546 H         1 UNK         0.0000 
     47 H47         2.8580   47.9409   18.6842 H         1 UNK         0.0000 
     48 H48         1.1855   53.5412   23.5915 H         1 UNK         0.0000 
     49 H49         2.7050   54.4587   25.2929 H         1 UNK         0.0000 
     50 H50         3.4956   54.5332   27.6592 H         1 UNK         0.0000 
     51 H51         3.3226   53.7302   29.9846 H         1 UNK         0.0000 
     52 H52         1.6562   52.0155   30.5970 H         1 UNK         0.0000 
     53 H53         0.1765   51.0395   28.8768 H         1 UNK         0.0000 
     54 H54        -0.5730   50.9253   26.5125 H         1 UNK         0.0000 
@<TRIPOS>BOND
     1    1    2 1    
     2    1   37 1    
     3    1   38 1    
     4    1   39 1    
     5    2    3 2    
     6    2    4 1    
     7    4    8 2    
     8    4    5 1    
     9    5    6 2    
    10    5   40 1    
    11    6    7 1    
    12    6    9 1    
    13    7    8 1    
    14    9   10 1    
    15    9   41 1    
    16    9   42 1    
    17   10   11 1    
    18   10   24 1    
    19   11   12 1    
    20   11   13 1    
    21   12   43 1    
    22   12   44 1    
    23   12   45 1    
    24   13   18 ar   
    25   13   14 ar   
    26   14   15 ar   
    27   14   23 1    
    28   15   16 ar   
    29   15   46 1    
    30   16   17 ar   
    31   16   19 1    
    32   17   18 ar   
    33   17   47 1    
    34   19   20 1    
    35   19   21 1    
    36   19   22 1    
    37   24   25 2    
    38   24   26 2    
    39   24   27 1    
    40   27   36 ar   
    41   27   28 ar   
    42   28   29 ar   
    43   28   48 1    
    44   29   30 ar   
    45   29   49 1    
    46   30   35 ar   
    47   30   31 ar   
    48   31   32 ar   
    49   31   50 1    
    50   32   33 ar   
    51   32   51 1    
    52   33   34 ar   
    53   33   52 1    
    54   34   35 ar   
    55   34   53 1    
    56   35   36 ar   
    57   36   54 1    
@<TRIPOS>SUBSTRUCTURE
     1 UNK         1 GROUP             0       ****    0 ROOT    
