ZINC09375412_3723
                    3D
 Schrodinger Suite 2024-2.
 56 59  0  0  1  0            999 V2000
    1.5669   53.1515   23.6265 C   0  0  0  0  0  0
    2.1638   53.3834   25.0130 C   0  0  0  0  0  0
    1.7187   52.8969   26.2139 C   0  0  0  0  0  0
    2.5417   53.1021   27.5238 C   0  0  1  0  0  0
    2.9868   52.1306   27.7482 H   0  0  0  0  0  0
    3.7330   54.0451   27.2765 C   0  0  0  0  0  0
    4.1039   54.4262   26.0397 C   0  0  0  0  0  0
    3.3489   54.0860   24.9454 N   0  0  0  0  0  0
    5.5435   55.4119   25.6624 S   0  0  0  0  0  0
    6.5162   54.3335   24.5748 C   0  0  0  0  0  0
    6.1720   54.4960   23.0974 C   0  0  0  0  0  0
    5.1056   54.0482   22.6761 O   0  0  0  0  0  0
    7.1043   55.1191   22.3486 N   0  0  0  0  0  0
    7.0732   55.4173   20.9755 C   0  0  0  0  0  0
    5.9050   55.4567   20.2003 C   0  0  0  0  0  0
    5.9776   55.7641   18.8435 C   0  0  0  0  0  0
    7.2127   56.0326   18.2608 C   0  0  0  0  0  0
    8.3761   55.9989   19.0242 C   0  0  0  0  0  0
    8.3043   55.6966   20.3797 C   0  0  0  0  0  0
    7.2821   56.3318   16.9450 F   0  0  0  0  0  0
    4.4943   54.4925   28.3932 C   0  0  0  0  0  0
    5.1042   54.8964   29.2826 N   0  0  0  0  0  0
    1.7326   53.5515   28.7429 C   0  0  0  0  0  0
    1.4170   54.7854   29.3031 C   0  0  0  0  0  0
    0.7029   54.5339   30.4756 C   0  0  0  0  0  0
    0.5889   53.1590   30.5745 C   0  0  0  0  0  0
    1.2253   52.5664   29.5322 O   0  0  0  0  0  0
    0.5443   52.0459   26.3499 C   0  0  0  0  0  0
    0.5858   51.0319   27.0424 O   0  0  0  0  0  0
   -0.5596   52.4930   25.7113 N   0  0  0  0  0  0
   -1.8612   51.9552   25.6881 C   0  0  0  0  0  0
   -2.7374   52.5124   24.7535 C   0  0  0  0  0  0
   -4.0543   52.0658   24.6710 C   0  0  0  0  0  0
   -4.4961   51.0571   25.5235 C   0  0  0  0  0  0
   -3.6344   50.4953   26.4606 C   0  0  0  0  0  0
   -2.3183   50.9404   26.5464 C   0  0  0  0  0  0
   -5.7744   50.6261   25.4441 F   0  0  0  0  0  0
    1.0121   54.0342   23.3060 H   0  0  0  0  0  0
    2.3519   52.9624   22.8912 H   0  0  0  0  0  0
    0.9053   52.2869   23.5852 H   0  0  0  0  0  0
    3.7308   54.2873   24.0282 H   0  0  0  0  0  0
    6.3785   53.2970   24.8743 H   0  0  0  0  0  0
    7.5649   54.5678   24.7384 H   0  0  0  0  0  0
    7.9904   55.3062   22.8061 H   0  0  0  0  0  0
    4.9332   55.2622   20.6236 H   0  0  0  0  0  0
    5.0791   55.7942   18.2449 H   0  0  0  0  0  0
    9.3316   56.2058   18.5659 H   0  0  0  0  0  0
    9.2166   55.6776   20.9580 H   0  0  0  0  0  0
    1.6949   55.7530   28.9122 H   0  0  0  0  0  0
    0.3101   55.2664   31.1661 H   0  0  0  0  0  0
    0.1202   52.4986   31.2928 H   0  0  0  0  0  0
   -0.4226   53.3111   25.1411 H   0  0  0  0  0  0
   -2.4054   53.2955   24.0884 H   0  0  0  0  0  0
   -4.7346   52.4969   23.9526 H   0  0  0  0  0  0
   -3.9777   49.7114   27.1202 H   0  0  0  0  0  0
   -1.6875   50.4875   27.2949 H   0  0  0  0  0  0
  1  2  1  0  0  0
  1 38  1  0  0  0
  1 39  1  0  0  0
  1 40  1  0  0  0
  2  8  1  0  0  0
  2  3  2  0  0  0
  3  4  1  0  0  0
  3 28  1  0  0  0
  4  5  1  0  0  0
  4  6  1  0  0  0
  4 23  1  0  0  0
  6  7  2  0  0  0
  6 21  1  0  0  0
  7  8  1  0  0  0
  7  9  1  0  0  0
  8 41  1  0  0  0
  9 10  1  0  0  0
 10 11  1  0  0  0
 10 42  1  0  0  0
 10 43  1  0  0  0
 11 12  2  0  0  0
 11 13  1  0  0  0
 13 14  1  0  0  0
 13 44  1  0  0  0
 14 19  2  0  0  0
 14 15  1  0  0  0
 15 16  2  0  0  0
 15 45  1  0  0  0
 16 17  1  0  0  0
 16 46  1  0  0  0
 17 18  2  0  0  0
 17 20  1  0  0  0
 18 19  1  0  0  0
 18 47  1  0  0  0
 19 48  1  0  0  0
 21 22  3  0  0  0
 23 27  1  0  0  0
 23 24  2  0  0  0
 24 25  1  0  0  0
 24 49  1  0  0  0
 25 26  2  0  0  0
 25 50  1  0  0  0
 26 27  1  0  0  0
 26 51  1  0  0  0
 28 29  2  0  0  0
 28 30  1  0  0  0
 30 31  1  0  0  0
 30 52  1  0  0  0
 31 36  2  0  0  0
 31 32  1  0  0  0
 32 33  2  0  0  0
 32 53  1  0  0  0
 33 34  1  0  0  0
 33 54  1  0  0  0
 34 35  2  0  0  0
 34 37  1  0  0  0
 35 36  1  0  0  0
 35 55  1  0  0  0
 36 56  1  0  0  0
M  END
> <i_i_glide_confnum>
163

> <i_i_glide_lignum>
3724

> <i_i_glide_posenum>
357

> <i_i_glide_rotatable_bonds>
10

> <i_m_Source_File_Index>
2851

> <b_m_subgroup_collapsed>
0

> <r_i_docking_score>
-6.94273

> <r_i_glide_ecoul>
-4.00791

> <r_i_glide_eff_state_penalty>
0

> <r_i_glide_einternal>
8.74233

> <r_i_glide_emodel>
-74.3426

> <r_i_glide_energy>
-55.1416

> <r_i_glide_erotb>
0.63798

> <r_i_glide_esite>
-0.00328271

> <r_i_glide_evdw>
-51.1337

> <r_i_glide_gscore>
-6.94273

> <r_i_glide_hbond>
-0.32

> <r_i_glide_ligand_efficiency>
-0.192854

> <r_i_glide_ligand_efficiency_ln>
-1.51472

> <r_i_glide_ligand_efficiency_sa>
-0.636789

> <r_i_glide_lipo>
-3.25333

> <r_i_glide_metal>
0

> <r_i_glide_rewards>
-0.846222

> <s_i_glide_gridfile>
wee1_glide-grid

> <s_m_Source_File>
wee1_decoys_glide_SP.sdf

> <s_m_Source_Path>
/Users/zhangxujun/Desktop

> <s_m_entry_id>
3126

> <s_m_entry_name>
wee1_decoys_glide_SP.2851

> <s_m_subgroup_title>
wee1_decoys_glide_SP

> <s_m_subgroupid>
wee1_decoys_glide_SP


$$$$
