@<TRIPOS>MOLECULE
ZINC00293762_1569
33   34    1
SMALL
USER_CHARGES


@<TRIPOS>ATOM
      1 C1         -0.3623   51.6965   28.9532 C.ar      1 UNK         0.0000 
      2 C2          0.0854   52.5042   29.9954 C.ar      1 UNK         0.0000 
      3 C3          1.2956   53.1800   29.8706 C.ar      1 UNK         0.0000 
      4 C4          2.0635   53.0286   28.7105 C.ar      1 UNK         0.0000 
      5 C5          1.6146   52.2080   27.6768 C.ar      1 UNK         0.0000 
      6 C6          0.3981   51.5415   27.7961 C.ar      1 UNK         0.0000 
      7 S7          3.6300   53.8875   28.5448 S.o2      1 UNK         0.0000 
      8 O8          4.6774   52.8971   28.2845 O.2       1 UNK         0.0000 
      9 O9          3.7308   54.8079   29.6814 O.2       1 UNK         0.0000 
     10 N10         3.4847   54.8949   27.1005 N.pl3     1 UNK         0.0000 
     11 C11         3.7085   54.4319   25.7994 C.ar      1 UNK         0.0000 
     12 C12         2.6296   54.0914   24.9846 C.ar      1 UNK         0.0000 
     13 C13         2.8350   53.7556   23.6499 C.ar      1 UNK         0.0000 
     14 C14         4.1294   53.7638   23.1077 C.ar      1 UNK         0.0000 
     15 C15         5.2099   54.0975   23.9385 C.ar      1 UNK         0.0000 
     16 C16         5.0013   54.4224   25.2787 C.ar      1 UNK         0.0000 
     17 C17         4.3696   53.4566   21.6451 C.2       1 UNK         0.0000 
     18 O18         5.3508   53.9317   21.0659 O.2       1 UNK         0.0000 
     19 N19         3.4758   52.6325   21.0557 N.am      1 UNK         0.0000 
     20 N20         3.5150   52.3882   19.6743 N.3       1 UNK         0.0000 
     21 H21        -1.2952   51.1588   29.0545 H         1 UNK         0.0000 
     22 H22        -0.4973   52.5969   30.9017 H         1 UNK         0.0000 
     23 H23         1.6267   53.8095   30.6815 H         1 UNK         0.0000 
     24 H24         2.2117   52.0968   26.7854 H         1 UNK         0.0000 
     25 H25         0.0479   50.8949   27.0043 H         1 UNK         0.0000 
     26 H26         2.9247   55.7249   27.2125 H         1 UNK         0.0000 
     27 H27         1.6231   54.0976   25.3775 H         1 UNK         0.0000 
     28 H28         1.9724   53.5214   23.0426 H         1 UNK         0.0000 
     29 H29         6.2191   54.1156   23.5495 H         1 UNK         0.0000 
     30 H30         5.8389   54.6928   25.9043 H         1 UNK         0.0000 
     31 H31         2.5940   52.3922   21.4842 H         1 UNK         0.0000 
     32 H32         3.8533   53.2273   19.2206 H         1 UNK         0.0000 
     33 H33         4.1799   51.6439   19.4794 H         1 UNK         0.0000 
@<TRIPOS>BOND
     1    1    6 ar   
     2    1    2 ar   
     3    1   21 1    
     4    2    3 ar   
     5    2   22 1    
     6    3    4 ar   
     7    3   23 1    
     8    4    5 ar   
     9    4    7 1    
    10    5    6 ar   
    11    5   24 1    
    12    6   25 1    
    13    7    8 2    
    14    7    9 2    
    15    7   10 1    
    16   10   11 1    
    17   10   26 1    
    18   11   16 ar   
    19   11   12 ar   
    20   12   13 ar   
    21   12   27 1    
    22   13   14 ar   
    23   13   28 1    
    24   14   15 ar   
    25   14   17 1    
    26   15   16 ar   
    27   15   29 1    
    28   16   30 1    
    29   17   18 2    
    30   17   19 am   BACKBONE|DICT|INTERRES
    31   19   20 1    
    32   19   31 1    
    33   20   32 1    
    34   20   33 1    
@<TRIPOS>SUBSTRUCTURE
     1 UNK         1 GROUP             0       ****    0 ROOT    
