ZINC42272457_1592
                    3D
 Schrodinger Suite 2024-2.
 36 37  0  0  1  0            999 V2000
   -1.8308   50.9043   26.0012 C   0  0  0  0  0  0
   -3.2095   50.7509   26.1490 C   0  0  0  0  0  0
   -4.0730   51.6321   25.4896 C   0  0  0  0  0  0
   -3.5503   52.6358   24.6750 C   0  0  0  0  0  0
   -2.1704   52.7873   24.5306 C   0  0  0  0  0  0
   -1.2936   51.9474   25.2349 C   0  0  0  0  0  0
    0.5022   52.0944   25.1091 S   0  0  0  0  0  0
    0.8125   53.3015   24.3347 O   0  0  0  0  0  0
    0.9453   50.7793   24.6350 O   0  0  0  0  0  0
    1.1374   52.3302   26.7690 N   0  0  0  0  0  0
    0.9857   51.2661   27.7941 C   0  0  0  0  0  0
    0.0184   51.6968   28.9199 C   0  0  0  0  0  0
    0.4682   53.0247   29.5656 C   0  0  0  0  0  0
    0.6621   54.1100   28.4830 C   0  0  0  0  0  0
    1.5500   53.6735   27.2818 C   0  0  1  0  0  0
    1.5044   54.3852   26.4614 H   0  0  0  0  0  0
    3.0608   53.6221   27.6240 C   0  0  0  0  0  0
    3.4757   53.1959   28.7005 O   0  0  0  0  0  0
    3.9209   54.0231   26.6856 N   0  0  0  0  0  0
   -1.7165   53.7368   23.6823 F   0  0  0  0  0  0
   -5.4159   51.5142   25.6159 F   0  0  0  0  0  0
   -3.6957   49.7167   26.9546 N   0  0  0  0  0  0
   -1.1864   50.1872   26.4825 H   0  0  0  0  0  0
   -4.2205   53.2921   24.1408 H   0  0  0  0  0  0
    1.9719   51.0263   28.1897 H   0  0  0  0  0  0
    0.6535   50.3509   27.3092 H   0  0  0  0  0  0
   -0.0608   50.9180   29.6790 H   0  0  0  0  0  0
   -0.9898   51.8037   28.5202 H   0  0  0  0  0  0
    1.3912   52.8717   30.1265 H   0  0  0  0  0  0
   -0.2744   53.3495   30.2966 H   0  0  0  0  0  0
    0.9775   55.0715   28.8934 H   0  0  0  0  0  0
   -0.3375   54.2814   28.0819 H   0  0  0  0  0  0
    3.6008   54.3007   25.7695 H   0  0  0  0  0  0
    4.9085   53.9689   26.8810 H   0  0  0  0  0  0
   -4.6875   49.6504   27.1368 H   0  0  0  0  0  0
   -3.0338   49.1611   27.5004 H   0  0  0  0  0  0
  1  6  2  0  0  0
  1  2  1  0  0  0
  1 23  1  0  0  0
  2  3  2  0  0  0
  2 22  1  0  0  0
  3  4  1  0  0  0
  3 21  1  0  0  0
  4  5  2  0  0  0
  4 24  1  0  0  0
  5  6  1  0  0  0
  5 20  1  0  0  0
  6  7  1  0  0  0
  7  8  2  0  0  0
  7  9  2  0  0  0
  7 10  1  0  0  0
 10 15  1  0  0  0
 10 11  1  0  0  0
 11 12  1  0  0  0
 11 25  1  0  0  0
 11 26  1  0  0  0
 12 13  1  0  0  0
 12 27  1  0  0  0
 12 28  1  0  0  0
 13 14  1  0  0  0
 13 29  1  0  0  0
 13 30  1  0  0  0
 14 15  1  0  0  0
 14 31  1  0  0  0
 14 32  1  0  0  0
 15 16  1  0  0  0
 15 17  1  0  0  0
 17 18  2  0  0  0
 17 19  1  0  0  0
 19 33  1  0  0  0
 19 34  1  0  0  0
 22 35  1  0  0  0
 22 36  1  0  0  0
M  END
> <i_i_glide_confnum>
9

> <i_i_glide_lignum>
1593

> <i_i_glide_posenum>
297

> <i_i_glide_rotatable_bonds>
3

> <i_m_Source_File_Index>
4292

> <b_m_subgroup_collapsed>
0

> <r_i_docking_score>
-3.32146

> <r_i_glide_ecoul>
-3.37917

> <r_i_glide_eff_state_penalty>
0

> <r_i_glide_einternal>
4.40613

> <r_i_glide_emodel>
-32.3742

> <r_i_glide_energy>
-28.783

> <r_i_glide_erotb>
0.365935

> <r_i_glide_esite>
-0.0909433

> <r_i_glide_evdw>
-25.4038

> <r_i_glide_gscore>
-3.32146

> <r_i_glide_hbond>
-0.16

> <r_i_glide_ligand_efficiency>
-0.158165

> <r_i_glide_ligand_efficiency_ln>
-0.821225

> <r_i_glide_ligand_efficiency_sa>
-0.436365

> <r_i_glide_lipo>
-0.699357

> <r_i_glide_metal>
0

> <r_i_glide_rewards>
-0.960033

> <s_i_glide_gridfile>
wee1_glide-grid

> <s_m_Source_File>
wee1_decoys_glide_SP.sdf

> <s_m_Source_Path>
/Users/zhangxujun/Desktop

> <s_m_entry_id>
4567

> <s_m_entry_name>
wee1_decoys_glide_SP.4292

> <s_m_subgroup_title>
wee1_decoys_glide_SP

> <s_m_subgroupid>
wee1_decoys_glide_SP


$$$$
