@<TRIPOS>MOLECULE
ZINC63384076_294
59   63    1
SMALL
USER_CHARGES


@<TRIPOS>ATOM
      1 C1          2.9302   56.5000   16.6429 C.3       1 UNK         0.0000 
      2 C2          3.9014   57.4088   17.4072 C.3       1 UNK         0.0000 
      3 N3          5.3361   57.1957   16.8592 N.4       1 UNK         0.0000 
      4 C4          5.7217   58.4129   15.9760 C.3       1 UNK         0.0000 
      5 C5          7.0999   58.1918   15.3297 C.3       1 UNK         0.0000 
      6 C6          8.0989   57.9003   16.4280 C.2       1 UNK         0.0000 
      7 C7          9.2435   58.4813   16.8117 C.2       1 UNK         0.0000 
      8 C8          9.9804   59.6335   16.2731 C.2       1 UNK         0.0000 
      9 C9         11.1388   60.0278   16.8380 C.2       1 UNK         0.0000 
     10 C10        11.6263   59.2798   17.9905 C.2       1 UNK         0.0000 
     11 C11        10.9469   58.2187   18.5016 C.2       1 UNK         0.0000 
     12 C12         9.7412   57.8018   17.9264 C.2       1 UNK         0.0000 
     13 N13         8.9368   56.8174   18.2712 N.pl3     1 UNK         0.0000 
     14 C14         7.7865   56.7376   17.3415 C.3       1 UNK         0.0000 
     15 H15         7.8739   55.7889   16.8068 H         1 UNK         0.0000 
     16 C16         6.3771   56.8878   17.9787 C.3       1 UNK         0.0000 
     17 H17         6.3338   57.7814   18.6089 H         1 UNK         0.0000 
     18 C18         5.9859   55.5793   18.6964 C.ar      1 UNK         0.0000 
     19 H19         5.1665   52.4216   18.1879 H         1 UNK         0.0000 
     20 C20         5.6758   54.4219   18.0704 C.ar      1 UNK         0.0000 
     21 N21         5.2790   53.2962   18.6935 N.pl3     1 UNK         0.0000 
     22 C22         5.1044   53.2393   20.0386 C.ar      1 UNK         0.0000 
     23 O23         4.7374   52.1743   20.5397 O.2       1 UNK         0.0000 
     24 N24         5.4000   54.4196   20.7218 N.pl3     1 UNK         0.0000 
     25 C25         5.9196   55.5862   20.1605 C.ar      1 UNK         0.0000 
     26 O26         6.3049   56.5741   20.7973 O.2       1 UNK         0.0000 
     27 C27         5.1449   54.4071   22.1321 C.ar      1 UNK         0.0000 
     28 C28         3.8567   54.0963   22.6078 C.ar      1 UNK         0.0000 
     29 C29         3.5665   54.1124   23.9732 C.ar      1 UNK         0.0000 
     30 C30         4.5576   54.4861   24.8811 C.ar      1 UNK         0.0000 
     31 C31         5.8414   54.8051   24.4339 C.ar      1 UNK         0.0000 
     32 C32         6.1421   54.7373   23.0694 C.ar      1 UNK         0.0000 
     33 C33         6.8825   55.2847   25.4218 C.3       1 UNK         0.0000 
     34 C34         2.1675   53.7788   24.4552 C.3       1 UNK         0.0000 
     35 O35         5.6894   54.2502   16.7973 O.co2     1 UNK         0.0000 
     36 H36         1.9033   56.6633   16.9725 H         1 UNK         0.0000 
     37 H37         2.9617   56.6939   15.5693 H         1 UNK         0.0000 
     38 H38         3.1547   55.4456   16.8014 H         1 UNK         0.0000 
     39 H39         3.6373   58.4614   17.2809 H         1 UNK         0.0000 
     40 H40         3.9057   57.1952   18.4790 H         1 UNK         0.0000 
     41 H41         4.9522   58.5038   15.2064 H         1 UNK         0.0000 
     42 H42         5.6980   59.2969   16.6187 H         1 UNK         0.0000 
     43 H43         7.0520   57.3676   14.6172 H         1 UNK         0.0000 
     44 H44         7.3790   59.0754   14.7535 H         1 UNK         0.0000 
     45 H45         9.6165   60.1854   15.4179 H         1 UNK         0.0000 
     46 H46        11.6904   60.8708   16.4467 H         1 UNK         0.0000 
     47 H47        12.5619   59.5697   18.4472 H         1 UNK         0.0000 
     48 H48        11.3625   57.6972   19.3512 H         1 UNK         0.0000 
     49 H49         3.0691   53.8448   21.9098 H         1 UNK         0.0000 
     50 H50         4.3305   54.5350   25.9372 H         1 UNK         0.0000 
     51 H51         7.1382   54.9906   22.7349 H         1 UNK         0.0000 
     52 H52         7.5044   54.4508   25.7365 H         1 UNK         0.0000 
     53 H53         7.5038   56.0625   24.9699 H         1 UNK         0.0000 
     54 H54         6.4161   55.7206   26.3057 H         1 UNK         0.0000 
     55 H55         1.9853   52.7060   24.3686 H         1 UNK         0.0000 
     56 H56         2.0030   54.0884   25.4880 H         1 UNK         0.0000 
     57 H57         1.4268   54.2954   23.8439 H         1 UNK         0.0000 
     58 H58         9.0844   56.1797   19.0497 H         1 UNK         0.0000 
     59 H59         5.3165   56.3532   16.2933 H         1 UNK         0.0000 
@<TRIPOS>BOND
     1    1    2 1    
     2    1   36 1    
     3    1   37 1    
     4    1   38 1    
     5    2    3 1    
     6    2   39 1    
     7    2   40 1    
     8    3   16 1    
     9    3    4 1    
    10    3   59 1    
    11    4    5 1    
    12    4   41 1    
    13    4   42 1    
    14    5    6 1    
    15    5   43 1    
    16    5   44 1    
    17    6   14 1    
    18    6    7 2    
    19    7   12 1    
    20    7    8 1    
    21    8    9 2    
    22    8   45 1    
    23    9   10 1    
    24    9   46 1    
    25   10   11 2    
    26   10   47 1    
    27   11   12 1    
    28   11   48 1    
    29   12   13 2    
    30   13   14 1    
    31   13   58 1    
    32   14   15 1    
    33   14   16 1    
    34   16   17 1    
    35   16   18 1    
    36   18   25 ar   
    37   18   20 ar   
    38   19   21 1    
    39   20   35 1    
    40   20   21 ar   
    41   21   22 ar   
    42   22   23 2    
    43   22   24 ar   
    44   24   25 ar   
    45   24   27 1    
    46   25   26 2    
    47   27   32 ar   
    48   27   28 ar   
    49   28   29 ar   
    50   28   49 1    
    51   29   30 ar   
    52   29   34 1    
    53   30   31 ar   
    54   30   50 1    
    55   31   32 ar   
    56   31   33 1    
    57   32   51 1    
    58   33   52 1    
    59   33   53 1    
    60   33   54 1    
    61   34   55 1    
    62   34   56 1    
    63   34   57 1    
@<TRIPOS>SUBSTRUCTURE
     1 UNK         1 GROUP             0       ****    0 ROOT    
