ZINC32958862_1437
                    3D
 Schrodinger Suite 2024-2.
 58 60  0  0  1  0            999 V2000
    6.7044   54.8482   24.0062 C   0  0  0  0  0  0
    5.4419   54.4907   24.7765 C   0  0  0  0  0  0
    5.4584   54.6147   26.1711 C   0  0  0  0  0  0
    4.3192   54.3125   26.9156 C   0  0  0  0  0  0
    3.1489   53.9350   26.2664 C   0  0  0  0  0  0
    3.1129   53.8094   24.8824 C   0  0  0  0  0  0
    4.2702   54.0425   24.1292 C   0  0  0  0  0  0
    4.2440   53.6530   22.3679 S   0  0  0  0  0  0
    5.5043   52.9627   22.0838 O   0  0  0  0  0  0
    3.9037   54.8961   21.6810 O   0  0  0  0  0  0
    2.9290   52.4808   22.1311 N   0  0  0  0  0  0
    3.2754   51.1024   21.7264 C   0  0  0  0  0  0
    2.2657   50.1147   22.3529 C   0  0  0  0  0  0
    0.7758   50.4578   22.0311 C   0  0  0  0  0  0
    0.5145   51.9662   22.3561 C   0  0  0  0  0  0
    1.5687   52.9355   21.7687 C   0  0  0  0  0  0
    0.4096   50.1772   20.5430 C   0  0  0  0  0  0
   -0.5525   50.7506   20.0302 O   0  0  0  0  0  0
    1.1476   49.2672   19.8760 N   0  0  0  0  0  0
    1.0391   48.8312   18.4788 C   0  0  0  0  0  0
    2.0965   47.7318   18.2684 C   0  0  0  0  0  0
    1.3368   50.0002   17.5142 C   0  0  0  0  0  0
   -0.3525   48.2305   18.1731 C   0  0  0  0  0  0
    1.9903   53.6944   26.9716 O   0  0  0  0  0  0
    2.0951   53.3677   28.3811 C   0  0  2  0  0  0
    1.2758   53.8776   28.8888 H   0  0  0  0  0  0
    3.4075   53.8059   29.1155 C   0  0  0  0  0  0
    3.5857   53.6984   30.3254 O   0  0  0  0  0  0
    4.3462   54.3144   28.3012 N   0  0  0  0  0  0
    1.8944   51.8535   28.5685 C   0  0  0  0  0  0
    7.3469   55.5217   24.5738 H   0  0  0  0  0  0
    7.2725   53.9505   23.7547 H   0  0  0  0  0  0
    6.4633   55.3717   23.0809 H   0  0  0  0  0  0
    6.3641   54.9218   26.6763 H   0  0  0  0  0  0
    2.1930   53.4948   24.4168 H   0  0  0  0  0  0
    4.2976   50.8966   22.0336 H   0  0  0  0  0  0
    3.2148   51.0361   20.6384 H   0  0  0  0  0  0
    2.3744   50.1025   23.4390 H   0  0  0  0  0  0
    2.4950   49.0689   22.1419 H   0  0  0  0  0  0
    0.0609   49.8420   22.5784 H   0  0  0  0  0  0
   -0.5053   52.2542   22.0943 H   0  0  0  0  0  0
    0.4476   52.0698   23.4399 H   0  0  0  0  0  0
    1.4213   53.9629   22.1018 H   0  0  0  0  0  0
    1.4870   52.9002   20.6815 H   0  0  0  0  0  0
    1.9345   48.8778   20.3717 H   0  0  0  0  0  0
    2.1057   47.3757   17.2373 H   0  0  0  0  0  0
    1.9042   46.8692   18.9075 H   0  0  0  0  0  0
    3.1043   48.0924   18.4870 H   0  0  0  0  0  0
    0.6023   50.8009   17.6016 H   0  0  0  0  0  0
    2.3168   50.4370   17.7071 H   0  0  0  0  0  0
    1.3336   49.6701   16.4751 H   0  0  0  0  0  0
   -1.1441   48.9758   18.2504 H   0  0  0  0  0  0
   -0.3967   47.8272   17.1605 H   0  0  0  0  0  0
   -0.5972   47.4184   18.8577 H   0  0  0  0  0  0
    5.1930   54.5921   28.7744 H   0  0  0  0  0  0
    1.8710   51.5674   29.6189 H   0  0  0  0  0  0
    0.9497   51.5334   28.1316 H   0  0  0  0  0  0
    2.6907   51.2929   28.0837 H   0  0  0  0  0  0
  1  2  1  0  0  0
  1 31  1  0  0  0
  1 32  1  0  0  0
  1 33  1  0  0  0
  2  7  2  0  0  0
  2  3  1  0  0  0
  3  4  2  0  0  0
  3 34  1  0  0  0
  4 29  1  0  0  0
  4  5  1  0  0  0
  5  6  2  0  0  0
  5 24  1  0  0  0
  6  7  1  0  0  0
  6 35  1  0  0  0
  7  8  1  0  0  0
  8  9  2  0  0  0
  8 10  2  0  0  0
  8 11  1  0  0  0
 11 16  1  0  0  0
 11 12  1  0  0  0
 12 13  1  0  0  0
 12 36  1  0  0  0
 12 37  1  0  0  0
 13 14  1  0  0  0
 13 38  1  0  0  0
 13 39  1  0  0  0
 14 15  1  0  0  0
 14 17  1  0  0  0
 14 40  1  0  0  0
 15 16  1  0  0  0
 15 41  1  0  0  0
 15 42  1  0  0  0
 16 43  1  0  0  0
 16 44  1  0  0  0
 17 18  2  0  0  0
 17 19  1  0  0  0
 19 20  1  0  0  0
 19 45  1  0  0  0
 20 21  1  0  0  0
 20 22  1  0  0  0
 20 23  1  0  0  0
 21 46  1  0  0  0
 21 47  1  0  0  0
 21 48  1  0  0  0
 22 49  1  0  0  0
 22 50  1  0  0  0
 22 51  1  0  0  0
 23 52  1  0  0  0
 23 53  1  0  0  0
 23 54  1  0  0  0
 24 25  1  0  0  0
 25 26  1  0  0  0
 25 27  1  0  0  0
 25 30  1  0  0  0
 27 28  2  0  0  0
 27 29  1  0  0  0
 29 55  1  0  0  0
 30 56  1  0  0  0
 30 57  1  0  0  0
 30 58  1  0  0  0
M  END
> <i_i_glide_confnum>
55

> <i_i_glide_lignum>
1438

> <i_i_glide_posenum>
98

> <i_i_glide_rotatable_bonds>
5

> <i_m_Source_File_Index>
790

> <b_m_subgroup_collapsed>
0

> <r_i_docking_score>
-5.25504

> <r_i_glide_ecoul>
-5.42761

> <r_i_glide_eff_state_penalty>
0

> <r_i_glide_einternal>
5.19347

> <r_i_glide_emodel>
-48.0351

> <r_i_glide_energy>
-41.0259

> <r_i_glide_erotb>
0.441983

> <r_i_glide_esite>
-0.0361324

> <r_i_glide_evdw>
-35.5983

> <r_i_glide_gscore>
-5.25504

> <r_i_glide_hbond>
-0.32

> <r_i_glide_ligand_efficiency>
-0.181208

> <r_i_glide_ligand_efficiency_ln>
-1.20327

> <r_i_glide_ligand_efficiency_sa>
-0.556729

> <r_i_glide_lipo>
-2.44632

> <r_i_glide_metal>
0

> <r_i_glide_rewards>
-0.300515

> <s_i_glide_gridfile>
wee1_glide-grid

> <s_m_Source_File>
wee1_decoys_glide_SP.sdf

> <s_m_Source_Path>
/Users/zhangxujun/Desktop

> <s_m_entry_id>
1065

> <s_m_entry_name>
wee1_decoys_glide_SP.790

> <s_m_subgroup_title>
wee1_decoys_glide_SP

> <s_m_subgroupid>
wee1_decoys_glide_SP


$$$$
