@<TRIPOS>MOLECULE
ZINC03840960_1265
72   75    1
SMALL
USER_CHARGES


@<TRIPOS>ATOM
      1 C1          1.3341   49.6437   23.0038 C.3       1 UNK         0.0000 
      2 C2          1.2208   51.1855   22.9140 C.3       1 UNK         0.0000 
      3 H3          0.1648   51.4466   22.8416 H         1 UNK         0.0000 
      4 C4          1.9124   51.6697   21.6218 C.2       1 UNK         0.0000 
      5 C5          2.9116   52.6462   21.5951 C.2       1 UNK         0.0000 
      6 S6          3.5089   52.8606   19.9829 S.3       1 UNK         0.0000 
      7 C7          2.2834   51.7405   19.4558 C.2       1 UNK         0.0000 
      8 N8          1.5896   51.1938   20.4266 N.2       1 UNK         0.0000 
      9 N9          2.0756   51.3928   18.1264 N.am      1 UNK         0.0000 
     10 C10         2.4688   52.0766   17.0300 C.2       1 UNK         0.0000 
     11 O11         3.0239   53.1782   17.0396 O.2       1 UNK         0.0000 
     12 C12         2.1474   51.3905   15.6878 C.3       1 UNK         0.0000 
     13 C13         4.4421   51.5027   14.6216 C.3       1 UNK         0.0000 
     14 C14         2.3396   51.7262   13.2040 C.3       1 UNK         0.0000 
     15 C15         3.4366   53.3888   22.7880 C.3       1 UNK         0.0000 
     16 C16         2.3466   53.3816   23.9003 C.3       1 UNK         0.0000 
     17 C17         1.8038   51.9291   24.1843 C.3       1 UNK         0.0000 
     18 H18         2.7034   51.3824   24.4121 H         1 UNK         0.0000 
     19 C19         0.9330   51.8862   25.5196 C.3       1 UNK         0.0000 
     20 H20         0.0829   52.5484   25.3729 H         1 UNK         0.0000 
     21 C21         1.7174   52.4373   26.7744 C.3       1 UNK         0.0000 
     22 H22         2.5984   51.8234   26.8819 H         1 UNK         0.0000 
     23 C23         2.1857   53.8676   26.3994 C.3       1 UNK         0.0000 
     24 C24         3.0726   53.8956   25.1536 C.3       1 UNK         0.0000 
     25 C25         1.0615   52.3208   28.2099 C.3       1 UNK         0.0000 
     26 H26         1.2135   51.3053   28.5756 H         1 UNK         0.0000 
     27 C27        -0.4805   52.5228   28.1858 C.3       1 UNK         0.0000 
     28 C28         1.7410   53.2359   29.2953 C.2       1 UNK         0.0000 
     29 O29         1.0325   54.0675   29.8694 O.2       1 UNK         0.0000 
     30 N30         3.1020   53.2764   29.4501 N.am      1 UNK         0.0000 
     31 C31         4.0263   52.1830   29.1425 C.3       1 UNK         0.0000 
     32 C32         5.0430   52.6857   28.0882 C.3       1 UNK         0.0000 
     33 S33         6.0262   54.0970   28.4811 S.3       1 UNK         0.0000 
     34 C34         4.7125   55.0926   29.1798 C.3       1 UNK         0.0000 
     35 C35         3.7506   54.3930   30.1440 C.3       1 UNK         0.0000 
     36 O36         0.3174   50.6348   25.7708 O.3       1 UNK         0.0000 
     37 C37         1.2194   54.3568   23.5146 C.3       1 UNK         0.0000 
     38 H38         0.8678   49.1615   22.1447 H         1 UNK         0.0000 
     39 H39         2.3798   49.3310   23.0229 H         1 UNK         0.0000 
     40 H40         0.8587   49.2217   23.8839 H         1 UNK         0.0000 
     41 H41         1.5659   50.5350   17.9766 H         1 UNK         0.0000 
     42 H42         1.1032   51.5943   15.4420 H         1 UNK         0.0000 
     43 H43         2.3051   50.3058   15.6840 H         1 UNK         0.0000 
     44 H44         4.4318   50.4186   14.4801 H         1 UNK         0.0000 
     45 H45         4.8660   51.7720   15.5918 H         1 UNK         0.0000 
     46 H46         4.9830   52.0069   13.8158 H         1 UNK         0.0000 
     47 H47         2.3052   50.6428   13.0574 H         1 UNK         0.0000 
     48 H48         1.3372   52.1652   13.2024 H         1 UNK         0.0000 
     49 H49         2.9705   52.2087   12.4526 H         1 UNK         0.0000 
     50 H50         4.3577   52.8957   23.0990 H         1 UNK         0.0000 
     51 H51         3.7224   54.4081   22.5231 H         1 UNK         0.0000 
     52 H52         1.3171   54.4968   26.3242 H         1 UNK         0.0000 
     53 H53         2.7792   54.3308   27.1759 H         1 UNK         0.0000 
     54 H54         3.9659   53.2993   25.2902 H         1 UNK         0.0000 
     55 H55         3.4458   54.9101   24.9973 H         1 UNK         0.0000 
     56 H56        -0.8991   52.4860   29.1940 H         1 UNK         0.0000 
     57 H57        -0.7482   53.4861   27.7505 H         1 UNK         0.0000 
     58 H58        -1.0047   51.7491   27.6279 H         1 UNK         0.0000 
     59 H59         4.5514   51.9020   30.0555 H         1 UNK         0.0000 
     60 H60         3.4833   51.2960   28.8413 H         1 UNK         0.0000 
     61 H61         4.6109   52.8372   27.1209 H         1 UNK         0.0000 
     62 H62         5.9231   52.0967   27.9833 H         1 UNK         0.0000 
     63 H63         4.1639   55.5305   28.3511 H         1 UNK         0.0000 
     64 H64         5.2704   55.8595   29.7022 H         1 UNK         0.0000 
     65 H65         3.0244   55.1327   30.4824 H         1 UNK         0.0000 
     66 H66         4.3040   54.0202   31.0065 H         1 UNK         0.0000 
     67 H67        -0.1812   50.6795   26.5918 H         1 UNK         0.0000 
     68 H68         0.2467   54.1174   23.9366 H         1 UNK         0.0000 
     69 H69         1.5043   55.3407   23.8703 H         1 UNK         0.0000 
     70 H70         1.1051   54.4309   22.4360 H         1 UNK         0.0000 
     71 N71         2.9761   52.0021   14.5847 N.4       1 UNK         0.0000 
     72 H72         2.9882   53.0074   14.7271 H         1 UNK         0.0000 
@<TRIPOS>BOND
     1    1    2 1    
     2    1   38 1    
     3    1   39 1    
     4    1   40 1    
     5    2    3 1    
     6    2   17 1    
     7    2    4 1    
     8    4    8 1    
     9    4    5 2    
    10    5    6 1    
    11    5   15 1    
    12    6    7 1    
    13    7    8 2    
    14    7    9 am   BACKBONE|DICT|INTERRES
    15    9   10 am   BACKBONE|DICT|INTERRES
    16    9   41 1    
    17   10   11 2    
    18   10   12 1    
    19   12   42 1    
    20   12   43 1    
    21   12   71 1    
    22   13   44 1    
    23   13   45 1    
    24   13   46 1    
    25   13   71 1    
    26   14   47 1    
    27   14   48 1    
    28   14   49 1    
    29   14   71 1    
    30   15   16 1    
    31   15   50 1    
    32   15   51 1    
    33   16   24 1    
    34   16   17 1    
    35   16   37 1    
    36   17   18 1    
    37   17   19 1    
    38   19   20 1    
    39   19   21 1    
    40   19   36 1    
    41   21   22 1    
    42   21   23 1    
    43   21   25 1    
    44   23   24 1    
    45   23   52 1    
    46   23   53 1    
    47   24   54 1    
    48   24   55 1    
    49   25   26 1    
    50   25   27 1    
    51   25   28 1    
    52   27   56 1    
    53   27   57 1    
    54   27   58 1    
    55   28   29 2    
    56   28   30 am   BACKBONE|DICT|INTERRES
    57   30   35 1    
    58   30   31 1    
    59   31   32 1    
    60   31   59 1    
    61   31   60 1    
    62   32   33 1    
    63   32   61 1    
    64   32   62 1    
    65   33   34 1    
    66   34   35 1    
    67   34   63 1    
    68   34   64 1    
    69   35   65 1    
    70   35   66 1    
    71   36   67 1    
    72   37   68 1    
    73   37   69 1    
    74   37   70 1    
    75   71   72 1    
@<TRIPOS>SUBSTRUCTURE
     1 UNK         1 GROUP             0       ****    0 ROOT    
