@<TRIPOS>MOLECULE
ZINC07453286_6184
50   51    1
SMALL
USER_CHARGES


@<TRIPOS>ATOM
      1 C1          6.0311   54.1473   23.1168 C.3       1 UNK         0.0000 
      2 C2          5.1873   54.1330   24.3853 C.ar      1 UNK         0.0000 
      3 C3          5.8343   54.0968   25.6222 C.ar      1 UNK         0.0000 
      4 C4          5.1088   54.0374   26.8240 C.ar      1 UNK         0.0000 
      5 C5          3.7084   54.0468   26.7832 C.ar      1 UNK         0.0000 
      6 C6          3.0622   54.0967   25.5393 C.ar      1 UNK         0.0000 
      7 C7          3.7837   54.1254   24.3417 C.ar      1 UNK         0.0000 
      8 C8          3.0136   54.1799   23.0216 C.3       1 UNK         0.0000 
      9 C9          2.0747   52.8632   20.9892 C.3       1 UNK         0.0000 
     10 C10         2.0915   51.7549   23.2569 C.3       1 UNK         0.0000 
     11 C11         0.6472   52.0670   23.6945 C.2       1 UNK         0.0000 
     12 O12         0.1925   53.2101   23.6803 O.2       1 UNK         0.0000 
     13 N13        -0.0126   50.9756   24.1180 N.am      1 UNK         0.0000 
     14 C14        -1.2763   50.8630   24.6865 C.2       1 UNK         0.0000 
     15 C15        -1.8535   49.6509   25.1065 C.2       1 UNK         0.0000 
     16 C16        -3.1255   49.8685   25.6814 C.2       1 UNK         0.0000 
     17 C17        -3.5028   51.2022   25.7186 C.2       1 UNK         0.0000 
     18 S18        -2.3054   52.2381   25.0288 S.3       1 UNK         0.0000 
     19 C19        -1.2549   48.3429   24.8967 C.2       1 UNK         0.0000 
     20 O20        -0.3651   48.1374   24.0733 O.2       1 UNK         0.0000 
     21 N21        -1.6969   47.3672   25.6829 N.am      1 UNK         0.0000 
     22 O22         3.0400   53.9868   27.9948 O.3       1 UNK         0.0000 
     23 C23         1.6173   53.9633   28.0242 C.3       1 UNK         0.0000 
     24 O24         5.6988   53.9476   28.0720 O.3       1 UNK         0.0000 
     25 C25         7.1052   53.7725   28.1655 C.3       1 UNK         0.0000 
     26 H26         7.0881   53.9721   23.3197 H         1 UNK         0.0000 
     27 H27         5.7058   53.3645   22.4329 H         1 UNK         0.0000 
     28 H28         5.9359   55.1015   22.6003 H         1 UNK         0.0000 
     29 H29         6.9128   54.0874   25.6338 H         1 UNK         0.0000 
     30 H30         1.9846   54.0989   25.4869 H         1 UNK         0.0000 
     31 H31         3.5543   54.7499   22.2638 H         1 UNK         0.0000 
     32 H32         2.0469   54.6697   23.1342 H         1 UNK         0.0000 
     33 H33         1.0810   53.2965   21.1111 H         1 UNK         0.0000 
     34 H34         2.7148   53.4749   20.3532 H         1 UNK         0.0000 
     35 H35         2.0179   51.8480   20.5929 H         1 UNK         0.0000 
     36 H36         2.7014   51.7092   24.1535 H         1 UNK         0.0000 
     37 H37         2.1735   50.7998   22.7322 H         1 UNK         0.0000 
     38 H38         0.4730   50.0907   24.0452 H         1 UNK         0.0000 
     39 H39        -3.7562   49.0749   26.0582 H         1 UNK         0.0000 
     40 H40        -4.4191   51.6156   26.1116 H         1 UNK         0.0000 
     41 H41        -2.0734   47.6340   26.5912 H         1 UNK         0.0000 
     42 H42        -1.1931   46.4958   25.6375 H         1 UNK         0.0000 
     43 H43         1.2872   53.8201   29.0528 H         1 UNK         0.0000 
     44 H44         1.1975   54.9083   27.6796 H         1 UNK         0.0000 
     45 H45         1.2077   53.1416   27.4346 H         1 UNK         0.0000 
     46 H46         7.3986   53.6981   29.2124 H         1 UNK         0.0000 
     47 H47         7.4279   52.8559   27.6704 H         1 UNK         0.0000 
     48 H48         7.6382   54.6186   27.7296 H         1 UNK         0.0000 
     49 N49         2.7455   52.7947   22.3776 N.4       1 UNK         0.0000 
     50 H50         3.6748   52.4450   22.1859 H         1 UNK         0.0000 
@<TRIPOS>BOND
     1    1    2 1    
     2    1   26 1    
     3    1   27 1    
     4    1   28 1    
     5    2    7 ar   
     6    2    3 ar   
     7    3    4 ar   
     8    3   29 1    
     9    4    5 ar   
    10    4   24 1    
    11    5    6 ar   
    12    5   22 1    
    13    6    7 ar   
    14    6   30 1    
    15    7    8 1    
    16    8   31 1    
    17    8   32 1    
    18    8   49 1    
    19    9   33 1    
    20    9   34 1    
    21    9   35 1    
    22    9   49 1    
    23   10   11 1    
    24   10   36 1    
    25   10   37 1    
    26   10   49 1    
    27   11   12 2    
    28   11   13 am   BACKBONE|DICT|INTERRES
    29   13   14 am   BACKBONE|DICT|INTERRES
    30   13   38 1    
    31   14   18 1    
    32   14   15 2    
    33   15   16 1    
    34   15   19 1    
    35   16   17 2    
    36   16   39 1    
    37   17   18 1    
    38   17   40 1    
    39   19   20 2    
    40   19   21 am   BACKBONE|DICT|INTERRES
    41   21   41 1    
    42   21   42 1    
    43   22   23 1    
    44   23   43 1    
    45   23   44 1    
    46   23   45 1    
    47   24   25 1    
    48   25   46 1    
    49   25   47 1    
    50   25   48 1    
    51   49   50 1    
@<TRIPOS>SUBSTRUCTURE
     1 UNK         1 GROUP             0       ****    0 ROOT    
