@<TRIPOS>MOLECULE
ZINC44854961_5257
69   72    1
SMALL
USER_CHARGES


@<TRIPOS>ATOM
      1 C1         -0.3460   51.8922   28.7591 C.3       1 UNK         0.0000 
      2 C2          0.5336   53.1512   28.6747 C.3       1 UNK         0.0000 
      3 H3          0.0062   53.9021   28.0825 H         1 UNK         0.0000 
      4 C4          0.7952   53.8203   30.0333 C.3       1 UNK         0.0000 
      5 C5          1.6550   55.0777   29.8277 C.3       1 UNK         0.0000 
      6 C6          2.9405   54.7652   29.0240 C.3       1 UNK         0.0000 
      7 N7          2.6467   54.1269   27.7245 N.pl3     1 UNK         0.0000 
      8 C8          1.8845   52.8860   27.9649 C.3       1 UNK         0.0000 
      9 C9          3.5404   54.1787   26.6565 C.ar      1 UNK         0.0000 
     10 C10         4.8944   54.4969   26.8241 C.ar      1 UNK         0.0000 
     11 C11         5.7363   54.6243   25.7214 C.ar      1 UNK         0.0000 
     12 C12         5.2459   54.4344   24.4248 C.ar      1 UNK         0.0000 
     13 C13         3.8962   54.0967   24.2563 C.ar      1 UNK         0.0000 
     14 C14         3.0607   53.9665   25.3609 C.ar      1 UNK         0.0000 
     15 C15         6.1843   54.6644   23.2283 C.3       1 UNK         0.0000 
     16 H16         6.5579   55.6823   23.3782 H         1 UNK         0.0000 
     17 C17         7.3944   53.7177   23.2120 C.3       1 UNK         0.0000 
     18 N18         5.5199   54.6225   21.9212 N.am      1 UNK         0.0000 
     19 C19         5.9465   55.2401   20.8059 C.2       1 UNK         0.0000 
     20 O20         6.9440   55.9638   20.7818 O.2       1 UNK         0.0000 
     21 C21         5.1000   54.9927   19.5404 C.3       1 UNK         0.0000 
     22 C22         5.4763   53.6353   18.9096 C.3       1 UNK         0.0000 
     23 C23         4.4474   53.3477   17.7989 C.3       1 UNK         0.0000 
     24 N24         4.4674   54.5054   16.7627 N.4       1 UNK         0.0000 
     25 C25         4.2790   55.9167   17.3839 C.3       1 UNK         0.0000 
     26 C26         5.3067   56.1227   18.5055 C.3       1 UNK         0.0000 
     27 C27         3.4490   54.2565   15.6193 C.3       1 UNK         0.0000 
     28 C28         1.9807   54.4019   16.0102 C.ar      1 UNK         0.0000 
     29 C29         1.2694   53.3001   16.4945 C.ar      1 UNK         0.0000 
     30 C30        -0.0614   53.4461   16.8762 C.ar      1 UNK         0.0000 
     31 C31        -0.6802   54.6888   16.7617 C.ar      1 UNK         0.0000 
     32 C32         0.0145   55.7852   16.2559 C.ar      1 UNK         0.0000 
     33 C33         1.3431   55.6385   15.8690 C.ar      1 UNK         0.0000 
     34 Br34       -2.4957   54.8942   17.2917 Br        1 UNK         0.0000 
     35 H35         0.1613   51.0826   29.2837 H         1 UNK         0.0000 
     36 H36        -1.2807   52.0924   29.2845 H         1 UNK         0.0000 
     37 H37        -0.6058   51.5221   27.7660 H         1 UNK         0.0000 
     38 H38         1.2925   53.1164   30.7030 H         1 UNK         0.0000 
     39 H39        -0.1454   54.0675   30.5280 H         1 UNK         0.0000 
     40 H40         1.9043   55.5117   30.7955 H         1 UNK         0.0000 
     41 H41         1.0965   55.8628   29.3156 H         1 UNK         0.0000 
     42 H42         3.6171   54.1280   29.5966 H         1 UNK         0.0000 
     43 H43         3.4584   55.7082   28.8516 H         1 UNK         0.0000 
     44 H44         1.6505   52.4214   27.0059 H         1 UNK         0.0000 
     45 H45         2.4828   52.1398   28.4921 H         1 UNK         0.0000 
     46 H46         5.3027   54.6632   27.8094 H         1 UNK         0.0000 
     47 H47         6.7697   54.8934   25.8810 H         1 UNK         0.0000 
     48 H48         3.4687   53.9495   23.2757 H         1 UNK         0.0000 
     49 H49         2.0177   53.7347   25.2010 H         1 UNK         0.0000 
     50 H50         7.9023   53.6460   24.1725 H         1 UNK         0.0000 
     51 H51         7.0998   52.7222   22.8820 H         1 UNK         0.0000 
     52 H52         8.1201   54.0872   22.4828 H         1 UNK         0.0000 
     53 H53         4.7205   54.0129   21.8542 H         1 UNK         0.0000 
     54 H54         4.0727   54.9646   19.9119 H         1 UNK         0.0000 
     55 H55         5.3770   52.8065   19.6144 H         1 UNK         0.0000 
     56 H56         6.4656   53.6436   18.4468 H         1 UNK         0.0000 
     57 H57         3.4330   53.2574   18.1916 H         1 UNK         0.0000 
     58 H58         4.7158   52.4384   17.2599 H         1 UNK         0.0000 
     59 H59         4.4347   56.6418   16.5828 H         1 UNK         0.0000 
     60 H60         3.2582   55.9915   17.7622 H         1 UNK         0.0000 
     61 H61         6.2998   56.0955   18.0523 H         1 UNK         0.0000 
     62 H62         5.0960   57.1095   18.9208 H         1 UNK         0.0000 
     63 H63         3.6701   53.2546   15.2431 H         1 UNK         0.0000 
     64 H64         3.7225   54.9777   14.8457 H         1 UNK         0.0000 
     65 H65         1.7459   52.3345   16.5873 H         1 UNK         0.0000 
     66 H66        -0.6095   52.5967   17.2581 H         1 UNK         0.0000 
     67 H67        -0.4721   56.7447   16.1630 H         1 UNK         0.0000 
     68 H68         1.8756   56.4936   15.4768 H         1 UNK         0.0000 
     69 H69         5.3947   54.4960   16.3585 H         1 UNK         0.0000 
@<TRIPOS>BOND
     1    1    2 1    
     2    1   35 1    
     3    1   36 1    
     4    1   37 1    
     5    2    3 1    
     6    2    8 1    
     7    2    4 1    
     8    4    5 1    
     9    4   38 1    
    10    4   39 1    
    11    5    6 1    
    12    5   40 1    
    13    5   41 1    
    14    6    7 1    
    15    6   42 1    
    16    6   43 1    
    17    7    8 1    
    18    7    9 1    
    19    8   44 1    
    20    8   45 1    
    21    9   14 ar   
    22    9   10 ar   
    23   10   11 ar   
    24   10   46 1    
    25   11   12 ar   
    26   11   47 1    
    27   12   13 ar   
    28   12   15 1    
    29   13   14 ar   
    30   13   48 1    
    31   14   49 1    
    32   15   16 1    
    33   15   17 1    
    34   15   18 1    
    35   17   50 1    
    36   17   51 1    
    37   17   52 1    
    38   18   19 am   BACKBONE|DICT|INTERRES
    39   18   53 1    
    40   19   20 2    
    41   19   21 1    
    42   21   26 1    
    43   21   22 1    
    44   21   54 1    
    45   22   23 1    
    46   22   55 1    
    47   22   56 1    
    48   23   24 1    
    49   23   57 1    
    50   23   58 1    
    51   24   25 1    
    52   24   27 1    
    53   24   69 1    
    54   25   26 1    
    55   25   59 1    
    56   25   60 1    
    57   26   61 1    
    58   26   62 1    
    59   27   28 1    
    60   27   63 1    
    61   27   64 1    
    62   28   33 ar   
    63   28   29 ar   
    64   29   30 ar   
    65   29   65 1    
    66   30   31 ar   
    67   30   66 1    
    68   31   32 ar   
    69   31   34 1    
    70   32   33 ar   
    71   32   67 1    
    72   33   68 1    
@<TRIPOS>SUBSTRUCTURE
     1 UNK         1 GROUP             0       ****    0 ROOT    
