@<TRIPOS>MOLECULE
ZINC04395344_863
66   71    1
SMALL
USER_CHARGES


@<TRIPOS>ATOM
      1 C1         -0.0775   50.8089   24.8148 C.ar      1 UNK         0.0000 
      2 C2          0.8948   50.8741   23.8245 C.ar      1 UNK         0.0000 
      3 C3          1.9043   51.8296   23.9106 C.ar      1 UNK         0.0000 
      4 C4          1.9593   52.7471   24.9767 C.ar      1 UNK         0.0000 
      5 C5          0.9636   52.6512   25.9610 C.ar      1 UNK         0.0000 
      6 C6         -0.0464   51.6955   25.8857 C.ar      1 UNK         0.0000 
      7 C7          3.1030   53.8018   25.1257 C.3       1 UNK         0.0000 
      8 C8          3.6315   53.9296   26.5871 C.ar      1 UNK         0.0000 
      9 C9          4.8056   53.2973   27.0144 C.ar      1 UNK         0.0000 
     10 C10         5.3259   53.5095   28.2835 C.ar      1 UNK         0.0000 
     11 C11         4.6428   54.3265   29.1722 C.ar      1 UNK         0.0000 
     12 C12         3.4299   54.8967   28.8128 C.ar      1 UNK         0.0000 
     13 C13         2.9408   54.7114   27.5262 C.ar      1 UNK         0.0000 
     14 C14         3.6135   54.2594   22.6094 C.3       1 UNK         0.0000 
     15 C15         4.6752   54.0720   21.5065 C.3       1 UNK         0.0000 
     16 N16         5.8623   54.8960   21.7494 N.pl3     1 UNK         0.0000 
     17 C17         6.4523   54.6549   23.0705 C.3       1 UNK         0.0000 
     18 C18         5.4486   54.6886   24.2531 C.3       1 UNK         0.0000 
     19 C19         6.4943   55.5963   20.7614 C.ar      1 UNK         0.0000 
     20 N20         7.7104   55.2970   20.3339 N.2       1 UNK         0.0000 
     21 C21         7.9443   56.2539   19.4037 C.ar      1 UNK         0.0000 
     22 N22         9.0323   56.5042   18.6628 N.2       1 UNK         0.0000 
     23 C23         9.0132   57.6316   17.8844 C.ar      1 UNK         0.0000 
     24 C24         7.9174   58.5174   17.8278 C.ar      1 UNK         0.0000 
     25 C25         6.7882   58.2114   18.5816 C.ar      1 UNK         0.0000 
     26 N26         6.8326   57.0882   19.3566 N.pl3     1 UNK         0.0000 
     27 N27         5.9081   56.6455   20.2216 N.2       1 UNK         0.0000 
     28 N28         7.9075   59.6967   17.0873 N.pl3     1 UNK         0.0000 
     29 S29        10.5535   57.8937   16.9892 S.o2      1 UNK         0.0000 
     30 O30        10.3053   58.8505   15.9025 O.2       1 UNK         0.0000 
     31 O31        11.5881   58.1636   17.9962 O.2       1 UNK         0.0000 
     32 C32        10.9301   56.3158   16.2213 C.ar      1 UNK         0.0000 
     33 C33        10.3972   56.0139   14.9643 C.ar      1 UNK         0.0000 
     34 C34        10.6594   54.7746   14.3823 C.ar      1 UNK         0.0000 
     35 C35        11.4465   53.8451   15.0601 C.ar      1 UNK         0.0000 
     36 C36        11.9788   54.1426   16.3148 C.ar      1 UNK         0.0000 
     37 C37        11.7184   55.3809   16.8975 C.ar      1 UNK         0.0000 
     38 H38        -0.8505   50.0570   24.7648 H         1 UNK         0.0000 
     39 H39         0.8849   50.1660   23.0066 H         1 UNK         0.0000 
     40 H40         2.6694   51.7884   23.1517 H         1 UNK         0.0000 
     41 H41         0.9475   53.3063   26.8158 H         1 UNK         0.0000 
     42 H42        -0.7941   51.6301   26.6625 H         1 UNK         0.0000 
     43 H43         2.6380   54.7624   24.9016 H         1 UNK         0.0000 
     44 H44         5.3580   52.6466   26.3612 H         1 UNK         0.0000 
     45 H45         6.2598   53.0478   28.5709 H         1 UNK         0.0000 
     46 H46         5.0604   54.5225   30.1423 H         1 UNK         0.0000 
     47 H47         2.8891   55.5196   29.5129 H         1 UNK         0.0000 
     48 H48         2.0067   55.1867   27.2817 H         1 UNK         0.0000 
     49 H49         2.7268   53.6904   22.3474 H         1 UNK         0.0000 
     50 H50         3.3026   55.2966   22.7076 H         1 UNK         0.0000 
     51 H51         5.0021   53.0357   21.4120 H         1 UNK         0.0000 
     52 H52         4.2464   54.3312   20.5362 H         1 UNK         0.0000 
     53 H53         7.2863   55.3370   23.2496 H         1 UNK         0.0000 
     54 H54         6.8980   53.6624   22.9851 H         1 UNK         0.0000 
     55 H55         5.1043   55.6965   24.4826 H         1 UNK         0.0000 
     56 H56         5.9866   54.2874   25.1037 H         1 UNK         0.0000 
     57 H57         5.9041   58.8272   18.6189 H         1 UNK         0.0000 
     58 H58         8.6817   59.8944   16.4631 H         1 UNK         0.0000 
     59 H59         7.1758   60.4004   17.2677 H         1 UNK         0.0000 
     60 H60         9.7811   56.7312   14.4417 H         1 UNK         0.0000 
     61 H61        10.2536   54.5349   13.4093 H         1 UNK         0.0000 
     62 H62        11.6490   52.8839   14.6090 H         1 UNK         0.0000 
     63 H63        12.5811   53.4140   16.8355 H         1 UNK         0.0000 
     64 H64        12.1234   55.6063   17.8757 H         1 UNK         0.0000 
     65 N65         4.1935   53.8035   23.9806 N.4       1 UNK         0.0000 
     66 H66         4.5022   52.8489   23.8728 H         1 UNK         0.0000 
@<TRIPOS>BOND
     1    1    6 ar   
     2    1    2 ar   
     3    1   38 1    
     4    2    3 ar   
     5    2   39 1    
     6    3    4 ar   
     7    3   40 1    
     8    4    5 ar   
     9    4    7 1    
    10    5    6 ar   
    11    5   41 1    
    12    6   42 1    
    13    7    8 1    
    14    7   43 1    
    15    7   65 1    
    16    8   13 ar   
    17    8    9 ar   
    18    9   10 ar   
    19    9   44 1    
    20   10   11 ar   
    21   10   45 1    
    22   11   12 ar   
    23   11   46 1    
    24   12   13 ar   
    25   12   47 1    
    26   13   48 1    
    27   14   15 1    
    28   14   49 1    
    29   14   50 1    
    30   14   65 1    
    31   15   16 1    
    32   15   51 1    
    33   15   52 1    
    34   16   17 1    
    35   16   19 1    
    36   17   18 1    
    37   17   53 1    
    38   17   54 1    
    39   18   55 1    
    40   18   56 1    
    41   18   65 1    
    42   19   27 ar   
    43   19   20 ar   
    44   20   21 ar   
    45   21   26 ar   
    46   21   22 ar   
    47   22   23 ar   
    48   23   24 ar   
    49   23   29 1    
    50   24   25 ar   
    51   24   28 1    
    52   25   26 ar   
    53   25   57 1    
    54   26   27 ar   
    55   28   58 1    
    56   28   59 1    
    57   29   30 2    
    58   29   31 2    
    59   29   32 1    
    60   32   37 ar   
    61   32   33 ar   
    62   33   34 ar   
    63   33   60 1    
    64   34   35 ar   
    65   34   61 1    
    66   35   36 ar   
    67   35   62 1    
    68   36   37 ar   
    69   36   63 1    
    70   37   64 1    
    71   65   66 1    
@<TRIPOS>SUBSTRUCTURE
     1 UNK         1 GROUP             0       ****    0 ROOT    
