@<TRIPOS>MOLECULE
ZINC06195036_20
50   52    1
SMALL
USER_CHARGES


@<TRIPOS>ATOM
      1 C1          0.5444   53.2965   31.7871 C.3       1 UNK         0.0000 
      2 C2         -0.1104   53.0514   30.4224 C.3       1 UNK         0.0000 
      3 O3          0.7850   53.0036   29.3218 O.3       1 UNK         0.0000 
      4 C4          1.6779   53.9853   29.0382 C.2       1 UNK         0.0000 
      5 O5          1.8628   54.9756   29.7510 O.2       1 UNK         0.0000 
      6 N6          2.3936   53.6959   27.8706 N.am      1 UNK         0.0000 
      7 C7          3.7500   54.2623   27.7899 C.3       1 UNK         0.0000 
      8 C8          4.2737   54.1883   26.3664 C.2       1 UNK         0.0000 
      9 C9          3.6199   53.6972   25.2904 C.2       1 UNK         0.0000 
     10 C10         2.1840   53.1496   25.4804 C.3       1 UNK         0.0000 
     11 H11         1.5689   54.0444   25.3899 H         1 UNK         0.0000 
     12 C12         1.9288   52.6563   26.9283 C.3       1 UNK         0.0000 
     13 C13         1.7572   52.1250   24.3464 C.3       1 UNK         0.0000 
     14 H14         2.3037   51.2080   24.4817 H         1 UNK         0.0000 
     15 C15         2.2375   52.6248   22.9437 C.3       1 UNK         0.0000 
     16 C16         3.6831   53.1390   22.8817 C.2       1 UNK         0.0000 
     17 C17         4.2706   53.6967   23.9686 C.2       1 UNK         0.0000 
     18 C18         5.6036   54.2104   23.8331 C.1       1 UNK         0.0000 
     19 N19         6.6876   54.6049   23.7382 N.1       1 UNK         0.0000 
     20 N20         4.2803   53.1023   21.6384 N.pl3     1 UNK         0.0000 
     21 C21         1.8320   51.7662   21.8134 C.1       1 UNK         0.0000 
     22 N22         1.5138   51.0976   20.9246 N.1       1 UNK         0.0000 
     23 C23         1.5878   53.8839   22.8659 C.1       1 UNK         0.0000 
     24 N24         1.1044   54.8967   22.8817 N.1       1 UNK         0.0000 
     25 C25         0.2205   51.7752   24.3866 C.ar      1 UNK         0.0000 
     26 C26        -0.7146   52.8253   24.4436 C.ar      1 UNK         0.0000 
     27 C27        -2.0895   52.6108   24.4481 C.ar      1 UNK         0.0000 
     28 C28        -2.5848   51.3191   24.4137 C.ar      1 UNK         0.0000 
     29 C29        -1.6989   50.2526   24.3732 C.ar      1 UNK         0.0000 
     30 C30        -0.3078   50.4549   24.3565 C.ar      1 UNK         0.0000 
     31 C31         0.5656   49.2073   24.3242 C.3       1 UNK         0.0000 
     32 F32         1.5043   49.3123   23.3858 F         1 UNK         0.0000 
     33 F33         1.1044   49.0720   25.5317 F         1 UNK         0.0000 
     34 F34        -0.1191   48.0911   24.0641 F         1 UNK         0.0000 
     35 H35        -0.0955   52.9618   32.5956 H         1 UNK         0.0000 
     36 H36         1.4916   52.7665   31.8854 H         1 UNK         0.0000 
     37 H37         0.7044   54.3609   31.9524 H         1 UNK         0.0000 
     38 H38        -0.8801   53.7980   30.2249 H         1 UNK         0.0000 
     39 H39        -0.6242   52.0895   30.4496 H         1 UNK         0.0000 
     40 H40         4.4227   53.7103   28.4480 H         1 UNK         0.0000 
     41 H41         3.7751   55.2969   28.1304 H         1 UNK         0.0000 
     42 H42         5.2747   54.5716   26.2345 H         1 UNK         0.0000 
     43 H43         0.8467   52.5335   27.0021 H         1 UNK         0.0000 
     44 H44         2.3614   51.6968   27.1964 H         1 UNK         0.0000 
     45 H45         3.8011   52.7322   20.8275 H         1 UNK         0.0000 
     46 H46         5.2067   53.4782   21.4919 H         1 UNK         0.0000 
     47 H47        -0.4005   53.8496   24.4809 H         1 UNK         0.0000 
     48 H48        -2.7705   53.4478   24.4842 H         1 UNK         0.0000 
     49 H49        -3.6504   51.1418   24.4287 H         1 UNK         0.0000 
     50 H50        -2.1158   49.2556   24.3665 H         1 UNK         0.0000 
@<TRIPOS>BOND
     1    1    2 1    
     2    1   35 1    
     3    1   36 1    
     4    1   37 1    
     5    2    3 1    
     6    2   38 1    
     7    2   39 1    
     8    3    4 1    
     9    4    5 2    
    10    4    6 am   BACKBONE|DICT|INTERRES
    11    6   12 1    
    12    6    7 1    
    13    7    8 1    
    14    7   40 1    
    15    7   41 1    
    16    8    9 2    
    17    8   42 1    
    18    9   17 1    
    19    9   10 1    
    20   10   11 1    
    21   10   12 1    
    22   10   13 1    
    23   12   43 1    
    24   12   44 1    
    25   13   14 1    
    26   13   15 1    
    27   13   25 1    
    28   15   16 1    
    29   15   21 1    
    30   15   23 1    
    31   16   17 2    
    32   16   20 1    
    33   17   18 1    
    34   18   19 3    
    35   20   45 1    
    36   20   46 1    
    37   21   22 3    
    38   23   24 3    
    39   25   30 ar   
    40   25   26 ar   
    41   26   27 ar   
    42   26   47 1    
    43   27   28 ar   
    44   27   48 1    
    45   28   29 ar   
    46   28   49 1    
    47   29   30 ar   
    48   29   50 1    
    49   30   31 1    
    50   31   32 1    
    51   31   33 1    
    52   31   34 1    
@<TRIPOS>SUBSTRUCTURE
     1 UNK         1 GROUP             0       ****    0 ROOT    
