ZINC00865796_5167
                    3D
 Schrodinger Suite 2024-2.
 50 53  0  0  1  0            999 V2000
    2.7750   52.6274   30.8766 C   0  0  0  0  0  0
    3.8702   53.4037   30.3944 O   0  0  0  0  0  0
    3.9579   53.6669   29.0400 C   0  0  0  0  0  0
    5.1366   54.2477   28.5780 C   0  0  0  0  0  0
    5.3292   54.4947   27.2207 C   0  0  0  0  0  0
    4.3284   54.1721   26.2910 C   0  0  0  0  0  0
    3.1131   53.6291   26.7452 C   0  0  0  0  0  0
    2.9436   53.3816   28.1172 C   0  0  0  0  0  0
    2.1355   53.3513   25.8044 O   0  0  0  0  0  0
    0.9475   52.6727   26.1978 C   0  0  0  0  0  0
    4.4678   54.3399   24.8952 N   0  0  0  0  0  0
    5.5799   54.4965   24.1439 C   0  0  0  0  0  0
    6.7069   54.6905   24.6001 O   0  0  0  0  0  0
    5.3541   54.4253   22.7056 C   0  0  0  0  0  0
    4.2591   53.8175   22.0322 C   0  0  0  0  0  0
    4.5454   53.9332   20.6884 C   0  0  0  0  0  0
    5.7604   54.5815   20.5999 N   0  0  0  0  0  0
    6.2230   54.8964   21.8224 N   0  0  0  0  0  0
    6.5002   54.8864   19.3542 C   0  0  1  0  0  0
    7.5113   54.4958   19.4780 H   0  0  0  0  0  0
    5.8010   54.1190   18.1949 C   0  0  0  0  0  0
    4.2601   54.1506   18.3178 C   0  0  2  0  0  0
    3.9141   55.1793   18.4285 H   0  0  0  0  0  0
    3.9040   53.4657   19.5585 N   0  0  0  0  0  0
    3.5599   53.5726   17.1060 C   0  0  0  0  0  0
    3.1025   52.2758   16.8610 C   0  0  0  0  0  0
    2.5201   52.0961   15.6049 C   0  0  0  0  0  0
    2.5167   53.2573   14.8543 C   0  0  0  0  0  0
    3.2532   54.5699   15.7081 S   0  0  0  0  0  0
    6.6458   56.3958   19.0425 C   0  0  0  0  0  0
    7.4956   56.5879   18.0338 F   0  0  0  0  0  0
    5.4957   56.9601   18.6914 F   0  0  0  0  0  0
    7.1040   57.0820   20.0820 F   0  0  0  0  0  0
    2.7051   52.9492   22.7221 Br  0  0  0  0  0  0
    2.9380   52.3721   31.9255 H   0  0  0  0  0  0
    2.6673   51.6943   30.3233 H   0  0  0  0  0  0
    1.8384   53.1832   30.8118 H   0  0  0  0  0  0
    5.9215   54.4963   29.2783 H   0  0  0  0  0  0
    6.2660   54.9373   26.9225 H   0  0  0  0  0  0
    2.0188   52.9572   28.4684 H   0  0  0  0  0  0
    0.3102   52.5308   25.3257 H   0  0  0  0  0  0
    1.1694   51.6871   26.6097 H   0  0  0  0  0  0
    0.3795   53.2477   26.9307 H   0  0  0  0  0  0
    3.6149   54.1688   24.3800 H   0  0  0  0  0  0
    6.1112   54.5311   17.2328 H   0  0  0  0  0  0
    6.1538   53.0841   18.1679 H   0  0  0  0  0  0
    2.9150   53.2656   19.6117 H   0  0  0  0  0  0
    3.2111   51.4684   17.5727 H   0  0  0  0  0  0
    2.1305   51.1484   15.2630 H   0  0  0  0  0  0
    2.1346   53.3998   13.8543 H   0  0  0  0  0  0
  1  2  1  0  0  0
  1 35  1  0  0  0
  1 36  1  0  0  0
  1 37  1  0  0  0
  2  3  1  0  0  0
  3  8  2  0  0  0
  3  4  1  0  0  0
  4  5  2  0  0  0
  4 38  1  0  0  0
  5  6  1  0  0  0
  5 39  1  0  0  0
  6  7  2  0  0  0
  6 11  1  0  0  0
  7  8  1  0  0  0
  7  9  1  0  0  0
  8 40  1  0  0  0
  9 10  1  0  0  0
 10 41  1  0  0  0
 10 42  1  0  0  0
 10 43  1  0  0  0
 11 12  1  0  0  0
 11 44  1  0  0  0
 12 13  2  0  0  0
 12 14  1  0  0  0
 14 18  2  0  0  0
 14 15  1  0  0  0
 15 16  2  0  0  0
 15 34  1  0  0  0
 16 24  1  0  0  0
 16 17  1  0  0  0
 17 18  1  0  0  0
 17 19  1  0  0  0
 19 20  1  0  0  0
 19 21  1  0  0  0
 19 30  1  0  0  0
 21 22  1  0  0  0
 21 45  1  0  0  0
 21 46  1  0  0  0
 22 23  1  0  0  0
 22 24  1  0  0  0
 22 25  1  0  0  0
 24 47  1  0  0  0
 25 29  1  0  0  0
 25 26  2  0  0  0
 26 27  1  0  0  0
 26 48  1  0  0  0
 27 28  2  0  0  0
 27 49  1  0  0  0
 28 29  1  0  0  0
 28 50  1  0  0  0
 30 31  1  0  0  0
 30 32  1  0  0  0
 30 33  1  0  0  0
M  END
> <i_i_glide_confnum>
19

> <i_i_glide_lignum>
5168

> <i_i_glide_posenum>
333

> <i_i_glide_rotatable_bonds>
7

> <i_m_Source_File_Index>
5553

> <b_m_subgroup_collapsed>
0

> <r_i_docking_score>
-5.48485

> <r_i_glide_ecoul>
-3.93152

> <r_i_glide_eff_state_penalty>
0

> <r_i_glide_einternal>
8.93469

> <r_i_glide_emodel>
-54.6658

> <r_i_glide_energy>
-43.8681

> <r_i_glide_erotb>
0.292132

> <r_i_glide_esite>
-0.0908745

> <r_i_glide_evdw>
-39.9366

> <r_i_glide_gscore>
-5.48485

> <r_i_glide_hbond>
-0.32

> <r_i_glide_ligand_efficiency>
-0.171402

> <r_i_glide_ligand_efficiency_ln>
-1.22821

> <r_i_glide_ligand_efficiency_sa>
-0.544166

> <r_i_glide_lipo>
-2.11929

> <r_i_glide_metal>
0

> <r_i_glide_rewards>
-0.660263

> <s_i_glide_gridfile>
wee1_glide-grid

> <s_m_Source_File>
wee1_decoys_glide_SP.sdf

> <s_m_Source_Path>
/Users/zhangxujun/Desktop

> <s_m_entry_id>
5828

> <s_m_entry_name>
wee1_decoys_glide_SP.5553

> <s_m_subgroup_title>
wee1_decoys_glide_SP

> <s_m_subgroupid>
wee1_decoys_glide_SP


$$$$
