@<TRIPOS>MOLECULE
ZINC00670445_2232
53   55    1
SMALL
USER_CHARGES


@<TRIPOS>ATOM
      1 C1          2.3037   50.9964   17.9751 C.3       1 UNK         0.0000 
      2 C2          1.3528   51.3310   19.1144 C.2       1 UNK         0.0000 
      3 O3          0.4153   52.0993   18.9002 O.2       1 UNK         0.0000 
      4 N4          1.6021   50.7100   20.2884 N.am      1 UNK         0.0000 
      5 C5          0.9303   50.8513   21.5188 C.ar      1 UNK         0.0000 
      6 C6          0.0812   51.9274   21.8166 C.ar      1 UNK         0.0000 
      7 C7         -0.5366   52.0099   23.0575 C.ar      1 UNK         0.0000 
      8 C8         -0.2980   51.0275   24.0179 C.ar      1 UNK         0.0000 
      9 C9          0.5493   49.9532   23.7368 C.ar      1 UNK         0.0000 
     10 C10         1.1681   49.8715   22.4898 C.ar      1 UNK         0.0000 
     11 S11        -1.0360   51.1955   25.6391 S.o2      1 UNK         0.0000 
     12 O12        -1.7100   52.4962   25.6965 O.2       1 UNK         0.0000 
     13 O13        -1.7717   49.9565   25.8954 O.2       1 UNK         0.0000 
     14 N14         0.3036   51.2603   26.8010 N.pl3     1 UNK         0.0000 
     15 C15         1.2289   52.2815   26.8901 C.2       1 UNK         0.0000 
     16 C16         1.8473   52.8122   28.0377 C.2       1 UNK         0.0000 
     17 C17         2.8263   53.7893   27.6829 C.2       1 UNK         0.0000 
     18 C18         2.9824   53.9345   26.2993 C.2       1 UNK         0.0000 
     19 S19         1.8618   52.9579   25.4329 S.3       1 UNK         0.0000 
     20 C20         3.9399   54.8222   25.5373 C.3       1 UNK         0.0000 
     21 C21         5.3155   54.1750   25.3055 C.3       1 UNK         0.0000 
     22 C22         6.0001   53.5916   26.5591 C.3       1 UNK         0.0000 
     23 C23         6.0969   54.5394   27.7701 C.3       1 UNK         0.0000 
     24 C24         5.0811   54.2728   28.9061 C.3       1 UNK         0.0000 
     25 C25         3.6040   54.6602   28.6719 C.3       1 UNK         0.0000 
     26 C26         1.5275   52.4458   29.4202 C.2       1 UNK         0.0000 
     27 O27         2.3727   52.3357   30.3131 O.2       1 UNK         0.0000 
     28 O28         0.1970   52.2984   29.5839 O.3       1 UNK         0.0000 
     29 C29        -0.3629   52.1717   30.8817 C.3       1 UNK         0.0000 
     30 H30         3.1360   51.6993   17.9486 H         1 UNK         0.0000 
     31 H31         1.7862   51.0437   17.0165 H         1 UNK         0.0000 
     32 H32         2.7008   49.9891   18.0846 H         1 UNK         0.0000 
     33 H33         2.3389   50.0222   20.2758 H         1 UNK         0.0000 
     34 H34        -0.0941   52.7247   21.1136 H         1 UNK         0.0000 
     35 H35        -1.1782   52.8510   23.2756 H         1 UNK         0.0000 
     36 H36         0.7441   49.1996   24.4868 H         1 UNK         0.0000 
     37 H37         1.8326   49.0432   22.2899 H         1 UNK         0.0000 
     38 H38         0.1612   50.6065   27.5591 H         1 UNK         0.0000 
     39 H39         3.5177   55.1147   24.5756 H         1 UNK         0.0000 
     40 H40         4.0872   55.7488   26.0801 H         1 UNK         0.0000 
     41 H41         5.2165   53.3858   24.5589 H         1 UNK         0.0000 
     42 H42         5.9760   54.9179   24.8547 H         1 UNK         0.0000 
     43 H43         5.5070   52.6663   26.8612 H         1 UNK         0.0000 
     44 H44         7.0099   53.2954   26.2712 H         1 UNK         0.0000 
     45 H45         7.0933   54.4126   28.1962 H         1 UNK         0.0000 
     46 H46         6.0617   55.5817   27.4556 H         1 UNK         0.0000 
     47 H47         5.1387   53.2305   29.2267 H         1 UNK         0.0000 
     48 H48         5.4220   54.8601   29.7580 H         1 UNK         0.0000 
     49 H49         3.5478   55.6967   28.3577 H         1 UNK         0.0000 
     50 H50         3.1028   54.6884   29.6394 H         1 UNK         0.0000 
     51 H51        -1.2853   51.5890   30.8405 H         1 UNK         0.0000 
     52 H52         0.3076   51.6966   31.5972 H         1 UNK         0.0000 
     53 H53        -0.5976   53.1596   31.2769 H         1 UNK         0.0000 
@<TRIPOS>BOND
     1    1    2 1    
     2    1   30 1    
     3    1   31 1    
     4    1   32 1    
     5    2    3 2    
     6    2    4 am   BACKBONE|DICT|INTERRES
     7    4    5 1    
     8    4   33 1    
     9    5   10 ar   
    10    5    6 ar   
    11    6    7 ar   
    12    6   34 1    
    13    7    8 ar   
    14    7   35 1    
    15    8    9 ar   
    16    8   11 1    
    17    9   10 ar   
    18    9   36 1    
    19   10   37 1    
    20   11   12 2    
    21   11   13 2    
    22   11   14 1    
    23   14   15 1    
    24   14   38 1    
    25   15   19 1    
    26   15   16 2    
    27   16   17 1    
    28   16   26 1    
    29   17   25 1    
    30   17   18 2    
    31   18   19 1    
    32   18   20 1    
    33   20   21 1    
    34   20   39 1    
    35   20   40 1    
    36   21   22 1    
    37   21   41 1    
    38   21   42 1    
    39   22   23 1    
    40   22   43 1    
    41   22   44 1    
    42   23   24 1    
    43   23   45 1    
    44   23   46 1    
    45   24   25 1    
    46   24   47 1    
    47   24   48 1    
    48   25   49 1    
    49   25   50 1    
    50   26   27 2    
    51   26   28 1    
    52   28   29 1    
    53   29   51 1    
    54   29   52 1    
    55   29   53 1    
@<TRIPOS>SUBSTRUCTURE
     1 UNK         1 GROUP             0       ****    0 ROOT    
