@<TRIPOS>MOLECULE
ZINC10013734_5199
67   71    1
SMALL
USER_CHARGES


@<TRIPOS>ATOM
      1 C1          2.8390   54.2030   23.5214 C.3       1 UNK         0.0000 
      2 C2          1.9285   52.9826   23.6412 C.2       1 UNK         0.0000 
      3 C3          1.3263   52.4957   24.7686 C.2       1 UNK         0.0000 
      4 C4          0.3382   51.2805   24.6653 C.3       1 UNK         0.0000 
      5 H5          0.6904   50.4934   25.3378 H         1 UNK         0.0000 
      6 C6          0.3548   50.6396   23.2502 C.2       1 UNK         0.0000 
      7 C7          0.9535   51.2672   22.2031 C.2       1 UNK         0.0000 
      8 N8          1.7010   52.4002   22.4153 N.pl3     1 UNK         0.0000 
      9 C9          0.9911   50.7037   20.7821 C.3       1 UNK         0.0000 
     10 C10         0.8847   49.1597   20.8162 C.3       1 UNK         0.0000 
     11 H11         1.7687   48.7425   21.3074 H         1 UNK         0.0000 
     12 C12        -0.3657   48.7634   21.6377 C.3       1 UNK         0.0000 
     13 C13        -0.3320   49.3393   23.0601 C.2       1 UNK         0.0000 
     14 O14        -0.8834   48.7374   23.9799 O.2       1 UNK         0.0000 
     15 C15         0.8219   48.5782   19.4019 C.ar      1 UNK         0.0000 
     16 C16        -0.3017   48.7659   18.5895 C.ar      1 UNK         0.0000 
     17 C17        -0.3398   48.2204   17.3087 C.ar      1 UNK         0.0000 
     18 C18         0.7469   47.4872   16.8382 C.ar      1 UNK         0.0000 
     19 C19         1.8697   47.2971   17.6366 C.ar      1 UNK         0.0000 
     20 C20         1.9042   47.8401   18.9171 C.ar      1 UNK         0.0000 
     21 C21        -1.1005   51.5907   25.1172 C.ar      1 UNK         0.0000 
     22 C22        -1.8274   52.5859   24.4636 C.ar      1 UNK         0.0000 
     23 C23        -3.1203   52.8968   24.8724 C.ar      1 UNK         0.0000 
     24 C24        -3.7225   52.2246   25.9481 C.ar      1 UNK         0.0000 
     25 C25        -2.9810   51.2177   26.5900 C.ar      1 UNK         0.0000 
     26 C26        -1.6909   50.8965   26.1756 C.ar      1 UNK         0.0000 
     27 N27        -5.0370   52.5654   26.3760 N.pl3     1 UNK         0.0000 
     28 C28        -5.6965   51.7567   27.4045 C.3       1 UNK         0.0000 
     29 C29        -5.9197   53.3106   25.4793 C.3       1 UNK         0.0000 
     30 C30         1.6451   53.0249   26.1045 C.2       1 UNK         0.0000 
     31 O31         2.6704   53.6644   26.3408 O.2       1 UNK         0.0000 
     32 N32         0.7378   52.7407   27.0605 N.am      1 UNK         0.0000 
     33 C33         0.7250   53.0850   28.4212 C.ar      1 UNK         0.0000 
     34 C34         0.1415   52.1453   29.2764 C.ar      1 UNK         0.0000 
     35 C35        -0.0517   52.4446   30.6221 C.ar      1 UNK         0.0000 
     36 C36         0.3131   53.6875   31.1283 C.ar      1 UNK         0.0000 
     37 C37         0.8933   54.6333   30.2850 C.ar      1 UNK         0.0000 
     38 C38         1.0958   54.3442   28.9345 C.ar      1 UNK         0.0000 
     39 F39         1.5977   55.3182   28.1473 F         1 UNK         0.0000 
     40 H40         2.5591   54.9858   24.2261 H         1 UNK         0.0000 
     41 H41         3.8737   53.9157   23.7180 H         1 UNK         0.0000 
     42 H42         2.7982   54.6600   22.5284 H         1 UNK         0.0000 
     43 H43         2.0642   52.8754   21.6002 H         1 UNK         0.0000 
     44 H44         0.1977   51.1841   20.2065 H         1 UNK         0.0000 
     45 H45         1.9511   50.9149   20.3055 H         1 UNK         0.0000 
     46 H46        -1.2633   49.1632   21.1678 H         1 UNK         0.0000 
     47 H47        -0.4956   47.6847   21.7130 H         1 UNK         0.0000 
     48 H48        -1.1458   49.3386   18.9416 H         1 UNK         0.0000 
     49 H49        -1.2044   48.3688   16.6802 H         1 UNK         0.0000 
     50 H50         0.7252   47.0727   15.8420 H         1 UNK         0.0000 
     51 H51         2.7208   46.7492   17.2604 H         1 UNK         0.0000 
     52 H52         2.7865   47.6996   19.5236 H         1 UNK         0.0000 
     53 H53        -1.3814   53.1303   23.6443 H         1 UNK         0.0000 
     54 H54        -3.6313   53.6823   24.3410 H         1 UNK         0.0000 
     55 H55        -3.3849   50.6505   27.4141 H         1 UNK         0.0000 
     56 H56        -1.1600   50.1040   26.6854 H         1 UNK         0.0000 
     57 H57        -5.0754   51.6693   28.2975 H         1 UNK         0.0000 
     58 H58        -6.6502   52.1883   27.7116 H         1 UNK         0.0000 
     59 H59        -5.8823   50.7484   27.0309 H         1 UNK         0.0000 
     60 H60        -6.0946   52.7433   24.5644 H         1 UNK         0.0000 
     61 H61        -6.8895   53.5150   25.9350 H         1 UNK         0.0000 
     62 H62        -5.4853   54.2676   25.1945 H         1 UNK         0.0000 
     63 H63         0.0237   52.0831   26.7856 H         1 UNK         0.0000 
     64 H64        -0.1794   51.1804   28.9059 H         1 UNK         0.0000 
     65 H65        -0.4952   51.7081   31.2775 H         1 UNK         0.0000 
     66 H66         0.1494   53.9105   32.1727 H         1 UNK         0.0000 
     67 H67         1.1671   55.6045   30.6719 H         1 UNK         0.0000 
@<TRIPOS>BOND
     1    1    2 1    
     2    1   40 1    
     3    1   41 1    
     4    1   42 1    
     5    2    8 1    
     6    2    3 2    
     7    3    4 1    
     8    3   30 1    
     9    4    5 1    
    10    4    6 1    
    11    4   21 1    
    12    6   13 1    
    13    6    7 2    
    14    7    8 1    
    15    7    9 1    
    16    8   43 1    
    17    9   10 1    
    18    9   44 1    
    19    9   45 1    
    20   10   11 1    
    21   10   12 1    
    22   10   15 1    
    23   12   13 1    
    24   12   46 1    
    25   12   47 1    
    26   13   14 2    
    27   15   20 ar   
    28   15   16 ar   
    29   16   17 ar   
    30   16   48 1    
    31   17   18 ar   
    32   17   49 1    
    33   18   19 ar   
    34   18   50 1    
    35   19   20 ar   
    36   19   51 1    
    37   20   52 1    
    38   21   26 ar   
    39   21   22 ar   
    40   22   23 ar   
    41   22   53 1    
    42   23   24 ar   
    43   23   54 1    
    44   24   25 ar   
    45   24   27 1    
    46   25   26 ar   
    47   25   55 1    
    48   26   56 1    
    49   27   28 1    
    50   27   29 1    
    51   28   57 1    
    52   28   58 1    
    53   28   59 1    
    54   29   60 1    
    55   29   61 1    
    56   29   62 1    
    57   30   31 2    
    58   30   32 am   BACKBONE|DICT|INTERRES
    59   32   33 1    
    60   32   63 1    
    61   33   38 ar   
    62   33   34 ar   
    63   34   35 ar   
    64   34   64 1    
    65   35   36 ar   
    66   35   65 1    
    67   36   37 ar   
    68   36   66 1    
    69   37   38 ar   
    70   37   67 1    
    71   38   39 1    
@<TRIPOS>SUBSTRUCTURE
     1 UNK         1 GROUP             0       ****    0 ROOT    
