ZINC45326786_3632
                    3D
 Schrodinger Suite 2024-2.
 46 48  0  0  1  0            999 V2000
    5.0515   51.9936   20.5799 C   0  0  0  0  0  0
    5.0835   53.2232   19.6741 C   0  0  0  0  0  0
    5.4069   54.5040   20.0251 C   0  0  0  0  0  0
    5.4067   55.6244   18.9338 C   0  0  2  0  0  0
    4.7043   56.3778   19.2805 H   0  0  0  0  0  0
    4.8423   55.0852   17.6715 N   0  0  0  0  0  0
    4.5850   53.7794   17.3747 C   0  0  0  0  0  0
    4.1180   53.3055   15.8607 S   0  0  0  0  0  0
    4.7526   52.8969   18.3952 N   0  0  0  0  0  0
    6.6970   56.4117   18.6987 C   0  0  0  0  0  0
    7.9465   55.7882   18.7076 C   0  0  0  0  0  0
    9.1045   56.5473   18.5522 C   0  0  0  0  0  0
    9.0291   57.9416   18.3969 C   0  0  0  0  0  0
    7.7693   58.5532   18.3573 C   0  0  0  0  0  0
    6.6165   57.7933   18.5092 C   0  0  0  0  0  0
   10.2572   58.8013   18.3380 C   0  0  0  0  0  0
   10.2335   60.0304   18.4805 O   0  0  0  0  0  0
   11.3859   58.0967   18.0812 O   0  0  0  0  0  0
   12.6468   58.7434   17.9922 C   0  0  0  0  0  0
    5.7641   54.8965   21.3832 C   0  0  0  0  0  0
    6.7385   55.6072   21.6307 O   0  0  0  0  0  0
    4.9173   54.4240   22.3242 N   0  0  0  0  0  0
    5.0458   54.4211   23.7253 C   0  0  0  0  0  0
    6.2661   54.5826   24.4014 C   0  0  0  0  0  0
    6.3038   54.4950   25.7917 C   0  0  0  0  0  0
    5.1332   54.2494   26.5046 C   0  0  0  0  0  0
    3.9191   54.0970   25.8405 C   0  0  0  0  0  0
    3.8773   54.1735   24.4511 C   0  0  0  0  0  0
    5.1961   54.0967   28.4007 Br  0  0  0  0  0  0
    4.0184   51.7249   20.8037 H   0  0  0  0  0  0
    5.5041   51.1440   20.0818 H   0  0  0  0  0  0
    5.5812   52.1136   21.5227 H   0  0  0  0  0  0
    4.6814   55.7183   16.9018 H   0  0  0  0  0  0
    4.7037   51.9210   18.1016 H   0  0  0  0  0  0
    8.0223   54.7204   18.8544 H   0  0  0  0  0  0
   10.0579   56.0389   18.5864 H   0  0  0  0  0  0
    7.6629   59.6229   18.2253 H   0  0  0  0  0  0
    5.6584   58.2919   18.4820 H   0  0  0  0  0  0
   13.4244   58.0086   17.7834 H   0  0  0  0  0  0
   12.6539   59.4828   17.1897 H   0  0  0  0  0  0
   12.8959   59.2443   18.9289 H   0  0  0  0  0  0
    4.0690   54.0111   21.9685 H   0  0  0  0  0  0
    7.1908   54.7461   23.8680 H   0  0  0  0  0  0
    7.2393   54.5933   26.3195 H   0  0  0  0  0  0
    3.0166   53.8999   26.4001 H   0  0  0  0  0  0
    2.9319   54.0358   23.9457 H   0  0  0  0  0  0
  1  2  1  0  0  0
  1 30  1  0  0  0
  1 31  1  0  0  0
  1 32  1  0  0  0
  2  9  1  0  0  0
  2  3  2  0  0  0
  3  4  1  0  0  0
  3 20  1  0  0  0
  4  5  1  0  0  0
  4  6  1  0  0  0
  4 10  1  0  0  0
  6  7  1  0  0  0
  6 33  1  0  0  0
  7  8  2  0  0  0
  7  9  1  0  0  0
  9 34  1  0  0  0
 10 15  2  0  0  0
 10 11  1  0  0  0
 11 12  2  0  0  0
 11 35  1  0  0  0
 12 13  1  0  0  0
 12 36  1  0  0  0
 13 14  2  0  0  0
 13 16  1  0  0  0
 14 15  1  0  0  0
 14 37  1  0  0  0
 15 38  1  0  0  0
 16 17  2  0  0  0
 16 18  1  0  0  0
 18 19  1  0  0  0
 19 39  1  0  0  0
 19 40  1  0  0  0
 19 41  1  0  0  0
 20 21  2  0  0  0
 20 22  1  0  0  0
 22 23  1  0  0  0
 22 42  1  0  0  0
 23 28  2  0  0  0
 23 24  1  0  0  0
 24 25  2  0  0  0
 24 43  1  0  0  0
 25 26  1  0  0  0
 25 44  1  0  0  0
 26 27  2  0  0  0
 26 29  1  0  0  0
 27 28  1  0  0  0
 27 45  1  0  0  0
 28 46  1  0  0  0
M  END
> <i_i_glide_confnum>
14

> <i_i_glide_lignum>
3633

> <i_i_glide_posenum>
288

> <i_i_glide_rotatable_bonds>
6

> <i_m_Source_File_Index>
2033

> <b_m_subgroup_collapsed>
0

> <r_i_docking_score>
-5.39372

> <r_i_glide_ecoul>
-5.59469

> <r_i_glide_eff_state_penalty>
0

> <r_i_glide_einternal>
2.05431

> <r_i_glide_emodel>
-57.0393

> <r_i_glide_energy>
-43.0615

> <r_i_glide_erotb>
0.474894

> <r_i_glide_esite>
-0.164449

> <r_i_glide_evdw>
-37.4668

> <r_i_glide_gscore>
-5.39372

> <r_i_glide_hbond>
-0.2655

> <r_i_glide_ligand_efficiency>
-0.192633

> <r_i_glide_ligand_efficiency_ln>
-1.24503

> <r_i_glide_ligand_efficiency_sa>
-0.584947

> <r_i_glide_lipo>
-2.09485

> <r_i_glide_metal>
0

> <r_i_glide_rewards>
-0.631278

> <s_i_glide_gridfile>
wee1_glide-grid

> <s_m_Source_File>
wee1_decoys_glide_SP.sdf

> <s_m_Source_Path>
/Users/zhangxujun/Desktop

> <s_m_entry_id>
2308

> <s_m_entry_name>
wee1_decoys_glide_SP.2033

> <s_m_subgroup_title>
wee1_decoys_glide_SP

> <s_m_subgroupid>
wee1_decoys_glide_SP


$$$$
