@<TRIPOS>MOLECULE
ZINC66856611_1407
46   50    1
SMALL
USER_CHARGES


@<TRIPOS>ATOM
      1 C1          7.9971   57.4832   15.3003 C.2       1 UNK         0.0000 
      2 C2          7.1709   57.1196   16.3644 C.2       1 UNK         0.0000 
      3 C3          7.9990   56.7132   17.4017 C.2       1 UNK         0.0000 
      4 O4          9.2978   56.8201   17.0102 O.3       1 UNK         0.0000 
      5 C5          9.2964   57.2831   15.7338 C.2       1 UNK         0.0000 
      6 C6          7.7429   56.2344   18.7391 C.ar      1 UNK         0.0000 
      7 C7          6.5933   55.8126   19.3817 C.ar      1 UNK         0.0000 
      8 C8          6.9522   55.4649   20.6986 C.ar      1 UNK         0.0000 
      9 N9          8.2412   55.6843   20.8825 N.2       1 UNK         0.0000 
     10 N10         8.7044   56.0961   19.7002 N.pl3     1 UNK         0.0000 
     11 H11         9.6846   56.3032   19.5568 H         1 UNK         0.0000 
     12 C12         6.0386   54.8966   21.6664 C.2       1 UNK         0.0000 
     13 O13         4.9306   54.4957   21.3084 O.2       1 UNK         0.0000 
     14 N14         6.4971   54.8790   22.9406 N.am      1 UNK         0.0000 
     15 C15         5.7891   54.5753   24.1212 C.ar      1 UNK         0.0000 
     16 C16         4.3920   54.4825   24.1996 C.ar      1 UNK         0.0000 
     17 C17         3.7707   54.2424   25.4188 C.ar      1 UNK         0.0000 
     18 C18         4.5238   54.0685   26.5832 C.ar      1 UNK         0.0000 
     19 C19         5.9200   54.1712   26.5013 C.ar      1 UNK         0.0000 
     20 C20         6.5445   54.4291   25.2827 C.ar      1 UNK         0.0000 
     21 C21         3.8782   53.8041   27.9166 C.ar      1 UNK         0.0000 
     22 N22         4.4679   54.0921   29.0530 N.2       1 UNK         0.0000 
     23 N23         3.6184   53.7211   30.0818 N.2       1 UNK         0.0000 
     24 C24         2.5298   53.2474   29.5416 C.ar      1 UNK         0.0000 
     25 N25         2.6428   53.2184   28.1631 N.pl3     1 UNK         0.0000 
     26 C26         1.5930   52.7607   27.2447 C.3       1 UNK         0.0000 
     27 C27         0.5729   51.8818   28.0069 C.3       1 UNK         0.0000 
     28 C28         0.1457   52.5071   29.3466 C.3       1 UNK         0.0000 
     29 C29         1.3430   52.6697   30.3040 C.3       1 UNK         0.0000 
     30 H30         7.6845   57.8483   14.3331 H         1 UNK         0.0000 
     31 H31         6.0916   57.1524   16.3822 H         1 UNK         0.0000 
     32 H32        10.2644   57.4190   15.2741 H         1 UNK         0.0000 
     33 H33         5.6062   55.7442   18.9463 H         1 UNK         0.0000 
     34 H34         7.4626   55.1472   23.0699 H         1 UNK         0.0000 
     35 H35         3.7569   54.6262   23.3404 H         1 UNK         0.0000 
     36 H36         2.6953   54.2195   25.4333 H         1 UNK         0.0000 
     37 H37         6.5296   54.0492   27.3856 H         1 UNK         0.0000 
     38 H38         7.6183   54.5060   25.2415 H         1 UNK         0.0000 
     39 H39         1.1003   53.6473   26.8470 H         1 UNK         0.0000 
     40 H40         2.0375   52.2173   26.4112 H         1 UNK         0.0000 
     41 H41        -0.3036   51.7089   27.3809 H         1 UNK         0.0000 
     42 H42         1.0035   50.8961   28.1876 H         1 UNK         0.0000 
     43 H43        -0.3153   53.4791   29.1637 H         1 UNK         0.0000 
     44 H44        -0.6221   51.8934   29.8212 H         1 UNK         0.0000 
     45 H45         1.6125   51.6981   30.7163 H         1 UNK         0.0000 
     46 H46         1.0698   53.2938   31.1562 H         1 UNK         0.0000 
@<TRIPOS>BOND
     1    1    5 2    
     2    1    2 1    
     3    1   30 1    
     4    2    3 2    
     5    2   31 1    
     6    3    4 1    
     7    3    6 1    
     8    4    5 1    
     9    5   32 1    
    10    6   10 ar   
    11    6    7 ar   
    12    7    8 ar   
    13    7   33 1    
    14    8    9 ar   
    15    8   12 1    
    16    9   10 ar   
    17   10   11 1    
    18   12   13 2    
    19   12   14 am   BACKBONE|DICT|INTERRES
    20   14   15 1    
    21   14   34 1    
    22   15   20 ar   
    23   15   16 ar   
    24   16   17 ar   
    25   16   35 1    
    26   17   18 ar   
    27   17   36 1    
    28   18   19 ar   
    29   18   21 1    
    30   19   20 ar   
    31   19   37 1    
    32   20   38 1    
    33   21   25 ar   
    34   21   22 ar   
    35   22   23 ar   
    36   23   24 ar   
    37   24   29 1    
    38   24   25 ar   
    39   25   26 1    
    40   26   27 1    
    41   26   39 1    
    42   26   40 1    
    43   27   28 1    
    44   27   41 1    
    45   27   42 1    
    46   28   29 1    
    47   28   43 1    
    48   28   44 1    
    49   29   45 1    
    50   29   46 1    
@<TRIPOS>SUBSTRUCTURE
     1 UNK         1 GROUP             0       ****    0 ROOT    
