@<TRIPOS>MOLECULE
ZINC62566729_5320
63   66    1
SMALL
USER_CHARGES


@<TRIPOS>ATOM
      1 C1          7.1048   54.8982   22.4669 C.3       1 UNK         0.0000 
      2 O2          5.8088   54.6487   22.9962 O.3       1 UNK         0.0000 
      3 C3          5.6389   54.5373   24.3632 C.ar      1 UNK         0.0000 
      4 C4          6.7046   54.4970   25.2750 C.ar      1 UNK         0.0000 
      5 C5          6.4782   54.3843   26.6450 C.ar      1 UNK         0.0000 
      6 C6          5.1750   54.3149   27.1263 C.ar      1 UNK         0.0000 
      7 C7          4.1035   54.3620   26.2371 C.ar      1 UNK         0.0000 
      8 C8          4.3276   54.4719   24.8589 C.ar      1 UNK         0.0000 
      9 C9          3.1286   54.5634   23.9247 C.3       1 UNK         0.0000 
     10 N10         2.6028   53.2067   23.3960 N.4       1 UNK         0.0000 
     11 C11         1.1215   53.3700   22.9983 C.3       1 UNK         0.0000 
     12 C12         0.5547   52.0012   22.5983 C.3       1 UNK         0.0000 
     13 C13         1.3499   51.3346   21.4600 C.3       1 UNK         0.0000 
     14 C14         2.8755   51.3487   21.7114 C.3       1 UNK         0.0000 
     15 C15         3.4181   52.7192   22.1718 C.3       1 UNK         0.0000 
     16 N16         0.8160   50.0263   21.0894 N.am      1 UNK         0.0000 
     17 C17         0.8808   49.4831   19.8602 C.2       1 UNK         0.0000 
     18 O18         1.4116   50.0466   18.9062 O.2       1 UNK         0.0000 
     19 C19         0.3013   48.0967   19.7239 C.ar      1 UNK         0.0000 
     20 C20         0.8883   47.1936   18.8321 C.ar      1 UNK         0.0000 
     21 C21         0.4040   45.8923   18.7260 C.ar      1 UNK         0.0000 
     22 C22        -0.6718   45.4728   19.5163 C.ar      1 UNK         0.0000 
     23 C23        -1.2903   46.3856   20.3738 C.ar      1 UNK         0.0000 
     24 C24        -0.8100   47.6890   20.4775 C.ar      1 UNK         0.0000 
     25 S25        -1.2895   43.7748   19.5297 S.o2      1 UNK         0.0000 
     26 O26        -2.7113   43.9076   19.2034 O.2       1 UNK         0.0000 
     27 O27        -0.9828   43.2967   20.8814 O.2       1 UNK         0.0000 
     28 N28        -0.4802   43.0880   18.3666 N.2       1 UNK         0.0000 
     29 C29         0.7520   42.4837   18.4420 C.ar      1 UNK         0.0000 
     30 C30         1.3707   42.1875   17.2224 C.ar      1 UNK         0.0000 
     31 C31         2.6035   41.5384   17.1618 C.ar      1 UNK         0.0000 
     32 C32         3.2242   41.1455   18.3397 C.ar      1 UNK         0.0000 
     33 C33         2.6279   41.4137   19.5660 C.ar      1 UNK         0.0000 
     34 C34         1.4170   42.0967   19.6175 C.ar      1 UNK         0.0000 
     35 F35         4.4128   40.5035   18.2950 F         1 UNK         0.0000 
     36 H36         7.0446   54.9660   21.3796 H         1 UNK         0.0000 
     37 H37         7.5038   55.8444   22.8356 H         1 UNK         0.0000 
     38 H38         7.8026   54.0964   22.7101 H         1 UNK         0.0000 
     39 H39         7.7222   54.5426   24.9261 H         1 UNK         0.0000 
     40 H40         7.3088   54.3436   27.3370 H         1 UNK         0.0000 
     41 H41         4.9959   54.2257   28.1879 H         1 UNK         0.0000 
     42 H42         3.0980   54.3145   26.6277 H         1 UNK         0.0000 
     43 H43         3.3160   55.1936   23.0535 H         1 UNK         0.0000 
     44 H44         2.3030   55.0084   24.4808 H         1 UNK         0.0000 
     45 H45         1.1044   54.0970   22.1865 H         1 UNK         0.0000 
     46 H46         0.5772   53.7568   23.8622 H         1 UNK         0.0000 
     47 H47        -0.4903   52.1148   22.3051 H         1 UNK         0.0000 
     48 H48         0.5662   51.3540   23.4777 H         1 UNK         0.0000 
     49 H49         1.1907   52.0009   20.6043 H         1 UNK         0.0000 
     50 H50         3.1044   50.6062   22.4771 H         1 UNK         0.0000 
     51 H51         3.4032   51.0460   20.8052 H         1 UNK         0.0000 
     52 H52         3.3443   53.4813   21.3913 H         1 UNK         0.0000 
     53 H53         4.4595   52.6197   22.4817 H         1 UNK         0.0000 
     54 H54         0.2400   49.5598   21.7705 H         1 UNK         0.0000 
     55 H55         1.7390   47.4869   18.2321 H         1 UNK         0.0000 
     56 H56         0.8983   45.2198   18.0414 H         1 UNK         0.0000 
     57 H57        -2.1321   46.0746   20.9765 H         1 UNK         0.0000 
     58 H58        -1.3042   48.3663   21.1599 H         1 UNK         0.0000 
     59 H59         0.8903   42.4677   16.2958 H         1 UNK         0.0000 
     60 H60         3.0664   41.3309   16.2088 H         1 UNK         0.0000 
     61 H61         3.1043   41.1031   20.4809 H         1 UNK         0.0000 
     62 H62         1.0196   42.2822   20.5982 H         1 UNK         0.0000 
     63 H63         2.6776   52.5336   24.1475 H         1 UNK         0.0000 
@<TRIPOS>BOND
     1    1    2 1    
     2    1   36 1    
     3    1   37 1    
     4    1   38 1    
     5    2    3 1    
     6    3    8 ar   
     7    3    4 ar   
     8    4    5 ar   
     9    4   39 1    
    10    5    6 ar   
    11    5   40 1    
    12    6    7 ar   
    13    6   41 1    
    14    7    8 ar   
    15    7   42 1    
    16    8    9 1    
    17    9   10 1    
    18    9   43 1    
    19    9   44 1    
    20   10   15 1    
    21   10   11 1    
    22   10   63 1    
    23   11   12 1    
    24   11   45 1    
    25   11   46 1    
    26   12   13 1    
    27   12   47 1    
    28   12   48 1    
    29   13   14 1    
    30   13   16 1    
    31   13   49 1    
    32   14   15 1    
    33   14   50 1    
    34   14   51 1    
    35   15   52 1    
    36   15   53 1    
    37   16   17 am   BACKBONE|DICT|INTERRES
    38   16   54 1    
    39   17   18 2    
    40   17   19 1    
    41   19   24 ar   
    42   19   20 ar   
    43   20   21 ar   
    44   20   55 1    
    45   21   22 ar   
    46   21   56 1    
    47   22   23 ar   
    48   22   25 1    
    49   23   24 ar   
    50   23   57 1    
    51   24   58 1    
    52   25   26 2    
    53   25   27 2    
    54   25   28 1    
    55   28   29 1    
    56   29   34 ar   
    57   29   30 ar   
    58   30   31 ar   
    59   30   59 1    
    60   31   32 ar   
    61   31   60 1    
    62   32   33 ar   
    63   32   35 1    
    64   33   34 ar   
    65   33   61 1    
    66   34   62 1    
@<TRIPOS>SUBSTRUCTURE
     1 UNK         1 GROUP             0       ****    0 ROOT    
