@<TRIPOS>MOLECULE
ZINC59038781_455
44   46    1
SMALL
USER_CHARGES


@<TRIPOS>ATOM
      1 C1          8.5766   55.9386   20.2237 C.3       1 UNK         0.0000 
      2 C2          7.1991   55.3040   20.2316 C.ar      1 UNK         0.0000 
      3 C3          6.6816   54.7665   19.0513 C.ar      1 UNK         0.0000 
      4 C4          5.4481   54.1182   19.0585 C.ar      1 UNK         0.0000 
      5 C5          4.7302   53.9868   20.2503 C.ar      1 UNK         0.0000 
      6 C6          5.2293   54.5531   21.4364 C.ar      1 UNK         0.0000 
      7 C7          6.4611   55.2135   21.4168 C.ar      1 UNK         0.0000 
      8 Br8         4.2533   54.4793   23.0773 Br        1 UNK         0.0000 
      9 N9          3.5157   53.2968   20.2024 N.am      1 UNK         0.0000 
     10 C10         3.3429   52.0521   20.6867 C.2       1 UNK         0.0000 
     11 O11         4.2210   51.4215   21.2813 O.2       1 UNK         0.0000 
     12 C12         1.9612   51.4416   20.4236 C.3       1 UNK         0.0000 
     13 S13         1.7540   49.7158   20.9852 S.3       1 UNK         0.0000 
     14 C14         1.1134   49.9352   22.6145 C.ar      1 UNK         0.0000 
     15 N15         1.0512   51.1060   23.2446 N.2       1 UNK         0.0000 
     16 C16         0.5256   50.7780   24.3959 C.ar      1 UNK         0.0000 
     17 N17         0.3058   49.4379   24.4463 N.pl3     1 UNK         0.0000 
     18 N18         0.6615   48.8968   23.2862 N.2       1 UNK         0.0000 
     19 N19         0.1725   51.6064   25.4280 N.pl3     1 UNK         0.0000 
     20 N20         1.1007   52.2821   26.2348 N.2       1 UNK         0.0000 
     21 C21         0.7065   52.7535   27.3552 C.2       1 UNK         0.0000 
     22 C22        -0.6866   52.4746   27.9351 C.3       1 UNK         0.0000 
     23 C23         1.6092   53.6167   28.1344 C.2       1 UNK         0.0000 
     24 C24         1.2878   54.4689   29.1975 C.2       1 UNK         0.0000 
     25 C25         2.3738   55.2021   29.6808 C.2       1 UNK         0.0000 
     26 C26         3.5558   54.8943   29.0285 C.2       1 UNK         0.0000 
     27 S27         3.3170   53.7302   27.7679 S.3       1 UNK         0.0000 
     28 H28         8.9603   56.0966   21.2325 H         1 UNK         0.0000 
     29 H29         9.2835   55.2813   19.7150 H         1 UNK         0.0000 
     30 H30         8.5654   56.8842   19.6807 H         1 UNK         0.0000 
     31 H31         7.2440   54.8267   18.1307 H         1 UNK         0.0000 
     32 H32         5.0730   53.6831   18.1422 H         1 UNK         0.0000 
     33 H33         6.8544   55.6311   22.3320 H         1 UNK         0.0000 
     34 H34         2.7530   53.7580   19.7252 H         1 UNK         0.0000 
     35 H35         1.8260   51.4249   19.3415 H         1 UNK         0.0000 
     36 H36         1.1771   52.0833   20.8239 H         1 UNK         0.0000 
     37 H37        -0.7065   51.4576   25.9017 H         1 UNK         0.0000 
     38 H38        -0.8246   52.8316   28.9545 H         1 UNK         0.0000 
     39 H39        -1.4539   52.8980   27.2847 H         1 UNK         0.0000 
     40 H40        -0.8748   51.4005   27.9672 H         1 UNK         0.0000 
     41 H41         0.2957   54.5887   29.6033 H         1 UNK         0.0000 
     42 H42         2.3007   55.9255   30.4806 H         1 UNK         0.0000 
     43 H43         4.5415   55.2968   29.2111 H         1 UNK         0.0000 
     44 H44        -0.0751   48.9135   25.2224 H         1 UNK         0.0000 
@<TRIPOS>BOND
     1    1    2 1    
     2    1   28 1    
     3    1   29 1    
     4    1   30 1    
     5    2    7 ar   
     6    2    3 ar   
     7    3    4 ar   
     8    3   31 1    
     9    4    5 ar   
    10    4   32 1    
    11    5    6 ar   
    12    5    9 1    
    13    6    7 ar   
    14    6    8 1    
    15    7   33 1    
    16    9   10 am   BACKBONE|DICT|INTERRES
    17    9   34 1    
    18   10   11 2    
    19   10   12 1    
    20   12   13 1    
    21   12   35 1    
    22   12   36 1    
    23   13   14 1    
    24   14   18 ar   
    25   14   15 ar   
    26   15   16 ar   
    27   16   17 ar   
    28   16   19 1    
    29   17   18 ar   
    30   17   44 1    
    31   19   20 1    
    32   19   37 1    
    33   20   21 2    
    34   21   22 1    
    35   21   23 1    
    36   22   38 1    
    37   22   39 1    
    38   22   40 1    
    39   23   27 1    
    40   23   24 2    
    41   24   25 1    
    42   24   41 1    
    43   25   26 2    
    44   25   42 1    
    45   26   27 1    
    46   26   43 1    
@<TRIPOS>SUBSTRUCTURE
     1 UNK         1 GROUP             0       ****    0 ROOT    
