@<TRIPOS>MOLECULE
ZINC30983560_2503
44   46    1
SMALL
USER_CHARGES


@<TRIPOS>ATOM
      1 C1          0.6491   52.5594   23.6998 C.3       1 UNK         0.0000 
      2 C2          0.1678   52.3652   25.1302 C.ar      1 UNK         0.0000 
      3 C3          1.1044   52.2563   26.1594 C.ar      1 UNK         0.0000 
      4 C4          0.7039   52.0849   27.4864 C.ar      1 UNK         0.0000 
      5 C5         -0.6610   51.9746   27.7895 C.ar      1 UNK         0.0000 
      6 C6         -1.6005   52.0895   26.7584 C.ar      1 UNK         0.0000 
      7 C7         -1.1968   52.2913   25.4369 C.ar      1 UNK         0.0000 
      8 Br8        -2.5254   52.4867   24.0812 Br        1 UNK         0.0000 
      9 C9         -1.1428   51.7049   29.2088 C.3       1 UNK         0.0000 
     10 S10         1.9445   51.9947   28.7544 S.3       1 UNK         0.0000 
     11 C11         2.4452   53.7104   29.1240 C.3       1 UNK         0.0000 
     12 C12         3.7262   54.1412   28.4005 C.2       1 UNK         0.0000 
     13 O13         4.7042   54.4970   29.0555 O.2       1 UNK         0.0000 
     14 N14         3.6533   54.1014   27.0573 N.am      1 UNK         0.0000 
     15 C15         4.6365   54.3470   26.1136 C.2       1 UNK         0.0000 
     16 N16         4.3725   54.1377   24.8516 N.2       1 UNK         0.0000 
     17 C17         5.3936   54.3990   24.0556 C.2       1 UNK         0.0000 
     18 C18         6.5436   54.8412   24.7161 C.2       1 UNK         0.0000 
     19 S19         6.2605   54.8961   26.4348 S.3       1 UNK         0.0000 
     20 C20         5.2506   54.2025   22.6185 C.ar      1 UNK         0.0000 
     21 C21         5.9265   54.8962   21.6056 C.ar      1 UNK         0.0000 
     22 C22         5.5102   54.4325   20.3570 C.ar      1 UNK         0.0000 
     23 N23         4.5522   53.4789   20.6047 N.pl3     1 UNK         0.0000 
     24 H24         4.0370   52.9742   19.8959 H         1 UNK         0.0000 
     25 C25         4.3910   53.3307   21.9577 C.ar      1 UNK         0.0000 
     26 C26         5.9345   54.8834   19.0594 C.2       1 UNK         0.0000 
     27 O27         6.4837   55.9713   18.9080 O.2       1 UNK         0.0000 
     28 N28         5.6410   54.0856   18.0314 N.am      1 UNK         0.0000 
     29 H29         1.7376   52.5540   23.6327 H         1 UNK         0.0000 
     30 H30         0.2693   51.7599   23.0637 H         1 UNK         0.0000 
     31 H31         0.2873   53.5031   23.2910 H         1 UNK         0.0000 
     32 H32         2.1557   52.2882   25.9170 H         1 UNK         0.0000 
     33 H33        -2.6560   52.0113   26.9783 H         1 UNK         0.0000 
     34 H34        -0.5659   50.8965   29.6563 H         1 UNK         0.0000 
     35 H35        -1.0012   52.5857   29.8357 H         1 UNK         0.0000 
     36 H36        -2.1870   51.3904   29.2413 H         1 UNK         0.0000 
     37 H37         1.6353   54.3985   28.8788 H         1 UNK         0.0000 
     38 H38         2.6031   53.7827   30.1984 H         1 UNK         0.0000 
     39 H39         2.7680   53.8022   26.6800 H         1 UNK         0.0000 
     40 H40         7.5031   55.1035   24.2923 H         1 UNK         0.0000 
     41 H41         6.6621   55.6723   21.7672 H         1 UNK         0.0000 
     42 H42         3.6741   52.6186   22.3353 H         1 UNK         0.0000 
     43 H43         5.8615   54.4047   17.1019 H         1 UNK         0.0000 
     44 H44         5.3498   53.1284   18.1673 H         1 UNK         0.0000 
@<TRIPOS>BOND
     1    1    2 1    
     2    1   29 1    
     3    1   30 1    
     4    1   31 1    
     5    2    7 ar   
     6    2    3 ar   
     7    3    4 ar   
     8    3   32 1    
     9    4    5 ar   
    10    4   10 1    
    11    5    6 ar   
    12    5    9 1    
    13    6    7 ar   
    14    6   33 1    
    15    7    8 1    
    16    9   34 1    
    17    9   35 1    
    18    9   36 1    
    19   10   11 1    
    20   11   12 1    
    21   11   37 1    
    22   11   38 1    
    23   12   13 2    
    24   12   14 am   BACKBONE|DICT|INTERRES
    25   14   15 am   BACKBONE|DICT|INTERRES
    26   14   39 1    
    27   15   19 1    
    28   15   16 2    
    29   16   17 1    
    30   17   18 2    
    31   17   20 1    
    32   18   19 1    
    33   18   40 1    
    34   20   25 ar   
    35   20   21 ar   
    36   21   22 ar   
    37   21   41 1    
    38   22   23 ar   
    39   22   26 1    
    40   23   24 1    
    41   23   25 ar   
    42   25   42 1    
    43   26   27 2    
    44   26   28 am   BACKBONE|DICT|INTERRES
    45   28   43 1    
    46   28   44 1    
@<TRIPOS>SUBSTRUCTURE
     1 UNK         1 GROUP             0       ****    0 ROOT    
