ZINC20289034_3168
                    3D
 Schrodinger Suite 2024-2.
 67 70  0  0  1  0            999 V2000
    5.6258   53.2986   17.5442 C   0  0  0  0  0  0
    4.7942   54.4478   18.1611 C   0  0  1  0  0  0
    3.9555   53.9793   18.6755 H   0  0  0  0  0  0
    5.5825   55.3077   19.2087 C   0  0  2  0  0  0
    4.8868   56.0971   19.4840 H   0  0  0  0  0  0
    6.7860   56.0091   18.5739 C   0  0  0  0  0  0
    6.8493   57.2978   18.0372 C   0  0  0  0  0  0
    8.1068   57.6672   17.5540 C   0  0  0  0  0  0
    9.0445   56.6622   17.7053 C   0  0  0  0  0  0
    8.3591   55.2522   18.4341 S   0  0  0  0  0  0
    5.9047   54.6322   20.4938 N   0  0  0  0  0  0
    4.7407   53.9669   21.1010 C   0  0  0  0  0  0
    5.0304   53.3568   22.4878 C   0  0  0  0  0  0
    5.6742   54.2831   23.4335 N   0  0  0  0  0  0
    6.8461   54.9150   22.8114 C   0  0  0  0  0  0
    6.5461   55.5552   21.4442 C   0  0  0  0  0  0
    5.4470   54.2682   24.8080 C   0  0  0  0  0  0
    6.4970   54.4499   25.7195 C   0  0  0  0  0  0
    6.2651   54.4494   27.0911 C   0  0  0  0  0  0
    4.9700   54.2716   27.5677 C   0  0  0  0  0  0
    3.9117   54.0966   26.6804 C   0  0  0  0  0  0
    4.1489   54.0968   25.3078 C   0  0  0  0  0  0
    4.7351   54.2749   28.9007 F   0  0  0  0  0  0
    4.1384   55.2906   17.1482 N   0  0  0  0  0  0
    3.1182   54.8951   16.3515 C   0  0  0  0  0  0
    2.7228   53.7298   16.2963 O   0  0  0  0  0  0
    2.4738   55.9617   15.5292 C   0  0  0  0  0  0
    1.9487   55.7072   14.4422 O   0  0  0  0  0  0
    2.4460   57.1928   16.0868 N   0  0  0  0  0  0
    1.6981   58.3327   15.5410 C   0  0  0  0  0  0
    0.1692   58.2331   15.6095 C   0  0  0  0  0  0
   -0.5945   59.0174   14.7426 C   0  0  0  0  0  0
   -1.9860   58.9511   14.7765 C   0  0  0  0  0  0
   -2.6314   58.0923   15.6789 C   0  0  0  0  0  0
   -1.8639   57.3005   16.5323 C   0  0  0  0  0  0
   -0.4746   57.3663   16.5010 C   0  0  0  0  0  0
   -4.0016   57.9650   15.7932 O   0  0  0  0  0  0
   -4.8422   58.6997   14.9103 C   0  0  0  0  0  0
    6.1939   52.7785   18.3168 H   0  0  0  0  0  0
    4.9910   52.5400   17.0813 H   0  0  0  0  0  0
    6.3401   53.6585   16.8017 H   0  0  0  0  0  0
    5.9994   57.9655   18.0058 H   0  0  0  0  0  0
    8.3184   58.6321   17.1152 H   0  0  0  0  0  0
   10.0890   56.6779   17.4269 H   0  0  0  0  0  0
    3.9322   54.6896   21.2375 H   0  0  0  0  0  0
    4.4017   53.1383   20.4790 H   0  0  0  0  0  0
    5.7246   52.5258   22.3575 H   0  0  0  0  0  0
    4.1218   52.9010   22.8798 H   0  0  0  0  0  0
    7.6106   54.1449   22.6896 H   0  0  0  0  0  0
    7.2736   55.6723   23.4689 H   0  0  0  0  0  0
    7.4951   55.9221   21.0524 H   0  0  0  0  0  0
    5.9026   56.4092   21.6402 H   0  0  0  0  0  0
    7.5051   54.5674   25.3594 H   0  0  0  0  0  0
    7.0809   54.5856   27.7877 H   0  0  0  0  0  0
    2.9095   53.9599   27.0588 H   0  0  0  0  0  0
    3.3143   53.9746   24.6331 H   0  0  0  0  0  0
    4.4523   56.2444   17.0975 H   0  0  0  0  0  0
    2.8474   57.3309   17.0004 H   0  0  0  0  0  0
    2.0063   58.4886   14.5030 H   0  0  0  0  0  0
    2.0008   59.2305   16.0819 H   0  0  0  0  0  0
   -0.1136   59.6844   14.0429 H   0  0  0  0  0  0
   -2.5460   59.5748   14.0952 H   0  0  0  0  0  0
   -2.3499   56.6310   17.2240 H   0  0  0  0  0  0
    0.0952   56.7460   17.1767 H   0  0  0  0  0  0
   -5.8845   58.4668   15.1302 H   0  0  0  0  0  0
   -4.6589   58.4308   13.8679 H   0  0  0  0  0  0
   -4.7125   59.7760   15.0317 H   0  0  0  0  0  0
  1  2  1  0  0  0
  1 39  1  0  0  0
  1 40  1  0  0  0
  1 41  1  0  0  0
  2  3  1  0  0  0
  2  4  1  0  0  0
  2 24  1  0  0  0
  4  5  1  0  0  0
  4  6  1  0  0  0
  4 11  1  0  0  0
  6 10  1  0  0  0
  6  7  2  0  0  0
  7  8  1  0  0  0
  7 42  1  0  0  0
  8  9  2  0  0  0
  8 43  1  0  0  0
  9 10  1  0  0  0
  9 44  1  0  0  0
 11 16  1  0  0  0
 11 12  1  0  0  0
 12 13  1  0  0  0
 12 45  1  0  0  0
 12 46  1  0  0  0
 13 14  1  0  0  0
 13 47  1  0  0  0
 13 48  1  0  0  0
 14 15  1  0  0  0
 14 17  1  0  0  0
 15 16  1  0  0  0
 15 49  1  0  0  0
 15 50  1  0  0  0
 16 51  1  0  0  0
 16 52  1  0  0  0
 17 22  2  0  0  0
 17 18  1  0  0  0
 18 19  2  0  0  0
 18 53  1  0  0  0
 19 20  1  0  0  0
 19 54  1  0  0  0
 20 21  2  0  0  0
 20 23  1  0  0  0
 21 22  1  0  0  0
 21 55  1  0  0  0
 22 56  1  0  0  0
 24 25  1  0  0  0
 24 57  1  0  0  0
 25 26  2  0  0  0
 25 27  1  0  0  0
 27 28  2  0  0  0
 27 29  1  0  0  0
 29 30  1  0  0  0
 29 58  1  0  0  0
 30 31  1  0  0  0
 30 59  1  0  0  0
 30 60  1  0  0  0
 31 36  2  0  0  0
 31 32  1  0  0  0
 32 33  2  0  0  0
 32 61  1  0  0  0
 33 34  1  0  0  0
 33 62  1  0  0  0
 34 35  2  0  0  0
 34 37  1  0  0  0
 35 36  1  0  0  0
 35 63  1  0  0  0
 36 64  1  0  0  0
 37 38  1  0  0  0
 38 65  1  0  0  0
 38 66  1  0  0  0
 38 67  1  0  0  0
M  END
> <i_i_glide_confnum>
383

> <i_i_glide_lignum>
3169

> <i_i_glide_posenum>
346

> <i_i_glide_rotatable_bonds>
11

> <i_m_Source_File_Index>
2603

> <b_m_subgroup_collapsed>
0

> <r_i_docking_score>
-4.76131

> <r_i_glide_ecoul>
-0.839558

> <r_i_glide_eff_state_penalty>
0

> <r_i_glide_einternal>
3.30811

> <r_i_glide_emodel>
-55.2871

> <r_i_glide_energy>
-42.2902

> <r_i_glide_erotb>
0.785761

> <r_i_glide_esite>
-0.00617547

> <r_i_glide_evdw>
-41.4506

> <r_i_glide_gscore>
-4.76131

> <r_i_glide_hbond>
0

> <r_i_glide_ligand_efficiency>
-0.132259

> <r_i_glide_ligand_efficiency_ln>
-1.03879

> <r_i_glide_ligand_efficiency_sa>
-0.436708

> <r_i_glide_lipo>
-2.56515

> <r_i_glide_metal>
0

> <r_i_glide_rewards>
-0.777279

> <s_i_glide_gridfile>
wee1_glide-grid

> <s_m_Source_File>
wee1_decoys_glide_SP.sdf

> <s_m_Source_Path>
/Users/zhangxujun/Desktop

> <s_m_entry_id>
2878

> <s_m_entry_name>
wee1_decoys_glide_SP.2603

> <s_m_subgroup_title>
wee1_decoys_glide_SP

> <s_m_subgroupid>
wee1_decoys_glide_SP


$$$$
