@<TRIPOS>MOLECULE
ZINC20745541_4890
55   58    1
SMALL
USER_CHARGES


@<TRIPOS>ATOM
      1 C1          6.4839   54.3547   22.9249 C.3       1 UNK         0.0000 
      2 O2          5.3327   54.1463   23.7338 O.3       1 UNK         0.0000 
      3 C3          5.3414   54.4977   25.0477 C.2       1 UNK         0.0000 
      4 O4          6.3208   54.9962   25.6149 O.2       1 UNK         0.0000 
      5 C5          4.0071   54.2882   25.7806 C.3       1 UNK         0.0000 
      6 H6          3.5231   55.2654   25.8658 H         1 UNK         0.0000 
      7 C7          4.2242   53.7491   27.2224 C.3       1 UNK         0.0000 
      8 C8          2.9838   53.7030   28.1099 C.ar      1 UNK         0.0000 
      9 C9          2.1046   52.5964   28.0769 C.ar      1 UNK         0.0000 
     10 C10         0.9485   52.6010   28.8452 C.ar      1 UNK         0.0000 
     11 C11         0.6326   53.7068   29.6285 C.ar      1 UNK         0.0000 
     12 C12         1.4601   54.8245   29.6300 C.ar      1 UNK         0.0000 
     13 C13         2.6208   54.8361   28.8691 C.ar      1 UNK         0.0000 
     14 N14         3.1157   53.3650   25.0479 N.am      1 UNK         0.0000 
     15 C15         2.0653   53.7069   24.2814 C.2       1 UNK         0.0000 
     16 O16         1.9028   54.8503   23.8732 O.2       1 UNK         0.0000 
     17 N17         1.1487   52.7271   24.1060 N.am      1 UNK         0.0000 
     18 C18        -0.2950   53.0702   24.0795 C.3       1 UNK         0.0000 
     19 C19        -0.9905   52.3530   25.2785 C.3       1 UNK         0.0000 
     20 C20        -0.5040   50.9111   25.3213 C.ar      1 UNK         0.0000 
     21 C21         0.5830   50.4406   24.5888 C.ar      1 UNK         0.0000 
     22 N22         0.6957   49.0842   24.8329 N.pl3     1 UNK         0.0000 
     23 C23        -0.3301   48.7059   25.6693 C.ar      1 UNK         0.0000 
     24 N24        -1.0641   49.8283   25.9731 N.pl3     1 UNK         0.0000 
     25 H25        -1.8354   49.8462   26.6323 H         1 UNK         0.0000 
     26 C26         1.5142   51.3246   23.7625 C.3       1 UNK         0.0000 
     27 H27         2.5394   51.1594   24.0811 H         1 UNK         0.0000 
     28 C28         1.5480   51.0212   22.2543 C.ar      1 UNK         0.0000 
     29 C29         2.7649   51.1416   21.5689 C.ar      1 UNK         0.0000 
     30 C30         2.8503   50.8752   20.2036 C.ar      1 UNK         0.0000 
     31 C31         1.7160   50.4862   19.4960 C.ar      1 UNK         0.0000 
     32 C32         0.4923   50.3747   20.1570 C.ar      1 UNK         0.0000 
     33 C33         0.4042   50.6398   21.5269 C.ar      1 UNK         0.0000 
     34 F34        -0.8016   50.5151   22.1302 F         1 UNK         0.0000 
     35 F35        -0.6097   49.9991   19.4694 F         1 UNK         0.0000 
     36 H36         6.2578   54.0950   21.8909 H         1 UNK         0.0000 
     37 H37         6.7981   55.3998   22.9483 H         1 UNK         0.0000 
     38 H38         7.3209   53.7416   23.2640 H         1 UNK         0.0000 
     39 H39         4.6520   52.7447   27.1859 H         1 UNK         0.0000 
     40 H40         4.9647   54.3568   27.7494 H         1 UNK         0.0000 
     41 H41         2.3231   51.7371   27.4589 H         1 UNK         0.0000 
     42 H42         0.2853   51.7463   28.8339 H         1 UNK         0.0000 
     43 H43        -0.2627   53.6994   30.2307 H         1 UNK         0.0000 
     44 H44         1.1961   55.6886   30.2217 H         1 UNK         0.0000 
     45 H45         3.2524   55.7134   28.8735 H         1 UNK         0.0000 
     46 H46         3.2694   52.3875   25.2427 H         1 UNK         0.0000 
     47 H47        -0.4692   54.1453   24.0807 H         1 UNK         0.0000 
     48 H48        -0.7068   52.7250   23.1328 H         1 UNK         0.0000 
     49 H49        -0.7317   52.8649   26.2054 H         1 UNK         0.0000 
     50 H50        -2.0740   52.4189   25.1853 H         1 UNK         0.0000 
     51 H51        -0.4983   47.7184   26.0829 H         1 UNK         0.0000 
     52 H52         3.6640   51.4539   22.0816 H         1 UNK         0.0000 
     53 H53         3.7939   50.9700   19.6824 H         1 UNK         0.0000 
     54 H54         1.7906   50.2784   18.4385 H         1 UNK         0.0000 
     55 H55         1.4403   48.4791   24.4940 H         1 UNK         0.0000 
@<TRIPOS>BOND
     1    1    2 1    
     2    1   36 1    
     3    1   37 1    
     4    1   38 1    
     5    2    3 1    
     6    3    4 2    
     7    3    5 1    
     8    5    6 1    
     9    5    7 1    
    10    5   14 1    
    11    7    8 1    
    12    7   39 1    
    13    7   40 1    
    14    8   13 ar   
    15    8    9 ar   
    16    9   10 ar   
    17    9   41 1    
    18   10   11 ar   
    19   10   42 1    
    20   11   12 ar   
    21   11   43 1    
    22   12   13 ar   
    23   12   44 1    
    24   13   45 1    
    25   14   15 am   BACKBONE|DICT|INTERRES
    26   14   46 1    
    27   15   16 2    
    28   15   17 am   BACKBONE|DICT|INTERRES
    29   17   26 1    
    30   17   18 1    
    31   18   19 1    
    32   18   47 1    
    33   18   48 1    
    34   19   20 1    
    35   19   49 1    
    36   19   50 1    
    37   20   24 ar   
    38   20   21 ar   
    39   21   22 ar   
    40   21   26 1    
    41   22   23 ar   
    42   22   55 1    
    43   23   24 ar   
    44   23   51 1    
    45   24   25 1    
    46   26   27 1    
    47   26   28 1    
    48   28   33 ar   
    49   28   29 ar   
    50   29   30 ar   
    51   29   52 1    
    52   30   31 ar   
    53   30   53 1    
    54   31   32 ar   
    55   31   54 1    
    56   32   33 ar   
    57   32   35 1    
    58   33   34 1    
@<TRIPOS>SUBSTRUCTURE
     1 UNK         1 GROUP             0       ****    0 ROOT    
