@<TRIPOS>MOLECULE
ZINC12314710_208
61   64    1
SMALL
USER_CHARGES


@<TRIPOS>ATOM
      1 C1          5.8205   54.3563   28.2095 C.3       1 UNK         0.0000 
      2 C2          4.4260   53.8768   27.8231 C.ar      1 UNK         0.0000 
      3 C3          3.5362   53.5221   28.8460 C.ar      1 UNK         0.0000 
      4 C4          2.2452   53.0590   28.5751 C.ar      1 UNK         0.0000 
      5 C5          1.8397   52.9335   27.2385 C.ar      1 UNK         0.0000 
      6 C6          0.6518   52.4956   26.5611 C.2       1 UNK         0.0000 
      7 C7          0.9472   52.6102   25.1973 C.2       1 UNK         0.0000 
      8 O8          2.2023   53.1106   24.9876 O.3       1 UNK         0.0000 
      9 C9          2.7496   53.3042   26.2227 C.ar      1 UNK         0.0000 
     10 C10         4.0440   53.7873   26.4719 C.ar      1 UNK         0.0000 
     11 C11         5.0021   54.1812   25.3544 C.3       1 UNK         0.0000 
     12 C12         0.1079   52.3993   24.0393 C.2       1 UNK         0.0000 
     13 O13        -1.0114   52.9164   24.0137 O.2       1 UNK         0.0000 
     14 N14         0.6117   51.6589   23.0105 N.am      1 UNK         0.0000 
     15 C15         1.8118   50.8059   23.1196 C.3       1 UNK         0.0000 
     16 C16         2.7576   51.2300   21.9780 C.3       1 UNK         0.0000 
     17 C17         2.1419   51.1081   20.5409 C.3       1 UNK         0.0000 
     18 C18         0.7558   51.8433   20.5773 C.3       1 UNK         0.0000 
     19 C19        -0.1722   51.4892   21.7721 C.3       1 UNK         0.0000 
     20 C20         1.9537   49.5813   20.2125 C.2       1 UNK         0.0000 
     21 O21         1.1322   48.8952   20.8115 O.2       1 UNK         0.0000 
     22 N22         2.7033   48.9957   19.2786 N.am      1 UNK         0.0000 
     23 C23         3.8422   53.0617   19.9278 C.3       1 UNK         0.0000 
     24 C24         4.8053   53.5449   18.8299 C.3       1 UNK         0.0000 
     25 C25         4.1119   53.7656   17.4811 C.3       1 UNK         0.0000 
     26 C26         3.3428   52.5106   17.0520 C.3       1 UNK         0.0000 
     27 C27         2.3503   52.0638   18.1269 C.3       1 UNK         0.0000 
     28 C28        -0.6393   52.0320   27.2046 C.3       1 UNK         0.0000 
     29 H29         6.0536   55.2976   27.7106 H         1 UNK         0.0000 
     30 H30         5.9124   54.5298   29.2816 H         1 UNK         0.0000 
     31 H31         6.5696   53.6244   27.9111 H         1 UNK         0.0000 
     32 H32         3.8588   53.5996   29.8740 H         1 UNK         0.0000 
     33 H33         1.5763   52.7894   29.3827 H         1 UNK         0.0000 
     34 H34         4.6315   53.8743   24.3761 H         1 UNK         0.0000 
     35 H35         5.1492   55.2599   25.3452 H         1 UNK         0.0000 
     36 H36         5.9762   53.7121   25.4969 H         1 UNK         0.0000 
     37 H37         2.3044   50.8623   24.0822 H         1 UNK         0.0000 
     38 H38         1.5064   49.7645   23.0153 H         1 UNK         0.0000 
     39 H39         3.0308   52.2552   22.2283 H         1 UNK         0.0000 
     40 H40         3.6510   50.6151   22.0596 H         1 UNK         0.0000 
     41 H41         0.1778   51.5945   19.6857 H         1 UNK         0.0000 
     42 H42         0.9032   52.9235   20.5599 H         1 UNK         0.0000 
     43 H43        -0.5033   50.4515   21.7183 H         1 UNK         0.0000 
     44 H44        -1.0566   52.1256   21.7370 H         1 UNK         0.0000 
     45 H45         3.3421   49.4969   18.6683 H         1 UNK         0.0000 
     46 H46         2.5740   48.0139   19.1046 H         1 UNK         0.0000 
     47 H47         3.1049   53.8077   20.2240 H         1 UNK         0.0000 
     48 H48         4.4629   52.7948   20.7776 H         1 UNK         0.0000 
     49 H49         5.2860   54.4680   19.1551 H         1 UNK         0.0000 
     50 H50         5.6087   52.8137   18.7148 H         1 UNK         0.0000 
     51 H51         4.8500   54.0305   16.7231 H         1 UNK         0.0000 
     52 H52         3.4243   54.6098   17.5517 H         1 UNK         0.0000 
     53 H53         4.0348   51.6983   16.8337 H         1 UNK         0.0000 
     54 H54         2.8122   52.6981   16.1165 H         1 UNK         0.0000 
     55 H55         1.8750   51.1372   17.8083 H         1 UNK         0.0000 
     56 H56         1.5924   52.8261   18.3057 H         1 UNK         0.0000 
     57 H57        -1.1234   51.2436   26.6258 H         1 UNK         0.0000 
     58 H58        -0.4837   51.6341   28.2076 H         1 UNK         0.0000 
     59 H59        -1.3488   52.8562   27.2823 H         1 UNK         0.0000 
     60 N60         3.1017   51.7768   19.4657 N.4       1 UNK         0.0000 
     61 H61         3.8290   51.1051   19.2474 H         1 UNK         0.0000 
@<TRIPOS>BOND
     1    1    2 1    
     2    1   29 1    
     3    1   30 1    
     4    1   31 1    
     5    2   10 ar   
     6    2    3 ar   
     7    3    4 ar   
     8    3   32 1    
     9    4    5 ar   
    10    4   33 1    
    11    5    9 ar   
    12    5    6 1    
    13    6    7 2    
    14    6   28 1    
    15    7    8 1    
    16    7   12 1    
    17    8    9 1    
    18    9   10 ar   
    19   10   11 1    
    20   11   34 1    
    21   11   35 1    
    22   11   36 1    
    23   12   13 2    
    24   12   14 am   BACKBONE|DICT|INTERRES
    25   14   19 1    
    26   14   15 1    
    27   15   16 1    
    28   15   37 1    
    29   15   38 1    
    30   16   17 1    
    31   16   39 1    
    32   16   40 1    
    33   17   18 1    
    34   17   20 1    
    35   17   60 1    
    36   18   19 1    
    37   18   41 1    
    38   18   42 1    
    39   19   43 1    
    40   19   44 1    
    41   20   21 2    
    42   20   22 am   BACKBONE|DICT|INTERRES
    43   22   45 1    
    44   22   46 1    
    45   23   24 1    
    46   23   47 1    
    47   23   48 1    
    48   23   60 1    
    49   24   25 1    
    50   24   49 1    
    51   24   50 1    
    52   25   26 1    
    53   25   51 1    
    54   25   52 1    
    55   26   27 1    
    56   26   53 1    
    57   26   54 1    
    58   27   55 1    
    59   27   56 1    
    60   27   60 1    
    61   28   57 1    
    62   28   58 1    
    63   28   59 1    
    64   60   61 1    
@<TRIPOS>SUBSTRUCTURE
     1 UNK         1 GROUP             0       ****    0 ROOT    
