@<TRIPOS>MOLECULE
ZINC58847739_6127
54   59    1
SMALL
USER_CHARGES


@<TRIPOS>ATOM
      1 C1         -4.7079   51.9908   26.4839 C.ar      1 UNK         0.0000 
      2 C2         -5.8566   52.1962   27.2614 C.ar      1 UNK         0.0000 
      3 C3         -5.8828   51.6344   28.5309 C.ar      1 UNK         0.0000 
      4 C4         -4.8397   50.8969   29.0092 C.ar      1 UNK         0.0000 
      5 C5         -3.6935   50.6756   28.2553 C.ar      1 UNK         0.0000 
      6 C6         -3.6068   51.2390   26.9656 C.ar      1 UNK         0.0000 
      7 C7         -2.3348   51.0259   26.1058 C.3       1 UNK         0.0000 
      8 H8         -2.3915   49.9789   25.8026 H         1 UNK         0.0000 
      9 C9         -0.9937   51.2172   26.8842 C.3       1 UNK         0.0000 
     10 H10        -0.9352   50.4127   27.6123 H         1 UNK         0.0000 
     11 C11        -0.8776   52.4962   27.7063 C.3       1 UNK         0.0000 
     12 C12         0.5846   52.8509   27.6449 C.2       1 UNK         0.0000 
     13 C13         1.2223   52.0974   26.7393 C.2       1 UNK         0.0000 
     14 C14         0.2976   51.1046   26.0511 C.3       1 UNK         0.0000 
     15 H15         0.6921   50.0880   26.1198 H         1 UNK         0.0000 
     16 C16         0.1045   51.4109   24.5653 C.ar      1 UNK         0.0000 
     17 C17         1.1872   51.3636   23.6713 C.ar      1 UNK         0.0000 
     18 C18         1.0397   51.7384   22.3332 C.ar      1 UNK         0.0000 
     19 C19        -0.2201   52.0859   21.8498 C.ar      1 UNK         0.0000 
     20 C20        -1.3153   52.0908   22.7067 C.ar      1 UNK         0.0000 
     21 C21        -1.1524   51.7950   24.0596 C.ar      1 UNK         0.0000 
     22 N22        -2.3027   51.8058   24.8636 N.pl3     1 UNK         0.0000 
     23 S23         2.4594   51.8709   21.2469 S.o2      1 UNK         0.0000 
     24 O24         3.4826   50.9146   21.6817 O.2       1 UNK         0.0000 
     25 O25         1.9483   51.8637   19.8728 O.2       1 UNK         0.0000 
     26 N26         3.1063   53.4944   21.5217 N.pl3     1 UNK         0.0000 
     27 C27         3.9181   53.7979   22.6216 C.ar      1 UNK         0.0000 
     28 C28         5.3032   53.7084   22.4614 C.ar      1 UNK         0.0000 
     29 C29         6.1650   54.0401   23.5085 C.ar      1 UNK         0.0000 
     30 C30         5.6420   54.4266   24.7416 C.ar      1 UNK         0.0000 
     31 C31         4.2597   54.4983   24.9171 C.ar      1 UNK         0.0000 
     32 C32         3.3954   54.2228   23.8541 C.ar      1 UNK         0.0000 
     33 Cl33        1.7029   54.4964   24.0794 Cl        1 UNK         0.0000 
     34 Cl34        6.7044   54.8327   26.0413 Cl        1 UNK         0.0000 
     35 O35        -5.1063   50.5174   30.2868 O.3       1 UNK         0.0000 
     36 C36        -6.4583   50.8245   30.4887 C.3       1 UNK         0.0000 
     37 O37        -6.8365   51.7404   29.4945 O.3       1 UNK         0.0000 
     38 H38        -4.6876   52.4352   25.5010 H         1 UNK         0.0000 
     39 H39        -6.6811   52.7829   26.8850 H         1 UNK         0.0000 
     40 H40        -2.8870   50.0970   28.6743 H         1 UNK         0.0000 
     41 H41        -1.4762   53.2967   27.2808 H         1 UNK         0.0000 
     42 H42        -1.2042   52.3320   28.7345 H         1 UNK         0.0000 
     43 H43         1.0174   53.6323   28.2522 H         1 UNK         0.0000 
     44 H44         2.2707   52.1712   26.4926 H         1 UNK         0.0000 
     45 H45         2.1675   51.0975   24.0394 H         1 UNK         0.0000 
     46 H46        -0.3505   52.3632   20.8134 H         1 UNK         0.0000 
     47 H47        -2.2887   52.3552   22.3196 H         1 UNK         0.0000 
     48 H48        -3.2034   51.8860   24.4176 H         1 UNK         0.0000 
     49 H49         2.5795   54.2410   21.0810 H         1 UNK         0.0000 
     50 H50         5.7086   53.3994   21.5095 H         1 UNK         0.0000 
     51 H51         7.2349   53.9859   23.3660 H         1 UNK         0.0000 
     52 H52         3.8585   54.8191   25.8671 H         1 UNK         0.0000 
     53 H53        -7.0501   49.9124   30.3839 H         1 UNK         0.0000 
     54 H54        -6.6209   51.2290   31.4885 H         1 UNK         0.0000 
@<TRIPOS>BOND
     1    1    6 ar   
     2    1    2 ar   
     3    1   38 1    
     4    2    3 ar   
     5    2   39 1    
     6    3   37 1    
     7    3    4 ar   
     8    4    5 ar   
     9    4   35 1    
    10    5    6 ar   
    11    5   40 1    
    12    6    7 1    
    13    7    8 1    
    14    7   22 1    
    15    7    9 1    
    16    9   10 1    
    17    9   14 1    
    18    9   11 1    
    19   11   12 1    
    20   11   41 1    
    21   11   42 1    
    22   12   13 2    
    23   12   43 1    
    24   13   14 1    
    25   13   44 1    
    26   14   15 1    
    27   14   16 1    
    28   16   21 ar   
    29   16   17 ar   
    30   17   18 ar   
    31   17   45 1    
    32   18   19 ar   
    33   18   23 1    
    34   19   20 ar   
    35   19   46 1    
    36   20   21 ar   
    37   20   47 1    
    38   21   22 1    
    39   22   48 1    
    40   23   24 2    
    41   23   25 2    
    42   23   26 1    
    43   26   27 1    
    44   26   49 1    
    45   27   32 ar   
    46   27   28 ar   
    47   28   29 ar   
    48   28   50 1    
    49   29   30 ar   
    50   29   51 1    
    51   30   31 ar   
    52   30   34 1    
    53   31   32 ar   
    54   31   52 1    
    55   32   33 1    
    56   35   36 1    
    57   36   37 1    
    58   36   53 1    
    59   36   54 1    
@<TRIPOS>SUBSTRUCTURE
     1 UNK         1 GROUP             0       ****    0 ROOT    
