@<TRIPOS>MOLECULE
ZINC09784800_4474
59   63    1
SMALL
USER_CHARGES


@<TRIPOS>ATOM
      1 C1         -1.7637   58.4728   14.4431 C.3       1 UNK         0.0000 
      2 C2         -0.3137   58.5589   14.8827 C.ar      1 UNK         0.0000 
      3 C3          0.3590   57.4015   15.2755 C.ar      1 UNK         0.0000 
      4 C4          1.6917   57.4690   15.6744 C.ar      1 UNK         0.0000 
      5 C5          2.3599   58.7037   15.6819 C.ar      1 UNK         0.0000 
      6 C6          1.6809   59.8561   15.2815 C.ar      1 UNK         0.0000 
      7 C7          0.3492   59.7868   14.8807 C.ar      1 UNK         0.0000 
      8 N8          3.6946   58.8967   16.0838 N.am      1 UNK         0.0000 
      9 C9          4.6003   58.0084   16.5386 C.2       1 UNK         0.0000 
     10 O10         4.3947   56.8072   16.7138 O.2       1 UNK         0.0000 
     11 N11         5.7701   58.6262   16.7989 N.am      1 UNK         0.0000 
     12 C12         6.8567   58.0818   17.4681 C.2       1 UNK         0.0000 
     13 N13         6.8668   56.9986   18.2080 N.2       1 UNK         0.0000 
     14 C14         8.0224   56.8091   18.8291 C.2       1 UNK         0.0000 
     15 C15         9.0131   57.7264   18.4815 C.2       1 UNK         0.0000 
     16 S16         8.3629   58.9290   17.4060 S.3       1 UNK         0.0000 
     17 C17         8.1493   55.6431   19.8133 C.3       1 UNK         0.0000 
     18 C18         6.9545   55.4275   20.7653 C.2       1 UNK         0.0000 
     19 O19         5.8192   55.3902   20.2948 O.2       1 UNK         0.0000 
     20 N20         7.2196   55.2625   22.0813 N.am      1 UNK         0.0000 
     21 C21         6.3046   54.8933   23.0884 C.ar      1 UNK         0.0000 
     22 C22         6.6033   55.2551   24.4029 C.ar      1 UNK         0.0000 
     23 C23         5.7253   54.9357   25.4391 C.ar      1 UNK         0.0000 
     24 C24         4.5298   54.2543   25.1738 C.ar      1 UNK         0.0000 
     25 C25         4.2416   53.8899   23.8535 C.ar      1 UNK         0.0000 
     26 C26         5.1294   54.1739   22.8265 C.ar      1 UNK         0.0000 
     27 C27         3.5594   53.8741   26.2581 C.2       1 UNK         0.0000 
     28 N28         2.4024   53.3160   26.0086 N.2       1 UNK         0.0000 
     29 C29         1.7379   52.9865   27.1428 C.ar      1 UNK         0.0000 
     30 C30         0.4934   52.3441   27.1756 C.ar      1 UNK         0.0000 
     31 C31        -0.0749   52.0643   28.4173 C.ar      1 UNK         0.0000 
     32 C32         0.5678   52.4198   29.6053 C.ar      1 UNK         0.0000 
     33 C33         1.8170   53.0449   29.5930 C.ar      1 UNK         0.0000 
     34 C34         2.3975   53.3293   28.3501 C.ar      1 UNK         0.0000 
     35 S35         3.9351   54.0927   27.9619 S.3       1 UNK         0.0000 
     36 C36        -0.0918   52.1108   30.9327 C.3       1 UNK         0.0000 
     37 H37        -1.9022   57.6279   13.7661 H         1 UNK         0.0000 
     38 H38        -2.4147   58.3195   15.3045 H         1 UNK         0.0000 
     39 H39        -2.0814   59.3688   13.9083 H         1 UNK         0.0000 
     40 H40        -0.1473   56.4476   15.2743 H         1 UNK         0.0000 
     41 H41         2.1740   56.5535   15.9759 H         1 UNK         0.0000 
     42 H42         2.1822   60.8148   15.2893 H         1 UNK         0.0000 
     43 H43        -0.1619   60.6884   14.5753 H         1 UNK         0.0000 
     44 H44         3.9774   59.8730   16.0860 H         1 UNK         0.0000 
     45 H45         5.8473   59.6077   16.5640 H         1 UNK         0.0000 
     46 H46        10.0358   57.7719   18.8274 H         1 UNK         0.0000 
     47 H47         9.0697   55.7395   20.3914 H         1 UNK         0.0000 
     48 H48         8.2642   54.7133   19.2559 H         1 UNK         0.0000 
     49 H49         8.1634   55.4341   22.4030 H         1 UNK         0.0000 
     50 H50         7.5043   55.8058   24.6204 H         1 UNK         0.0000 
     51 H51         5.9780   55.2320   26.4461 H         1 UNK         0.0000 
     52 H52         3.3358   53.3529   23.6126 H         1 UNK         0.0000 
     53 H53         4.8742   53.8372   21.8336 H         1 UNK         0.0000 
     54 H54        -0.0110   52.0638   26.2632 H         1 UNK         0.0000 
     55 H55        -1.0309   51.5588   28.4552 H         1 UNK         0.0000 
     56 H56         2.3179   53.2962   30.5142 H         1 UNK         0.0000 
     57 H57         0.6290   51.7002   31.6400 H         1 UNK         0.0000 
     58 H58        -0.4962   53.0213   31.3747 H         1 UNK         0.0000 
     59 H59        -0.8932   51.3748   30.8409 H         1 UNK         0.0000 
@<TRIPOS>BOND
     1    1    2 1    
     2    1   37 1    
     3    1   38 1    
     4    1   39 1    
     5    2    7 ar   
     6    2    3 ar   
     7    3    4 ar   
     8    3   40 1    
     9    4    5 ar   
    10    4   41 1    
    11    5    6 ar   
    12    5    8 1    
    13    6    7 ar   
    14    6   42 1    
    15    7   43 1    
    16    8    9 am   BACKBONE|DICT|INTERRES
    17    8   44 1    
    18    9   10 2    
    19    9   11 am   BACKBONE|DICT|INTERRES
    20   11   12 am   BACKBONE|DICT|INTERRES
    21   11   45 1    
    22   12   16 1    
    23   12   13 2    
    24   13   14 1    
    25   14   15 2    
    26   14   17 1    
    27   15   16 1    
    28   15   46 1    
    29   17   18 1    
    30   17   47 1    
    31   17   48 1    
    32   18   19 2    
    33   18   20 am   BACKBONE|DICT|INTERRES
    34   20   21 1    
    35   20   49 1    
    36   21   26 ar   
    37   21   22 ar   
    38   22   23 ar   
    39   22   50 1    
    40   23   24 ar   
    41   23   51 1    
    42   24   25 ar   
    43   24   27 1    
    44   25   26 ar   
    45   25   52 1    
    46   26   53 1    
    47   27   35 1    
    48   27   28 2    
    49   28   29 1    
    50   29   34 ar   
    51   29   30 ar   
    52   30   31 ar   
    53   30   54 1    
    54   31   32 ar   
    55   31   55 1    
    56   32   33 ar   
    57   32   36 1    
    58   33   34 ar   
    59   33   56 1    
    60   34   35 1    
    61   36   57 1    
    62   36   58 1    
    63   36   59 1    
@<TRIPOS>SUBSTRUCTURE
     1 UNK         1 GROUP             0       ****    0 ROOT    
