@<TRIPOS>MOLECULE
ZINC44136281_2423
73   75    1
SMALL
USER_CHARGES


@<TRIPOS>ATOM
      1 C1          7.4291   58.8328   16.7970 C.3       1 UNK         0.0000 
      2 C2          7.9480   57.5257   17.3563 C.2       1 UNK         0.0000 
      3 N3          7.1676   56.6651   17.9583 N.2       1 UNK         0.0000 
      4 C4          7.8008   55.5875   18.3907 C.2       1 UNK         0.0000 
      5 C5          9.1655   55.5707   18.1162 C.2       1 UNK         0.0000 
      6 S6          9.6070   57.0250   17.2782 S.3       1 UNK         0.0000 
      7 C7          7.0688   54.5475   19.1147 C.2       1 UNK         0.0000 
      8 C8          5.7993   54.4919   19.5887 C.2       1 UNK         0.0000 
      9 C9          4.7885   55.5901   19.2846 C.3       1 UNK         0.0000 
     10 C10         5.2995   53.2699   20.4088 C.3       1 UNK         0.0000 
     11 H11         5.8608   52.4105   20.0386 H         1 UNK         0.0000 
     12 C12         5.5044   53.3175   21.9641 C.3       1 UNK         0.0000 
     13 C13         4.6477   54.3203   22.7370 C.3       1 UNK         0.0000 
     14 H14         4.1961   55.1130   22.1455 H         1 UNK         0.0000 
     15 C15         4.0310   53.9045   24.0394 C.3       1 UNK         0.0000 
     16 H16         4.1432   52.8983   24.4275 H         1 UNK         0.0000 
     17 O17         5.1933   54.6750   23.9896 O.3       1 UNK         0.0000 
     18 C18         2.8247   54.6403   24.5869 C.3       1 UNK         0.0000 
     19 C19         1.5158   53.8471   24.5380 C.3       1 UNK         0.0000 
     20 C20         1.0681   53.3810   23.1476 C.3       1 UNK         0.0000 
     21 C21        -0.3623   52.7639   23.0896 C.3       1 UNK         0.0000 
     22 H22        -0.6190   52.7697   22.0298 H         1 UNK         0.0000 
     23 C23        -0.4747   51.2786   23.5722 C.3       1 UNK         0.0000 
     24 H24        -1.5095   50.9690   23.4028 H         1 UNK         0.0000 
     25 C25         0.4584   50.2388   22.8778 C.3       1 UNK         0.0000 
     26 H26         1.4649   50.5138   23.1779 H         1 UNK         0.0000 
     27 C27         0.3848   50.2577   21.3224 C.2       1 UNK         0.0000 
     28 O28        -0.7030   50.4830   20.7902 O.2       1 UNK         0.0000 
     29 C29         1.6446   49.9010   20.4521 C.3       1 UNK         0.0000 
     30 C30         1.6948   50.7208   19.0982 C.3       1 UNK         0.0000 
     31 H31         2.5376   50.3365   18.5132 H         1 UNK         0.0000 
     32 C32         1.8511   52.2585   19.2200 C.3       1 UNK         0.0000 
     33 C33         3.3001   52.7215   19.0490 C.2       1 UNK         0.0000 
     34 O34         3.7893   52.8960   17.9332 O.2       1 UNK         0.0000 
     35 O35         3.9106   52.9369   20.2423 O.3       1 UNK         0.0000 
     36 O36         0.5909   50.4781   18.2434 O.3       1 UNK         0.0000 
     37 C37         1.5882   48.3915   20.0687 C.3       1 UNK         0.0000 
     38 C38         2.9572   50.1318   21.2411 C.3       1 UNK         0.0000 
     39 C39         0.2109   48.8025   23.4075 C.3       1 UNK         0.0000 
     40 O40        -0.2599   51.2230   24.9777 O.3       1 UNK         0.0000 
     41 C41        -1.4481   53.6505   23.7618 C.3       1 UNK         0.0000 
     42 H42         6.3431   58.8990   16.8587 H         1 UNK         0.0000 
     43 H43         7.6944   58.9568   15.7455 H         1 UNK         0.0000 
     44 H44         7.8317   59.6918   17.3334 H         1 UNK         0.0000 
     45 H45         9.9082   54.8273   18.3749 H         1 UNK         0.0000 
     46 H46         7.7010   53.6954   19.2821 H         1 UNK         0.0000 
     47 H47         3.8178   55.2970   19.6822 H         1 UNK         0.0000 
     48 H48         5.1102   56.5381   19.7019 H         1 UNK         0.0000 
     49 H49         4.6560   55.7032   18.2071 H         1 UNK         0.0000 
     50 H50         5.2885   52.3145   22.3369 H         1 UNK         0.0000 
     51 H51         6.5091   53.5239   22.3509 H         1 UNK         0.0000 
     52 H52         2.7005   55.5959   24.0835 H         1 UNK         0.0000 
     53 H53         3.0657   54.8952   25.6219 H         1 UNK         0.0000 
     54 H54         0.7421   54.5191   24.8816 H         1 UNK         0.0000 
     55 H55         1.5580   53.0138   25.2366 H         1 UNK         0.0000 
     56 H56         1.8008   52.6878   22.7444 H         1 UNK         0.0000 
     57 H57         1.1078   54.2429   22.4831 H         1 UNK         0.0000 
     58 H58         1.4602   52.6184   20.1717 H         1 UNK         0.0000 
     59 H59         1.2690   52.7649   18.4501 H         1 UNK         0.0000 
     60 H60         0.6347   49.5648   17.9494 H         1 UNK         0.0000 
     61 H61         2.2652   48.1565   19.2470 H         1 UNK         0.0000 
     62 H62         1.9006   47.7423   20.8817 H         1 UNK         0.0000 
     63 H63         0.5903   48.0679   19.7607 H         1 UNK         0.0000 
     64 H64         3.8270   50.0963   20.5839 H         1 UNK         0.0000 
     65 H65         2.9933   51.1046   21.7246 H         1 UNK         0.0000 
     66 H66         3.0973   49.3832   22.0205 H         1 UNK         0.0000 
     67 H67         1.1059   48.1997   23.2820 H         1 UNK         0.0000 
     68 H68        -0.0124   48.7643   24.4747 H         1 UNK         0.0000 
     69 H69        -0.6160   48.3040   22.8953 H         1 UNK         0.0000 
     70 H70        -0.4807   50.3415   25.2952 H         1 UNK         0.0000 
     71 H71        -1.5093   53.4492   24.8342 H         1 UNK         0.0000 
     72 H72        -1.2352   54.7117   23.6817 H         1 UNK         0.0000 
     73 H73        -2.4369   53.4612   23.3365 H         1 UNK         0.0000 
@<TRIPOS>BOND
     1    1    2 1    
     2    1   42 1    
     3    1   43 1    
     4    1   44 1    
     5    2    6 1    
     6    2    3 2    
     7    3    4 1    
     8    4    5 2    
     9    4    7 1    
    10    5    6 1    
    11    5   45 1    
    12    7    8 2    
    13    7   46 1    
    14    8    9 1    
    15    8   10 1    
    16    9   47 1    
    17    9   48 1    
    18    9   49 1    
    19   10   11 1    
    20   10   35 1    
    21   10   12 1    
    22   12   13 1    
    23   12   50 1    
    24   12   51 1    
    25   13   14 1    
    26   13   17 1    
    27   13   15 1    
    28   15   16 1    
    29   15   17 1    
    30   15   18 1    
    31   18   19 1    
    32   18   52 1    
    33   18   53 1    
    34   19   20 1    
    35   19   54 1    
    36   19   55 1    
    37   20   21 1    
    38   20   56 1    
    39   20   57 1    
    40   21   22 1    
    41   21   23 1    
    42   21   41 1    
    43   23   24 1    
    44   23   25 1    
    45   23   40 1    
    46   25   26 1    
    47   25   27 1    
    48   25   39 1    
    49   27   28 2    
    50   27   29 1    
    51   29   30 1    
    52   29   37 1    
    53   29   38 1    
    54   30   31 1    
    55   30   32 1    
    56   30   36 1    
    57   32   33 1    
    58   32   58 1    
    59   32   59 1    
    60   33   34 2    
    61   33   35 1    
    62   36   60 1    
    63   37   61 1    
    64   37   62 1    
    65   37   63 1    
    66   38   64 1    
    67   38   65 1    
    68   38   66 1    
    69   39   67 1    
    70   39   68 1    
    71   39   69 1    
    72   40   70 1    
    73   41   71 1    
    74   41   72 1    
    75   41   73 1    
@<TRIPOS>SUBSTRUCTURE
     1 UNK         1 GROUP             0       ****    0 ROOT    
