@<TRIPOS>MOLECULE
ZINC12950916_2954
51   53    1
SMALL
USER_CHARGES


@<TRIPOS>ATOM
      1 C1         -4.2180   53.5177   24.7556 C.3       1 UNK         0.0000 
      2 O2         -3.3491   52.4074   24.9375 O.3       1 UNK         0.0000 
      3 C3         -2.1180   52.3841   24.3665 C.2       1 UNK         0.0000 
      4 O4         -1.6557   53.2981   23.6817 O.2       1 UNK         0.0000 
      5 C5         -1.3733   51.1478   24.6433 C.2       1 UNK         0.0000 
      6 C6         -0.1011   50.7498   24.1796 C.2       1 UNK         0.0000 
      7 C7          0.2882   49.5055   24.7222 C.2       1 UNK         0.0000 
      8 C8         -0.6588   48.9538   25.5626 C.2       1 UNK         0.0000 
      9 S9         -2.0738   49.9317   25.6818 S.3       1 UNK         0.0000 
     10 N10         0.6465   51.5407   23.3102 N.am      1 UNK         0.0000 
     11 C11         1.7637   51.1973   22.6353 C.2       1 UNK         0.0000 
     12 O12         2.2988   50.0899   22.6849 O.2       1 UNK         0.0000 
     13 C13         2.3607   52.3060   21.7581 C.3       1 UNK         0.0000 
     14 S14         3.7537   51.7756   20.7090 S.3       1 UNK         0.0000 
     15 C15         4.1425   53.1786   19.6900 C.ar      1 UNK         0.0000 
     16 C16         3.6883   53.1775   18.3712 C.ar      1 UNK         0.0000 
     17 C17         4.0038   54.2304   17.5169 C.ar      1 UNK         0.0000 
     18 C18         4.7875   55.2883   17.9744 C.ar      1 UNK         0.0000 
     19 C19         5.2640   55.2896   19.2851 C.ar      1 UNK         0.0000 
     20 C20         4.9508   54.2337   20.1578 C.ar      1 UNK         0.0000 
     21 N21         5.4218   54.1346   21.4797 N.am      1 UNK         0.0000 
     22 C22         6.3067   54.8838   22.1645 C.2       1 UNK         0.0000 
     23 O23         6.8780   55.8840   21.7302 O.2       1 UNK         0.0000 
     24 C24         6.6109   54.3653   23.5764 C.3       1 UNK         0.0000 
     25 S25         6.3078   55.5986   24.8768 S.3       1 UNK         0.0000 
     26 C26         5.5794   54.7264   26.2125 C.ar      1 UNK         0.0000 
     27 C27         6.3775   54.3457   27.2872 C.ar      1 UNK         0.0000 
     28 C28         5.7968   53.6917   28.3669 C.ar      1 UNK         0.0000 
     29 C29         4.4299   53.4144   28.3606 C.ar      1 UNK         0.0000 
     30 C30         3.6348   53.7964   27.2794 C.ar      1 UNK         0.0000 
     31 C31         4.2120   54.4571   26.1980 C.ar      1 UNK         0.0000 
     32 Br32        3.6444   52.4975   29.8341 Br        1 UNK         0.0000 
     33 H33        -5.1643   53.3310   25.2639 H         1 UNK         0.0000 
     34 H34        -4.4287   53.6842   23.6990 H         1 UNK         0.0000 
     35 H35        -3.7883   54.4313   25.1662 H         1 UNK         0.0000 
     36 H36         1.2310   49.0145   24.5359 H         1 UNK         0.0000 
     37 H37        -0.5921   48.0363   26.1298 H         1 UNK         0.0000 
     38 H38         0.2532   52.4520   23.1261 H         1 UNK         0.0000 
     39 H39         1.5853   52.6999   21.1004 H         1 UNK         0.0000 
     40 H40         2.6898   53.1223   22.4015 H         1 UNK         0.0000 
     41 H41         3.1045   52.3443   18.0047 H         1 UNK         0.0000 
     42 H42         3.6517   54.2207   16.4959 H         1 UNK         0.0000 
     43 H43         5.0343   56.1020   17.3078 H         1 UNK         0.0000 
     44 H44         5.8709   56.1270   19.5932 H         1 UNK         0.0000 
     45 H45         5.0622   53.3187   21.9503 H         1 UNK         0.0000 
     46 H46         6.0374   53.4640   23.8003 H         1 UNK         0.0000 
     47 H47         7.6554   54.0627   23.6071 H         1 UNK         0.0000 
     48 H48         7.4361   54.5643   27.2973 H         1 UNK         0.0000 
     49 H49         6.4161   53.3993   29.2003 H         1 UNK         0.0000 
     50 H50         2.5754   53.5806   27.2785 H         1 UNK         0.0000 
     51 H51         3.6017   54.7657   25.3599 H         1 UNK         0.0000 
@<TRIPOS>BOND
     1    1    2 1    
     2    1   33 1    
     3    1   34 1    
     4    1   35 1    
     5    2    3 1    
     6    3    4 2    
     7    3    5 1    
     8    5    9 1    
     9    5    6 2    
    10    6    7 1    
    11    6   10 1    
    12    7    8 2    
    13    7   36 1    
    14    8    9 1    
    15    8   37 1    
    16   10   11 am   BACKBONE|DICT|INTERRES
    17   10   38 1    
    18   11   12 2    
    19   11   13 1    
    20   13   14 1    
    21   13   39 1    
    22   13   40 1    
    23   14   15 1    
    24   15   20 ar   
    25   15   16 ar   
    26   16   17 ar   
    27   16   41 1    
    28   17   18 ar   
    29   17   42 1    
    30   18   19 ar   
    31   18   43 1    
    32   19   20 ar   
    33   19   44 1    
    34   20   21 1    
    35   21   22 am   BACKBONE|DICT|INTERRES
    36   21   45 1    
    37   22   23 2    
    38   22   24 1    
    39   24   25 1    
    40   24   46 1    
    41   24   47 1    
    42   25   26 1    
    43   26   31 ar   
    44   26   27 ar   
    45   27   28 ar   
    46   27   48 1    
    47   28   29 ar   
    48   28   49 1    
    49   29   30 ar   
    50   29   32 1    
    51   30   31 ar   
    52   30   50 1    
    53   31   51 1    
@<TRIPOS>SUBSTRUCTURE
     1 UNK         1 GROUP             0       ****    0 ROOT    
