@<TRIPOS>MOLECULE
ZINC39938594_803
58   63    1
SMALL
USER_CHARGES


@<TRIPOS>ATOM
      1 C1          0.4146   51.7453   28.5458 C.2       1 UNK         0.0000 
      2 C2          1.4222   52.6736   29.0367 C.2       1 UNK         0.0000 
      3 C3          2.2011   53.4056   28.1957 C.2       1 UNK         0.0000 
      4 C4          2.0463   53.2931   26.8069 C.2       1 UNK         0.0000 
      5 N5          2.7045   53.9019   25.8446 N.pl3     1 UNK         0.0000 
      6 C6          2.1780   53.5029   24.5240 C.3       1 UNK         0.0000 
      7 C7          1.1245   52.4962   24.9284 C.2       1 UNK         0.0000 
      8 C8          1.0829   52.4224   26.2789 C.2       1 UNK         0.0000 
      9 C9          0.2586   51.6272   27.2123 C.2       1 UNK         0.0000 
     10 C10         0.3289   51.7537   23.9846 C.2       1 UNK         0.0000 
     11 N11        -0.4298   50.7692   24.2510 N.2       1 UNK         0.0000 
     12 N12        -1.0119   50.4119   23.0384 N.pl3     1 UNK         0.0000 
     13 C13        -0.3466   51.1537   22.0203 C.3       1 UNK         0.0000 
     14 H14        -1.0795   51.6708   21.4009 H         1 UNK         0.0000 
     15 O15         0.4176   52.1002   22.6647 O.3       1 UNK         0.0000 
     16 S16         0.5507   50.0782   20.8467 S.3       1 UNK         0.0000 
     17 C17         2.3026   50.3124   21.3075 C.3       1 UNK         0.0000 
     18 C18         2.9147   51.6770   20.9539 C.2       1 UNK         0.0000 
     19 O19         2.3037   52.4885   20.2571 O.2       1 UNK         0.0000 
     20 N20         4.1329   51.9116   21.4809 N.am      1 UNK         0.0000 
     21 C21         4.8871   53.0820   21.3394 C.ar      1 UNK         0.0000 
     22 C22         5.5044   53.6168   22.4871 C.ar      1 UNK         0.0000 
     23 C23         6.3017   54.7660   22.4087 C.ar      1 UNK         0.0000 
     24 C24         6.4745   55.3356   21.1540 C.ar      1 UNK         0.0000 
     25 C25         5.9022   54.8070   20.0323 C.ar      1 UNK         0.0000 
     26 C26         5.0901   53.6802   20.0819 C.ar      1 UNK         0.0000 
     27 O27         6.2656   55.5459   18.9533 O.3       1 UNK         0.0000 
     28 C28         7.2369   56.4612   19.4099 C.3       1 UNK         0.0000 
     29 O29         7.1766   56.4459   20.8153 O.3       1 UNK         0.0000 
     30 C30         6.8897   57.8550   18.8924 C.3       1 UNK         0.0000 
     31 C31         6.9296   57.8832   17.3481 C.3       1 UNK         0.0000 
     32 C32         8.2897   57.3986   16.8017 C.3       1 UNK         0.0000 
     33 C33         8.6996   56.0323   17.3922 C.3       1 UNK         0.0000 
     34 C34         8.6348   56.0280   18.9361 C.3       1 UNK         0.0000 
     35 H35        -0.1876   51.1595   29.2276 H         1 UNK         0.0000 
     36 H36         1.5546   52.7759   30.1039 H         1 UNK         0.0000 
     37 H37         2.9386   54.0731   28.6173 H         1 UNK         0.0000 
     38 H38         2.9920   53.0835   23.9341 H         1 UNK         0.0000 
     39 H39         1.7761   54.3868   24.0244 H         1 UNK         0.0000 
     40 H40        -0.4860   50.9214   26.8671 H         1 UNK         0.0000 
     41 H41        -1.0333   49.4037   22.9968 H         1 UNK         0.0000 
     42 H42         2.8771   49.5478   20.7836 H         1 UNK         0.0000 
     43 H43         2.4077   50.1165   22.3750 H         1 UNK         0.0000 
     44 H44         4.5236   51.2059   22.0831 H         1 UNK         0.0000 
     45 H45         5.3716   53.1458   23.4489 H         1 UNK         0.0000 
     46 H46         6.7730   55.1804   23.2871 H         1 UNK         0.0000 
     47 H47         4.6523   53.2635   19.1843 H         1 UNK         0.0000 
     48 H48         7.6074   58.5778   19.2794 H         1 UNK         0.0000 
     49 H49         5.9039   58.1079   19.2690 H         1 UNK         0.0000 
     50 H50         6.7234   58.8938   16.9930 H         1 UNK         0.0000 
     51 H51         6.1297   57.2599   16.9444 H         1 UNK         0.0000 
     52 H52         9.0555   58.1372   17.0405 H         1 UNK         0.0000 
     53 H53         8.2541   57.3384   15.7145 H         1 UNK         0.0000 
     54 H54         9.7061   55.7726   17.0639 H         1 UNK         0.0000 
     55 H55         8.0465   55.2537   16.9957 H         1 UNK         0.0000 
     56 H56         8.8713   55.0427   19.3424 H         1 UNK         0.0000 
     57 H57         9.3725   56.7327   19.3255 H         1 UNK         0.0000 
     58 H58         3.4562   54.5728   25.9784 H         1 UNK         0.0000 
@<TRIPOS>BOND
     1    1    9 2    
     2    1    2 1    
     3    1   35 1    
     4    2    3 2    
     5    2   36 1    
     6    3    4 1    
     7    3   37 1    
     8    4    8 1    
     9    4    5 2    
    10    5    6 1    
    11    5   58 1    
    12    6    7 1    
    13    6   38 1    
    14    6   39 1    
    15    7    8 2    
    16    7   10 1    
    17    8    9 1    
    18    9   40 1    
    19   10   15 1    
    20   10   11 2    
    21   11   12 1    
    22   12   13 1    
    23   12   41 1    
    24   13   14 1    
    25   13   15 1    
    26   13   16 1    
    27   16   17 1    
    28   17   18 1    
    29   17   42 1    
    30   17   43 1    
    31   18   19 2    
    32   18   20 am   BACKBONE|DICT|INTERRES
    33   20   21 1    
    34   20   44 1    
    35   21   26 ar   
    36   21   22 ar   
    37   22   23 ar   
    38   22   45 1    
    39   23   24 ar   
    40   23   46 1    
    41   24   29 1    
    42   24   25 ar   
    43   25   26 ar   
    44   25   27 1    
    45   26   47 1    
    46   27   28 1    
    47   28   34 1    
    48   28   29 1    
    49   28   30 1    
    50   30   31 1    
    51   30   48 1    
    52   30   49 1    
    53   31   32 1    
    54   31   50 1    
    55   31   51 1    
    56   32   33 1    
    57   32   52 1    
    58   32   53 1    
    59   33   34 1    
    60   33   54 1    
    61   33   55 1    
    62   34   56 1    
    63   34   57 1    
@<TRIPOS>SUBSTRUCTURE
     1 UNK         1 GROUP             0       ****    0 ROOT    
