ZINC04623712_3808
                    3D
 Schrodinger Suite 2024-2.
 50 54  0  0  1  0            999 V2000
    4.3040   54.3641   18.9808 C   0  0  0  0  0  0
    4.0211   53.2901   20.0251 C   0  0  0  0  0  0
    4.9590   52.8739   20.7070 O   0  0  0  0  0  0
    2.7315   52.8967   20.1446 N   0  0  0  0  0  0
    2.2042   51.8798   20.9639 C   0  0  0  0  0  0
    2.9873   50.8144   21.4205 C   0  0  0  0  0  0
    2.4507   49.8677   22.2786 C   0  0  0  0  0  0
    1.1187   49.9467   22.6599 C   0  0  0  0  0  0
    0.2699   50.9463   22.1417 C   0  0  0  0  0  0
    0.8406   51.9194   21.3014 C   0  0  0  0  0  0
   -1.2239   50.8573   22.4901 C   0  0  2  0  0  0
   -1.5993   50.2262   21.6803 H   0  0  0  0  0  0
   -2.1659   52.0779   22.5628 C   0  0  2  0  0  0
   -2.3432   52.5321   21.5901 H   0  0  0  0  0  0
   -1.7852   53.0807   23.6780 C   0  0  0  0  0  0
   -2.2747   52.3859   24.9609 C   0  0  0  0  0  0
   -2.6695   50.9802   24.4563 C   0  0  1  0  0  0
   -3.2836   50.4243   25.1661 H   0  0  0  0  0  0
   -3.4009   51.4067   23.1842 C   0  0  0  0  0  0
   -1.5162   50.1332   23.8300 C   0  0  2  0  0  0
   -1.9755   49.1795   23.5570 H   0  0  0  0  0  0
   -0.2639   49.7079   24.6508 C   0  0  1  0  0  0
   -0.5741   48.8726   25.2815 H   0  0  0  0  0  0
    0.7047   49.1246   23.7214 N   0  0  0  0  0  0
    0.3052   50.7617   25.6194 C   0  0  0  0  0  0
    0.0529   50.5826   26.9750 C   0  0  0  0  0  0
    0.5012   51.4999   27.9217 C   0  0  0  0  0  0
    1.2269   52.6186   27.5099 C   0  0  0  0  0  0
    1.5021   52.8114   26.1545 C   0  0  0  0  0  0
    1.0454   51.8864   25.2161 C   0  0  0  0  0  0
    1.7024   53.5800   28.4960 C   0  0  0  0  0  0
    2.0811   54.3434   29.2809 N   0  0  0  0  0  0
    3.3855   54.7628   18.5476 H   0  0  0  0  0  0
    4.8589   55.1889   19.4284 H   0  0  0  0  0  0
    4.9056   53.9423   18.1748 H   0  0  0  0  0  0
    2.0497   53.4869   19.6854 H   0  0  0  0  0  0
    4.0244   50.7154   21.1421 H   0  0  0  0  0  0
    3.0953   49.0999   22.6811 H   0  0  0  0  0  0
    0.2186   52.7096   20.9090 H   0  0  0  0  0  0
   -0.7180   53.2964   23.6870 H   0  0  0  0  0  0
   -2.3053   54.0290   23.5424 H   0  0  0  0  0  0
   -3.1568   52.8991   25.3491 H   0  0  0  0  0  0
   -1.5620   52.4144   25.7770 H   0  0  0  0  0  0
   -4.2299   52.0966   23.3621 H   0  0  0  0  0  0
   -3.7941   50.5701   22.6010 H   0  0  0  0  0  0
    1.3906   48.5252   24.1667 H   0  0  0  0  0  0
   -0.4957   49.7062   27.2816 H   0  0  0  0  0  0
    0.2807   51.3241   28.9662 H   0  0  0  0  0  0
    2.0680   53.6683   25.8160 H   0  0  0  0  0  0
    1.2800   52.0681   24.1824 H   0  0  0  0  0  0
  1  2  1  0  0  0
  1 33  1  0  0  0
  1 34  1  0  0  0
  1 35  1  0  0  0
  2  3  2  0  0  0
  2  4  1  0  0  0
  4  5  1  0  0  0
  4 36  1  0  0  0
  5 10  2  0  0  0
  5  6  1  0  0  0
  6  7  2  0  0  0
  6 37  1  0  0  0
  7  8  1  0  0  0
  7 38  1  0  0  0
  8 24  1  0  0  0
  8  9  2  0  0  0
  9 10  1  0  0  0
  9 11  1  0  0  0
 10 39  1  0  0  0
 11 12  1  0  0  0
 11 20  1  0  0  0
 11 13  1  0  0  0
 13 14  1  0  0  0
 13 19  1  0  0  0
 13 15  1  0  0  0
 15 16  1  0  0  0
 15 40  1  0  0  0
 15 41  1  0  0  0
 16 17  1  0  0  0
 16 42  1  0  0  0
 16 43  1  0  0  0
 17 18  1  0  0  0
 17 19  1  0  0  0
 17 20  1  0  0  0
 19 44  1  0  0  0
 19 45  1  0  0  0
 20 21  1  0  0  0
 20 22  1  0  0  0
 22 23  1  0  0  0
 22 24  1  0  0  0
 22 25  1  0  0  0
 24 46  1  0  0  0
 25 30  2  0  0  0
 25 26  1  0  0  0
 26 27  2  0  0  0
 26 47  1  0  0  0
 27 28  1  0  0  0
 27 48  1  0  0  0
 28 29  2  0  0  0
 28 31  1  0  0  0
 29 30  1  0  0  0
 29 49  1  0  0  0
 30 50  1  0  0  0
 31 32  3  0  0  0
M  END
> <i_i_glide_confnum>
11

> <i_i_glide_lignum>
3809

> <i_i_glide_posenum>
138

> <i_i_glide_rotatable_bonds>
4

> <i_m_Source_File_Index>
1166

> <b_m_subgroup_collapsed>
0

> <r_i_docking_score>
-4.76582

> <r_i_glide_ecoul>
-6.72832

> <r_i_glide_eff_state_penalty>
0

> <r_i_glide_einternal>
0.0658341

> <r_i_glide_emodel>
-44.4855

> <r_i_glide_energy>
-34.7297

> <r_i_glide_erotb>
0.299668

> <r_i_glide_esite>
-0.0470927

> <r_i_glide_evdw>
-28.0014

> <r_i_glide_gscore>
-4.76582

> <r_i_glide_hbond>
-0.510267

> <r_i_glide_ligand_efficiency>
-0.176512

> <r_i_glide_ligand_efficiency_ln>
-1.10941

> <r_i_glide_ligand_efficiency_sa>
-0.529536

> <r_i_glide_lipo>
-0.886487

> <r_i_glide_metal>
0

> <r_i_glide_rewards>
-1.21233

> <s_i_glide_gridfile>
wee1_glide-grid

> <s_m_Source_File>
wee1_decoys_glide_SP.sdf

> <s_m_Source_Path>
/Users/zhangxujun/Desktop

> <s_m_entry_id>
1441

> <s_m_entry_name>
wee1_decoys_glide_SP.1166

> <s_m_subgroup_title>
wee1_decoys_glide_SP

> <s_m_subgroupid>
wee1_decoys_glide_SP


$$$$
