ZINC26456482_4335
                    3D
 Schrodinger Suite 2024-2.
 58 62  0  0  1  0            999 V2000
   -4.7000   51.5095   18.0717 C   0  0  0  0  0  0
   -3.2424   51.7484   18.4125 C   0  0  0  0  0  0
   -2.3232   52.1439   17.4371 C   0  0  0  0  0  0
   -0.9909   52.3199   17.8156 C   0  0  0  0  0  0
   -0.6164   52.0969   19.1417 C   0  0  0  0  0  0
   -1.5911   51.7053   20.0649 C   0  0  0  0  0  0
   -2.8952   51.5412   19.7068 N   0  0  0  0  0  0
   -1.1595   51.5518   21.3901 N   0  0  0  0  0  0
   -1.7642   50.9385   22.4316 C   0  0  0  0  0  0
   -2.8884   50.4422   22.3357 O   0  0  0  0  0  0
   -1.0044   50.9479   23.6941 C   0  0  0  0  0  0
   -1.3148   50.0981   24.7211 C   0  0  0  0  0  0
   -0.6519   50.1744   25.9227 N   0  0  0  0  0  0
    0.3043   51.1061   26.2369 C   0  0  0  0  0  0
    0.6569   52.0695   25.3455 C   0  0  0  0  0  0
    0.1031   52.0465   23.8882 C   0  0  1  0  0  0
   -0.3856   53.0128   23.7395 H   0  0  0  0  0  0
    1.2568   52.0345   22.8656 C   0  0  0  0  0  0
    1.7419   53.2428   22.3563 C   0  0  0  0  0  0
    2.9056   53.2716   21.6055 C   0  0  0  0  0  0
    3.5437   52.0809   21.2933 C   0  0  0  0  0  0
    3.0056   50.8576   21.6814 C   0  0  0  0  0  0
    1.8742   50.8332   22.4954 C   0  0  0  0  0  0
    5.0515   52.1421   20.4813 Cl  0  0  0  0  0  0
    1.6041   53.1490   25.7434 C   0  0  0  0  0  0
    1.9001   54.0966   25.0226 O   0  0  0  0  0  0
    2.2326   53.0740   27.1335 C   0  0  0  0  0  0
    1.3101   52.4011   28.1610 C   0  0  1  0  0  0
    0.4289   53.0417   28.2550 H   0  0  0  0  0  0
    0.8491   51.0184   27.6576 C   0  0  0  0  0  0
    1.9703   52.2993   29.5136 C   0  0  0  0  0  0
    3.2876   52.2480   29.9497 C   0  0  0  0  0  0
    3.2462   52.0974   31.3330 C   0  0  0  0  0  0
    1.9044   52.0968   31.6816 C   0  0  0  0  0  0
    1.1328   52.2090   30.5759 O   0  0  0  0  0  0
   -2.3034   48.9324   24.7126 C   0  0  0  0  0  0
   -4.9857   52.0397   17.1635 H   0  0  0  0  0  0
   -5.3549   51.8430   18.8769 H   0  0  0  0  0  0
   -4.8768   50.4455   17.9135 H   0  0  0  0  0  0
   -2.6258   52.3011   16.4121 H   0  0  0  0  0  0
   -0.2511   52.6217   17.0885 H   0  0  0  0  0  0
    0.4142   52.2372   19.4383 H   0  0  0  0  0  0
   -0.2039   51.8349   21.5532 H   0  0  0  0  0  0
   -0.9014   49.5030   26.6429 H   0  0  0  0  0  0
    1.2685   54.1794   22.6094 H   0  0  0  0  0  0
    3.3118   54.2176   21.2775 H   0  0  0  0  0  0
    3.5041   49.9372   21.4142 H   0  0  0  0  0  0
    1.5067   49.8877   22.8704 H   0  0  0  0  0  0
    2.5409   54.0730   27.4425 H   0  0  0  0  0  0
    3.1493   52.4967   27.0303 H   0  0  0  0  0  0
    0.0480   50.7163   28.3363 H   0  0  0  0  0  0
    1.6405   50.2682   27.6812 H   0  0  0  0  0  0
    4.1740   52.2932   29.3334 H   0  0  0  0  0  0
    4.0902   52.0144   32.0043 H   0  0  0  0  0  0
    1.3668   52.0120   32.6148 H   0  0  0  0  0  0
   -2.3812   48.4684   23.7290 H   0  0  0  0  0  0
   -2.0010   48.1366   25.3983 H   0  0  0  0  0  0
   -3.2944   49.2751   25.0149 H   0  0  0  0  0  0
  1  2  1  0  0  0
  1 37  1  0  0  0
  1 38  1  0  0  0
  1 39  1  0  0  0
  2  7  2  0  0  0
  2  3  1  0  0  0
  3  4  2  0  0  0
  3 40  1  0  0  0
  4  5  1  0  0  0
  4 41  1  0  0  0
  5  6  2  0  0  0
  5 42  1  0  0  0
  6  7  1  0  0  0
  6  8  1  0  0  0
  8  9  1  0  0  0
  8 43  1  0  0  0
  9 10  2  0  0  0
  9 11  1  0  0  0
 11 16  1  0  0  0
 11 12  2  0  0  0
 12 13  1  0  0  0
 12 36  1  0  0  0
 13 14  1  0  0  0
 13 44  1  0  0  0
 14 30  1  0  0  0
 14 15  2  0  0  0
 15 16  1  0  0  0
 15 25  1  0  0  0
 16 17  1  0  0  0
 16 18  1  0  0  0
 18 23  2  0  0  0
 18 19  1  0  0  0
 19 20  2  0  0  0
 19 45  1  0  0  0
 20 21  1  0  0  0
 20 46  1  0  0  0
 21 22  2  0  0  0
 21 24  1  0  0  0
 22 23  1  0  0  0
 22 47  1  0  0  0
 23 48  1  0  0  0
 25 26  2  0  0  0
 25 27  1  0  0  0
 27 28  1  0  0  0
 27 49  1  0  0  0
 27 50  1  0  0  0
 28 29  1  0  0  0
 28 30  1  0  0  0
 28 31  1  0  0  0
 30 51  1  0  0  0
 30 52  1  0  0  0
 31 35  1  0  0  0
 31 32  2  0  0  0
 32 33  1  0  0  0
 32 53  1  0  0  0
 33 34  2  0  0  0
 33 54  1  0  0  0
 34 35  1  0  0  0
 34 55  1  0  0  0
 36 56  1  0  0  0
 36 57  1  0  0  0
 36 58  1  0  0  0
M  END
> <i_i_glide_confnum>
93

> <i_i_glide_lignum>
4336

> <i_i_glide_posenum>
370

> <i_i_glide_rotatable_bonds>
5

> <i_m_Source_File_Index>
4992

> <b_m_subgroup_collapsed>
0

> <r_i_docking_score>
-4.25627

> <r_i_glide_ecoul>
-7.79668

> <r_i_glide_eff_state_penalty>
0

> <r_i_glide_einternal>
7.31621

> <r_i_glide_emodel>
-48.8636

> <r_i_glide_energy>
-42.2409

> <r_i_glide_erotb>
0.450328

> <r_i_glide_esite>
-0.0801665

> <r_i_glide_evdw>
-34.4442

> <r_i_glide_gscore>
-4.25627

> <r_i_glide_hbond>
-0.149653

> <r_i_glide_ligand_efficiency>
-0.125185

> <r_i_glide_ligand_efficiency_ln>
-0.94033

> <r_i_glide_ligand_efficiency_sa>
-0.405549

> <r_i_glide_lipo>
-1.17912

> <r_i_glide_metal>
0

> <r_i_glide_rewards>
-0.405946

> <s_i_glide_gridfile>
wee1_glide-grid

> <s_m_Source_File>
wee1_decoys_glide_SP.sdf

> <s_m_Source_Path>
/Users/zhangxujun/Desktop

> <s_m_entry_id>
5267

> <s_m_entry_name>
wee1_decoys_glide_SP.4992

> <s_m_subgroup_title>
wee1_decoys_glide_SP

> <s_m_subgroupid>
wee1_decoys_glide_SP


$$$$
