@<TRIPOS>MOLECULE
ZINC38663959_4605
53   56    1
SMALL
USER_CHARGES


@<TRIPOS>ATOM
      1 C1         -1.7563   56.9533   17.0606 C.3       1 UNK         0.0000 
      2 C2         -0.5718   56.1089   16.5805 C.3       1 UNK         0.0000 
      3 O3         -0.5866   54.8555   17.2525 O.3       1 UNK         0.0000 
      4 C4          0.5144   54.0770   17.2820 C.2       1 UNK         0.0000 
      5 O5          1.5765   54.3364   16.7060 O.2       1 UNK         0.0000 
      6 C6          0.3161   52.9058   18.1285 C.2       1 UNK         0.0000 
      7 C7          1.2707   52.3347   18.8967 C.2       1 UNK         0.0000 
      8 N8          2.5911   52.7467   18.9923 N.pl3     1 UNK         0.0000 
      9 C9          3.4785   52.0993   19.9464 C.3       1 UNK         0.0000 
     10 H10         4.4217   51.8976   19.4353 H         1 UNK         0.0000 
     11 S11         2.7048   50.4995   20.1945 S.3       1 UNK         0.0000 
     12 C12         1.0728   51.1412   19.8108 C.3       1 UNK         0.0000 
     13 N13         3.6709   52.8544   21.1857 N.am      1 UNK         0.0000 
     14 C14         4.7045   53.6861   21.4336 C.2       1 UNK         0.0000 
     15 O15         5.4972   54.0369   20.5555 O.2       1 UNK         0.0000 
     16 C16         4.9435   54.0798   22.8809 C.ar      1 UNK         0.0000 
     17 C17         6.1923   54.6037   23.2487 C.ar      1 UNK         0.0000 
     18 C18         6.5287   54.9101   24.5651 C.ar      1 UNK         0.0000 
     19 C19         5.5776   54.6315   25.5458 C.ar      1 UNK         0.0000 
     20 C20         4.2946   54.1014   25.2261 C.ar      1 UNK         0.0000 
     21 C21         3.9757   53.8613   23.8774 C.ar      1 UNK         0.0000 
     22 C22         3.5968   53.9084   26.4666 C.ar      1 UNK         0.0000 
     23 C23         4.4598   54.3124   27.4775 C.ar      1 UNK         0.0000 
     24 N24         5.6248   54.7726   26.9171 N.pl3     1 UNK         0.0000 
     25 H25         6.3815   55.1319   27.4800 H         1 UNK         0.0000 
     26 C26         4.1344   54.3559   28.9609 C.3       1 UNK         0.0000 
     27 C27         2.6006   54.2091   29.1103 C.3       1 UNK         0.0000 
     28 C28         2.0413   53.0506   28.2472 C.3       1 UNK         0.0000 
     29 H29         2.5825   52.1270   28.4609 H         1 UNK         0.0000 
     30 C30         2.1959   53.3664   26.7349 C.3       1 UNK         0.0000 
     31 C31         0.5621   52.7714   28.5798 C.3       1 UNK         0.0000 
     32 H32        -1.7630   57.9225   16.5615 H         1 UNK         0.0000 
     33 H33        -1.6969   57.1340   18.1347 H         1 UNK         0.0000 
     34 H34        -2.7058   56.4623   16.8471 H         1 UNK         0.0000 
     35 H35        -0.6226   55.9511   15.5030 H         1 UNK         0.0000 
     36 H36         0.3568   56.6451   16.7904 H         1 UNK         0.0000 
     37 H37        -0.6860   52.5040   18.1452 H         1 UNK         0.0000 
     38 H38         2.9779   53.4963   18.4371 H         1 UNK         0.0000 
     39 H39         0.6040   51.4587   20.7432 H         1 UNK         0.0000 
     40 H40         0.4646   50.3583   19.3575 H         1 UNK         0.0000 
     41 H41         2.9169   52.8059   21.8503 H         1 UNK         0.0000 
     42 H42         6.9449   54.7768   22.4916 H         1 UNK         0.0000 
     43 H43         7.4997   55.3133   24.8059 H         1 UNK         0.0000 
     44 H44         3.0029   53.4591   23.6422 H         1 UNK         0.0000 
     45 H45         4.6325   53.5314   29.4709 H         1 UNK         0.0000 
     46 H46         4.4827   55.2777   29.4283 H         1 UNK         0.0000 
     47 H47         2.3668   54.0231   30.1591 H         1 UNK         0.0000 
     48 H48         2.0786   55.1387   28.8765 H         1 UNK         0.0000 
     49 H49         1.4629   54.0992   26.4114 H         1 UNK         0.0000 
     50 H50         2.0190   52.4674   26.1432 H         1 UNK         0.0000 
     51 H51        -0.0637   53.6473   28.4050 H         1 UNK         0.0000 
     52 H52         0.1678   51.9539   27.9736 H         1 UNK         0.0000 
     53 H53         0.4415   52.4822   29.6251 H         1 UNK         0.0000 
@<TRIPOS>BOND
     1    1    2 1    
     2    1   32 1    
     3    1   33 1    
     4    1   34 1    
     5    2    3 1    
     6    2   35 1    
     7    2   36 1    
     8    3    4 1    
     9    4    5 2    
    10    4    6 1    
    11    6   37 1    
    12    6    7 2    
    13    7   12 1    
    14    7    8 1    
    15    8    9 1    
    16    8   38 1    
    17    9   10 1    
    18    9   11 1    
    19    9   13 1    
    20   11   12 1    
    21   12   39 1    
    22   12   40 1    
    23   13   14 am   BACKBONE|DICT|INTERRES
    24   13   41 1    
    25   14   15 2    
    26   14   16 1    
    27   16   21 ar   
    28   16   17 ar   
    29   17   18 ar   
    30   17   42 1    
    31   18   19 ar   
    32   18   43 1    
    33   19   24 ar   
    34   19   20 ar   
    35   20   21 ar   
    36   20   22 ar   
    37   21   44 1    
    38   22   30 1    
    39   22   23 ar   
    40   23   24 ar   
    41   23   26 1    
    42   24   25 1    
    43   26   27 1    
    44   26   45 1    
    45   26   46 1    
    46   27   28 1    
    47   27   47 1    
    48   27   48 1    
    49   28   29 1    
    50   28   30 1    
    51   28   31 1    
    52   30   49 1    
    53   30   50 1    
    54   31   51 1    
    55   31   52 1    
    56   31   53 1    
@<TRIPOS>SUBSTRUCTURE
     1 UNK         1 GROUP             0       ****    0 ROOT    
