ZINC08951207_5385
                    3D
 Schrodinger Suite 2024-2.
 56 61  0  0  1  0            999 V2000
    5.6438   54.7421   21.3275 C   0  0  0  0  0  0
    6.7083   55.2322   22.0825 C   0  0  0  0  0  0
    6.6854   55.1042   23.4698 C   0  0  0  0  0  0
    5.5982   54.4951   24.1041 C   0  0  0  0  0  0
    4.5302   54.0168   23.3348 C   0  0  0  0  0  0
    4.5557   54.1334   21.9475 C   0  0  0  0  0  0
    5.5957   54.3514   25.5889 C   0  0  0  0  0  0
    6.5198   54.6171   26.5836 C   0  0  0  0  0  0
    5.9484   54.2433   27.7982 C   0  0  0  0  0  0
    4.6864   53.7464   27.5123 C   0  0  0  0  0  0
    4.4853   53.8325   26.1695 O   0  0  0  0  0  0
    3.6478   53.1848   28.3511 C   0  0  0  0  0  0
    2.3906   52.8245   28.0012 C   0  0  0  0  0  0
    1.4678   52.2864   28.9761 C   0  0  0  0  0  0
    1.7659   52.0972   30.1631 O   0  0  0  0  0  0
    0.2432   52.0396   28.4025 N   0  0  0  0  0  0
    0.1459   52.2313   27.0464 C   0  0  0  0  0  0
   -0.9386   51.9543   26.2884 C   0  0  0  0  0  0
   -2.1463   51.2285   26.8938 C   0  0  1  0  0  0
   -2.0329   50.1744   26.6316 H   0  0  0  0  0  0
   -2.0774   51.2967   28.4279 C   0  0  0  0  0  0
   -0.9272   51.6437   29.0741 C   0  0  0  0  0  0
   -0.8954   51.6960   30.4550 N   0  0  0  0  0  0
   -3.2604   50.8996   29.1387 C   0  0  0  0  0  0
   -4.2447   50.6172   29.6814 N   0  0  0  0  0  0
   -3.4509   51.7985   26.3498 C   0  0  0  0  0  0
   -3.8966   53.0865   26.0841 C   0  0  0  0  0  0
   -5.1759   52.9733   25.5506 C   0  0  0  0  0  0
   -5.4828   51.6188   25.5213 C   0  0  0  0  0  0
   -4.4275   50.9142   26.0189 O   0  0  0  0  0  0
   -6.6751   50.8550   25.0589 C   0  0  0  0  0  0
   -6.7959   49.4858   25.3186 C   0  0  0  0  0  0
   -7.9161   48.7868   24.8770 C   0  0  0  0  0  0
   -8.9160   49.4583   24.1738 C   0  0  0  0  0  0
   -8.8032   50.8211   23.9085 C   0  0  0  0  0  0
   -7.6832   51.5190   24.3507 C   0  0  0  0  0  0
   -0.9688   52.2788   24.8940 C   0  0  0  0  0  0
   -1.0228   52.5611   23.7732 N   0  0  0  0  0  0
    1.6204   52.9526   26.4252 S   0  0  0  0  0  0
    5.6631   54.8326   20.2498 H   0  0  0  0  0  0
    7.5535   55.6994   21.5975 H   0  0  0  0  0  0
    7.5041   55.4915   24.0499 H   0  0  0  0  0  0
    3.6805   53.5443   23.8078 H   0  0  0  0  0  0
    3.7323   53.7582   21.3553 H   0  0  0  0  0  0
    7.5033   55.0213   26.4425 H   0  0  0  0  0  0
    6.4093   54.3159   28.7749 H   0  0  0  0  0  0
    3.9730   53.0686   29.3761 H   0  0  0  0  0  0
   -1.6325   51.3090   31.0373 H   0  0  0  0  0  0
   -0.0433   51.9591   30.9381 H   0  0  0  0  0  0
   -3.3426   53.9991   26.2482 H   0  0  0  0  0  0
   -5.8127   53.7793   25.2200 H   0  0  0  0  0  0
   -6.0257   48.9607   25.8664 H   0  0  0  0  0  0
   -8.0113   47.7307   25.0797 H   0  0  0  0  0  0
   -9.7855   48.9162   23.8317 H   0  0  0  0  0  0
   -9.5801   51.3352   23.3613 H   0  0  0  0  0  0
   -7.6014   52.5742   24.1335 H   0  0  0  0  0  0
  1  6  2  0  0  0
  1  2  1  0  0  0
  1 40  1  0  0  0
  2  3  2  0  0  0
  2 41  1  0  0  0
  3  4  1  0  0  0
  3 42  1  0  0  0
  4  5  2  0  0  0
  4  7  1  0  0  0
  5  6  1  0  0  0
  5 43  1  0  0  0
  6 44  1  0  0  0
  7 11  1  0  0  0
  7  8  2  0  0  0
  8  9  1  0  0  0
  8 45  1  0  0  0
  9 10  2  0  0  0
  9 46  1  0  0  0
 10 11  1  0  0  0
 10 12  1  0  0  0
 12 13  2  0  0  0
 12 47  1  0  0  0
 13 39  1  0  0  0
 13 14  1  0  0  0
 14 15  2  0  0  0
 14 16  1  0  0  0
 16 22  1  0  0  0
 16 17  1  0  0  0
 17 18  2  0  0  0
 17 39  1  0  0  0
 18 19  1  0  0  0
 18 37  1  0  0  0
 19 20  1  0  0  0
 19 21  1  0  0  0
 19 26  1  0  0  0
 21 22  2  0  0  0
 21 24  1  0  0  0
 22 23  1  0  0  0
 23 48  1  0  0  0
 23 49  1  0  0  0
 24 25  3  0  0  0
 26 30  1  0  0  0
 26 27  2  0  0  0
 27 28  1  0  0  0
 27 50  1  0  0  0
 28 29  2  0  0  0
 28 51  1  0  0  0
 29 30  1  0  0  0
 29 31  1  0  0  0
 31 36  2  0  0  0
 31 32  1  0  0  0
 32 33  2  0  0  0
 32 52  1  0  0  0
 33 34  1  0  0  0
 33 53  1  0  0  0
 34 35  2  0  0  0
 34 54  1  0  0  0
 35 36  1  0  0  0
 35 55  1  0  0  0
 36 56  1  0  0  0
 37 38  3  0  0  0
M  END
> <i_i_glide_confnum>
16

> <i_i_glide_lignum>
5386

> <i_i_glide_posenum>
312

> <i_i_glide_rotatable_bonds>
6

> <i_m_Source_File_Index>
2795

> <b_m_subgroup_collapsed>
0

> <r_i_docking_score>
-6.15622

> <r_i_glide_ecoul>
-2.86047

> <r_i_glide_eff_state_penalty>
0

> <r_i_glide_einternal>
3.49936

> <r_i_glide_emodel>
-60.9107

> <r_i_glide_energy>
-45.5135

> <r_i_glide_erotb>
0.309909

> <r_i_glide_esite>
-0.192763

> <r_i_glide_evdw>
-42.653

> <r_i_glide_gscore>
-6.15622

> <r_i_glide_hbond>
-0.152297

> <r_i_glide_ligand_efficiency>
-0.162006

> <r_i_glide_ligand_efficiency_ln>
-1.32746

> <r_i_glide_ligand_efficiency_sa>
-0.54466

> <r_i_glide_lipo>
-3.3938

> <r_i_glide_metal>
0

> <r_i_glide_rewards>
-0.16555

> <s_i_glide_gridfile>
wee1_glide-grid

> <s_m_Source_File>
wee1_decoys_glide_SP.sdf

> <s_m_Source_Path>
/Users/zhangxujun/Desktop

> <s_m_entry_id>
3070

> <s_m_entry_name>
wee1_decoys_glide_SP.2795

> <s_m_subgroup_title>
wee1_decoys_glide_SP

> <s_m_subgroupid>
wee1_decoys_glide_SP


$$$$
