ZINC06445466_3115
                    3D
 Schrodinger Suite 2024-2.
 63 67  0  0  1  0            999 V2000
   -0.8574   51.2471   25.1208 C   0  0  0  0  0  0
    0.5326   51.3035   25.1158 C   0  0  0  0  0  0
    1.1843   52.3803   24.4570 C   0  0  0  0  0  0
    2.5778   52.4967   24.3345 C   0  0  0  0  0  0
    3.2247   53.4592   23.5491 C   0  0  0  0  0  0
    2.4501   54.4967   23.1638 C   0  0  0  0  0  0
    1.1042   54.4955   23.3153 C   0  0  0  0  0  0
    0.3987   53.3900   23.8687 C   0  0  0  0  0  0
   -0.9651   53.2969   23.8508 N   0  0  0  0  0  0
   -1.5642   52.2508   24.4698 C   0  0  0  0  0  0
    4.7228   53.5779   23.2201 C   0  0  2  0  0  0
    5.1823   52.5930   23.1766 H   0  0  0  0  0  0
    5.3305   54.3037   24.4718 C   0  0  0  0  0  0
    5.9053   55.3873   24.4238 O   0  0  0  0  0  0
    5.0251   53.7394   25.6459 N   0  0  0  0  0  0
    4.9882   54.4843   26.8814 C   0  0  0  0  0  0
    4.1383   53.7126   27.9064 C   0  0  0  0  0  0
    5.1462   53.0532   28.8324 C   0  0  0  0  0  0
    6.2634   54.0952   28.8842 C   0  0  0  0  0  0
    6.3907   54.6514   27.4803 C   0  0  0  0  0  0
    4.9757   54.0943   21.7845 N   0  0  0  0  0  0
    3.9354   53.8546   20.7242 C   0  0  0  0  0  0
    3.2274   52.5141   20.6705 C   0  0  0  0  0  0
    1.9019   52.1276   20.8298 C   0  0  0  0  0  0
    1.8174   50.7799   20.4993 C   0  0  0  0  0  0
    3.0934   50.4097   20.1260 C   0  0  0  0  0  0
    3.9594   51.4435   20.2845 O   0  0  0  0  0  0
    6.1395   54.7245   21.3950 C   0  0  0  0  0  0
    7.1069   54.8967   22.1287 O   0  0  0  0  0  0
    6.3042   55.2398   20.0466 C   0  0  0  0  0  0
    6.3839   54.6401   18.7839 C   0  0  0  0  0  0
    6.6224   55.5978   17.7627 C   0  0  0  0  0  0
    6.7883   56.8450   18.1726 N   0  0  0  0  0  0
    6.6631   56.9114   19.8661 S   0  0  0  0  0  0
    6.7332   55.3210   16.3259 C   0  0  0  0  0  0
    6.7338   54.1790   15.8728 O   0  0  0  0  0  0
    6.8197   56.3694   15.4968 N   0  0  0  0  0  0
    6.2359   53.2967   18.5624 N   0  0  0  0  0  0
   -1.3726   50.4318   25.6095 H   0  0  0  0  0  0
    1.1034   50.5173   25.5842 H   0  0  0  0  0  0
    3.1012   51.7653   24.8716 H   0  0  0  0  0  0
    2.9364   55.2967   22.6668 H   0  0  0  0  0  0
    0.6461   55.3449   22.8818 H   0  0  0  0  0  0
   -2.6438   52.2328   24.4441 H   0  0  0  0  0  0
    4.5873   52.8293   25.6545 H   0  0  0  0  0  0
    4.4770   55.4349   26.7288 H   0  0  0  0  0  0
    3.4179   53.0179   27.4705 H   0  0  0  0  0  0
    3.5589   54.4241   28.4973 H   0  0  0  0  0  0
    5.5143   52.1215   28.4069 H   0  0  0  0  0  0
    4.7047   52.8283   29.8052 H   0  0  0  0  0  0
    7.2064   53.7050   29.2720 H   0  0  0  0  0  0
    5.9454   54.8928   29.5604 H   0  0  0  0  0  0
    6.7033   55.6945   27.4877 H   0  0  0  0  0  0
    7.1423   54.0733   26.9392 H   0  0  0  0  0  0
    3.1945   54.6256   20.8520 H   0  0  0  0  0  0
    4.2321   54.0758   19.7094 H   0  0  0  0  0  0
    1.0813   52.7697   21.1096 H   0  0  0  0  0  0
    0.9304   50.1644   20.4821 H   0  0  0  0  0  0
    3.5040   49.4975   19.7219 H   0  0  0  0  0  0
    6.8099   57.3106   15.8607 H   0  0  0  0  0  0
    6.8862   56.2060   14.5042 H   0  0  0  0  0  0
    6.3116   52.9176   17.6251 H   0  0  0  0  0  0
    5.9126   52.6447   19.2649 H   0  0  0  0  0  0
  1 10  2  0  0  0
  1  2  1  0  0  0
  1 39  1  0  0  0
  2  3  2  0  0  0
  2 40  1  0  0  0
  3  8  1  0  0  0
  3  4  1  0  0  0
  4  5  2  0  0  0
  4 41  1  0  0  0
  5  6  1  0  0  0
  5 11  1  0  0  0
  6  7  2  0  0  0
  6 42  1  0  0  0
  7  8  1  0  0  0
  7 43  1  0  0  0
  8  9  2  0  0  0
  9 10  1  0  0  0
 10 44  1  0  0  0
 11 12  1  0  0  0
 11 13  1  0  0  0
 11 21  1  0  0  0
 13 14  2  0  0  0
 13 15  1  0  0  0
 15 16  1  0  0  0
 15 45  1  0  0  0
 16 20  1  0  0  0
 16 17  1  0  0  0
 16 46  1  0  0  0
 17 18  1  0  0  0
 17 47  1  0  0  0
 17 48  1  0  0  0
 18 19  1  0  0  0
 18 49  1  0  0  0
 18 50  1  0  0  0
 19 20  1  0  0  0
 19 51  1  0  0  0
 19 52  1  0  0  0
 20 53  1  0  0  0
 20 54  1  0  0  0
 21 22  1  0  0  0
 21 28  1  0  0  0
 22 23  1  0  0  0
 22 55  1  0  0  0
 22 56  1  0  0  0
 23 27  1  0  0  0
 23 24  2  0  0  0
 24 25  1  0  0  0
 24 57  1  0  0  0
 25 26  2  0  0  0
 25 58  1  0  0  0
 26 27  1  0  0  0
 26 59  1  0  0  0
 28 29  2  0  0  0
 28 30  1  0  0  0
 30 34  1  0  0  0
 30 31  2  0  0  0
 31 32  1  0  0  0
 31 38  1  0  0  0
 32 33  2  0  0  0
 32 35  1  0  0  0
 33 34  1  0  0  0
 35 36  2  0  0  0
 35 37  1  0  0  0
 37 60  1  0  0  0
 37 61  1  0  0  0
 38 62  1  0  0  0
 38 63  1  0  0  0
M  END
> <i_i_glide_confnum>
229

> <i_i_glide_lignum>
3116

> <i_i_glide_posenum>
156

> <i_i_glide_rotatable_bonds>
10

> <i_m_Source_File_Index>
3460

> <b_m_subgroup_collapsed>
0

> <r_i_docking_score>
-3.15187

> <r_i_glide_ecoul>
-2.15837

> <r_i_glide_eff_state_penalty>
0

> <r_i_glide_einternal>
8.58694

> <r_i_glide_emodel>
-16.2592

> <r_i_glide_energy>
-13.4088

> <r_i_glide_erotb>
0.45824

> <r_i_glide_esite>
-0.0619138

> <r_i_glide_evdw>
-11.2504

> <r_i_glide_gscore>
-3.15187

> <r_i_glide_hbond>
0

> <r_i_glide_ligand_efficiency>
-0.0851857

> <r_i_glide_ligand_efficiency_ln>
-0.683567

> <r_i_glide_ligand_efficiency_sa>
-0.283858

> <r_i_glide_lipo>
-2.09222

> <r_i_glide_metal>
0

> <r_i_glide_rewards>
-0.5697

> <s_i_glide_gridfile>
wee1_glide-grid

> <s_m_Source_File>
wee1_decoys_glide_SP.sdf

> <s_m_Source_Path>
/Users/zhangxujun/Desktop

> <s_m_entry_id>
3735

> <s_m_entry_name>
wee1_decoys_glide_SP.3460

> <s_m_subgroup_title>
wee1_decoys_glide_SP

> <s_m_subgroupid>
wee1_decoys_glide_SP


$$$$
