@<TRIPOS>MOLECULE
ZINC20876875_5435
58   62    1
SMALL
USER_CHARGES


@<TRIPOS>ATOM
      1 C1          3.9169   51.9814   31.5271 C.3       1 UNK         0.0000 
      2 O2          3.6773   51.7111   30.1503 O.3       1 UNK         0.0000 
      3 C3          2.6278   52.4244   29.6257 C.ar      1 UNK         0.0000 
      4 C4          1.4959   51.7160   29.2374 C.ar      1 UNK         0.0000 
      5 C5          0.3627   52.3731   28.7636 C.ar      1 UNK         0.0000 
      6 C6          0.3601   53.7671   28.7023 C.ar      1 UNK         0.0000 
      7 C7          1.5039   54.4914   29.0496 C.ar      1 UNK         0.0000 
      8 C8          2.6657   53.8188   29.4505 C.ar      1 UNK         0.0000 
      9 O9          3.8354   54.5390   29.5557 O.3       1 UNK         0.0000 
     10 C10         4.9592   54.1239   28.7530 C.3       1 UNK         0.0000 
     11 C11         4.8162   54.2632   27.2239 C.ar      1 UNK         0.0000 
     12 C12         3.6191   54.0246   26.5247 C.ar      1 UNK         0.0000 
     13 C13         3.5570   54.0963   25.1357 C.ar      1 UNK         0.0000 
     14 C14         4.7116   54.3604   24.4145 C.ar      1 UNK         0.0000 
     15 C15         5.9190   54.6015   25.0846 C.ar      1 UNK         0.0000 
     16 C16         5.9693   54.5531   26.4788 C.ar      1 UNK         0.0000 
     17 O17         7.1044   54.7824   24.4042 O.3       1 UNK         0.0000 
     18 C18         6.9603   55.0457   22.9992 C.3       1 UNK         0.0000 
     19 C19         5.8515   54.1663   22.3750 C.3       1 UNK         0.0000 
     20 O20         4.6080   54.3953   23.0409 O.3       1 UNK         0.0000 
     21 Br21        1.5048   56.3913   28.8833 Br        1 UNK         0.0000 
     22 C22        -0.8426   51.5494   28.3475 C.3       1 UNK         0.0000 
     23 N23        -0.4952   50.4968   27.2813 N.4       1 UNK         0.0000 
     24 C24        -0.6030   50.9147   25.8078 C.3       1 UNK         0.0000 
     25 C25        -2.0267   51.1822   25.3556 C.ar      1 UNK         0.0000 
     26 C26        -2.4255   52.4948   25.0459 C.ar      1 UNK         0.0000 
     27 C27        -3.7292   52.7703   24.6132 C.ar      1 UNK         0.0000 
     28 C28        -4.6060   51.6971   24.5023 C.ar      1 UNK         0.0000 
     29 C29        -4.2236   50.4184   24.7937 C.ar      1 UNK         0.0000 
     30 C30        -2.9342   50.1171   25.2207 C.ar      1 UNK         0.0000 
     31 O31        -5.2627   49.5742   24.5618 O.3       1 UNK         0.0000 
     32 C32        -6.3735   50.3959   24.3201 C.3       1 UNK         0.0000 
     33 O33        -5.8991   51.6953   24.0850 O.3       1 UNK         0.0000 
     34 H34         4.6677   51.2969   31.9078 H         1 UNK         0.0000 
     35 H35         4.3044   52.9873   31.6788 H         1 UNK         0.0000 
     36 H36         3.0176   51.8530   32.1325 H         1 UNK         0.0000 
     37 H37         1.5044   50.6411   29.2888 H         1 UNK         0.0000 
     38 H38        -0.5112   54.2923   28.3475 H         1 UNK         0.0000 
     39 H39         5.7913   54.7489   29.0818 H         1 UNK         0.0000 
     40 H40         5.2679   53.1043   28.9772 H         1 UNK         0.0000 
     41 H41         2.7090   53.7350   27.0073 H         1 UNK         0.0000 
     42 H42         2.6281   53.9090   24.6184 H         1 UNK         0.0000 
     43 H43         6.9153   54.7026   26.9785 H         1 UNK         0.0000 
     44 H44         7.9042   54.8676   22.4820 H         1 UNK         0.0000 
     45 H45         6.7064   56.0965   22.8588 H         1 UNK         0.0000 
     46 H46         6.1250   53.1153   22.4829 H         1 UNK         0.0000 
     47 H47         5.7401   54.3798   21.3120 H         1 UNK         0.0000 
     48 H48        -1.6851   52.1212   27.9616 H         1 UNK         0.0000 
     49 H49        -1.1884   50.9447   29.1899 H         1 UNK         0.0000 
     50 H50        -1.0620   49.6588   27.4630 H         1 UNK         0.0000 
     51 H51        -0.1696   50.0749   25.2608 H         1 UNK         0.0000 
     52 H52         0.0520   51.7833   25.7034 H         1 UNK         0.0000 
     53 H53        -1.7116   53.2968   25.1373 H         1 UNK         0.0000 
     54 H54        -4.0337   53.7780   24.3740 H         1 UNK         0.0000 
     55 H55        -2.6427   49.1005   25.4466 H         1 UNK         0.0000 
     56 H56        -6.9379   50.0342   23.4601 H         1 UNK         0.0000 
     57 H57        -7.0148   50.3987   25.2037 H         1 UNK         0.0000 
     58 H58         0.4518   50.1955   27.4567 H         1 UNK         0.0000 
@<TRIPOS>BOND
     1    1    2 1    
     2    1   34 1    
     3    1   35 1    
     4    1   36 1    
     5    2    3 1    
     6    3    8 ar   
     7    3    4 ar   
     8    4    5 ar   
     9    4   37 1    
    10    5    6 ar   
    11    5   22 1    
    12    6    7 ar   
    13    6   38 1    
    14    7    8 ar   
    15    7   21 1    
    16    8    9 1    
    17    9   10 1    
    18   10   11 1    
    19   10   39 1    
    20   10   40 1    
    21   11   16 ar   
    22   11   12 ar   
    23   12   13 ar   
    24   12   41 1    
    25   13   14 ar   
    26   13   42 1    
    27   14   20 1    
    28   14   15 ar   
    29   15   16 ar   
    30   15   17 1    
    31   16   43 1    
    32   17   18 1    
    33   18   19 1    
    34   18   44 1    
    35   18   45 1    
    36   19   20 1    
    37   19   46 1    
    38   19   47 1    
    39   22   23 1    
    40   22   48 1    
    41   22   49 1    
    42   23   24 1    
    43   23   50 1    
    44   23   58 1    
    45   24   25 1    
    46   24   51 1    
    47   24   52 1    
    48   25   30 ar   
    49   25   26 ar   
    50   26   27 ar   
    51   26   53 1    
    52   27   28 ar   
    53   27   54 1    
    54   28   33 1    
    55   28   29 ar   
    56   29   30 ar   
    57   29   31 1    
    58   30   55 1    
    59   31   32 1    
    60   32   33 1    
    61   32   56 1    
    62   32   57 1    
@<TRIPOS>SUBSTRUCTURE
     1 UNK         1 GROUP             0       ****    0 ROOT    
