@<TRIPOS>MOLECULE
ZINC63720215_238
55   59    1
SMALL
USER_CHARGES


@<TRIPOS>ATOM
      1 C1          1.4091   52.7753   30.2885 C.3       1 UNK         0.0000 
      2 C2          0.6939   52.3370   29.0238 C.ar      1 UNK         0.0000 
      3 C3          1.3719   52.2900   27.8052 C.ar      1 UNK         0.0000 
      4 C4          0.7153   51.8554   26.6552 C.ar      1 UNK         0.0000 
      5 C5         -0.6275   51.4610   26.7015 C.ar      1 UNK         0.0000 
      6 C6         -1.3188   51.5279   27.9270 C.ar      1 UNK         0.0000 
      7 C7         -0.6454   51.9537   29.0778 C.ar      1 UNK         0.0000 
      8 C8         -2.7924   51.1658   28.0470 C.3       1 UNK         0.0000 
      9 N9         -1.2302   50.9470   25.5293 N.am      1 UNK         0.0000 
     10 C10        -1.5010   49.4883   25.4788 C.3       1 UNK         0.0000 
     11 H11        -1.6108   49.0811   26.4816 H         1 UNK         0.0000 
     12 N12        -2.7404   49.2185   24.7356 N.am      1 UNK         0.0000 
     13 C13        -2.9954   49.8103   23.5527 C.2       1 UNK         0.0000 
     14 C14        -1.9962   50.9490   23.1870 C.3       1 UNK         0.0000 
     15 C15        -1.3943   51.7104   24.4051 C.2       1 UNK         0.0000 
     16 O16        -1.1244   52.9105   24.3338 O.2       1 UNK         0.0000 
     17 C17        -0.8909   50.5424   22.1387 C.3       1 UNK         0.0000 
     18 H18        -0.1621   49.9409   22.6810 H         1 UNK         0.0000 
     19 C19        -0.0948   51.7105   21.4657 C.3       1 UNK         0.0000 
     20 H20        -0.7837   52.4186   21.0062 H         1 UNK         0.0000 
     21 C21         0.9048   51.2033   20.4465 C.2       1 UNK         0.0000 
     22 C22         2.1173   51.7115   20.7082 C.2       1 UNK         0.0000 
     23 C23         3.4052   51.5602   20.0269 C.2       1 UNK         0.0000 
     24 C24         4.5027   52.1955   20.4827 C.2       1 UNK         0.0000 
     25 C25         4.3703   53.0172   21.6794 C.2       1 UNK         0.0000 
     26 C26         3.1844   53.1517   22.3326 C.2       1 UNK         0.0000 
     27 C27         2.0392   52.4992   21.8567 C.2       1 UNK         0.0000 
     28 N28         0.8148   52.4955   22.3317 N.pl3     1 UNK         0.0000 
     29 C29         0.3811   50.2269   19.4143 C.3       1 UNK         0.0000 
     30 C30        -0.3669   49.1108   20.1696 C.3       1 UNK         0.0000 
     31 N31        -1.3859   49.6511   21.0741 N.3       1 UNK         0.0000 
     32 O32        -3.9550   49.4890   22.8561 O.2       1 UNK         0.0000 
     33 S33        -0.0959   48.4969   24.8817 S.3       1 UNK         0.0000 
     34 H34         2.4763   52.5563   30.2349 H         1 UNK         0.0000 
     35 H35         1.0217   52.2411   31.1583 H         1 UNK         0.0000 
     36 H36         1.2706   53.8445   30.4512 H         1 UNK         0.0000 
     37 H37         2.4132   52.5725   27.7472 H         1 UNK         0.0000 
     38 H38         1.2643   51.8027   25.7268 H         1 UNK         0.0000 
     39 H39        -1.1668   51.9787   30.0249 H         1 UNK         0.0000 
     40 H40        -3.3445   51.4352   27.1471 H         1 UNK         0.0000 
     41 H41        -2.8984   50.0964   28.2208 H         1 UNK         0.0000 
     42 H42        -3.2668   51.6943   28.8745 H         1 UNK         0.0000 
     43 H43        -3.3464   48.4670   25.0291 H         1 UNK         0.0000 
     44 H44         3.5040   50.9572   19.1327 H         1 UNK         0.0000 
     45 H45         5.4458   52.0960   19.9615 H         1 UNK         0.0000 
     46 H46         5.2423   53.5313   22.0568 H         1 UNK         0.0000 
     47 H47         3.1429   53.7740   23.2150 H         1 UNK         0.0000 
     48 H48         1.1879   49.7992   18.8162 H         1 UNK         0.0000 
     49 H49        -0.2901   50.7205   18.7104 H         1 UNK         0.0000 
     50 H50         0.3570   48.5237   20.7393 H         1 UNK         0.0000 
     51 H51        -0.8361   48.4317   19.4561 H         1 UNK         0.0000 
     52 H52        -2.2304   49.9773   20.6219 H         1 UNK         0.0000 
     53 H53         0.0934   47.7930   26.0123 H         1 UNK         0.0000 
     54 H54         0.4986   52.9871   23.1677 H         1 UNK         0.0000 
     55 H55        -2.6404   51.6848   22.7073 H         1 UNK         0.0000 
@<TRIPOS>BOND
     1    1    2 1    
     2    1   34 1    
     3    1   35 1    
     4    1   36 1    
     5    2    7 ar   
     6    2    3 ar   
     7    3    4 ar   
     8    3   37 1    
     9    4    5 ar   
    10    4   38 1    
    11    5    6 ar   
    12    5    9 1    
    13    6    7 ar   
    14    6    8 1    
    15    7   39 1    
    16    8   40 1    
    17    8   41 1    
    18    8   42 1    
    19    9   15 am   BACKBONE|DICT|INTERRES
    20    9   10 1    
    21   10   11 1    
    22   10   12 1    
    23   10   33 1    
    24   12   13 am   BACKBONE|DICT|INTERRES
    25   12   43 1    
    26   13   14 1    
    27   13   32 2    
    28   14   15 1    
    29   14   17 1    
    30   14   55 1    
    31   15   16 2    
    32   17   18 1    
    33   17   31 1    
    34   17   19 1    
    35   19   20 1    
    36   19   28 1    
    37   19   21 1    
    38   21   22 2    
    39   21   29 1    
    40   22   27 1    
    41   22   23 1    
    42   23   24 2    
    43   23   44 1    
    44   24   25 1    
    45   24   45 1    
    46   25   26 2    
    47   25   46 1    
    48   26   27 1    
    49   26   47 1    
    50   27   28 2    
    51   28   54 1    
    52   29   30 1    
    53   29   48 1    
    54   29   49 1    
    55   30   31 1    
    56   30   50 1    
    57   30   51 1    
    58   31   52 1    
    59   33   53 1    
@<TRIPOS>SUBSTRUCTURE
     1 UNK         1 GROUP             0       ****    0 ROOT    
