@<TRIPOS>MOLECULE
ZINC09442708_2291
54   58    1
SMALL
USER_CHARGES


@<TRIPOS>ATOM
      1 C1          8.2994   55.6969   20.3499 C.3       1 UNK         0.0000 
      2 O2          7.8835   55.3519   21.6658 O.3       1 UNK         0.0000 
      3 C3          6.5881   54.9301   21.8841 C.ar      1 UNK         0.0000 
      4 C4          6.2805   54.5101   23.1767 C.ar      1 UNK         0.0000 
      5 C5          4.9917   54.0904   23.4968 C.ar      1 UNK         0.0000 
      6 C6          3.9877   54.0887   22.5175 C.ar      1 UNK         0.0000 
      7 C7          4.3045   54.4836   21.2184 C.ar      1 UNK         0.0000 
      8 C8          5.5939   54.8965   20.8970 C.ar      1 UNK         0.0000 
      9 C9          2.5314   53.7118   22.8483 C.3       1 UNK         0.0000 
     10 H10         1.8889   54.1450   22.0812 H         1 UNK         0.0000 
     11 C11         2.0149   54.1409   24.2182 C.3       1 UNK         0.0000 
     12 C12         1.6851   52.8210   24.8637 C.2       1 UNK         0.0000 
     13 N13         1.8232   51.8501   24.0610 N.2       1 UNK         0.0000 
     14 N14         2.3039   52.2612   22.8618 N.am      1 UNK         0.0000 
     15 C15         2.3625   51.4221   21.7919 C.2       1 UNK         0.0000 
     16 O16         2.5815   51.8279   20.6519 O.2       1 UNK         0.0000 
     17 C17         2.2000   49.9020   21.9962 C.3       1 UNK         0.0000 
     18 S18         0.5063   49.3145   21.6603 S.3       1 UNK         0.0000 
     19 C19         0.7080   48.5095   20.0982 C.2       1 UNK         0.0000 
     20 N20        -0.0603   47.5283   19.6816 N.2       1 UNK         0.0000 
     21 N21         0.2988   47.0310   18.4313 N.2       1 UNK         0.0000 
     22 C22         1.3092   47.6838   17.9212 C.2       1 UNK         0.0000 
     23 S23         1.9055   48.9685   18.9184 S.3       1 UNK         0.0000 
     24 N24         1.9057   47.4258   16.7260 N.pl3     1 UNK         0.0000 
     25 C25         1.2343   52.6918   26.2605 C.ar      1 UNK         0.0000 
     26 C26         0.5277   51.5524   26.6664 C.ar      1 UNK         0.0000 
     27 C27         0.0703   51.4181   27.9727 C.ar      1 UNK         0.0000 
     28 C28         0.2985   52.4430   28.9169 C.ar      1 UNK         0.0000 
     29 C29        -0.1696   52.3461   30.2475 C.ar      1 UNK         0.0000 
     30 C30         0.0477   53.3859   31.1430 C.ar      1 UNK         0.0000 
     31 C31         0.7047   54.5449   30.7432 C.ar      1 UNK         0.0000 
     32 C32         1.2138   54.6567   29.4528 C.ar      1 UNK         0.0000 
     33 C33         1.0181   53.6086   28.5166 C.ar      1 UNK         0.0000 
     34 C34         1.5070   53.6963   27.1942 C.ar      1 UNK         0.0000 
     35 H35         9.3445   56.0077   20.3732 H         1 UNK         0.0000 
     36 H36         8.2255   54.8452   19.6750 H         1 UNK         0.0000 
     37 H37         7.7182   56.5266   19.9459 H         1 UNK         0.0000 
     38 H38         7.0488   54.5125   23.9346 H         1 UNK         0.0000 
     39 H39         4.7814   53.7646   24.5041 H         1 UNK         0.0000 
     40 H40         3.5458   54.4810   20.4493 H         1 UNK         0.0000 
     41 H41         5.7939   55.2042   19.8827 H         1 UNK         0.0000 
     42 H42         2.7489   54.7067   24.7880 H         1 UNK         0.0000 
     43 H43         1.1073   54.7352   24.1266 H         1 UNK         0.0000 
     44 H44         2.4567   49.6240   23.0185 H         1 UNK         0.0000 
     45 H45         2.9459   49.3751   21.4020 H         1 UNK         0.0000 
     46 H46         1.5874   46.7008   16.1042 H         1 UNK         0.0000 
     47 H47         2.7641   47.9301   16.4810 H         1 UNK         0.0000 
     48 H48         0.3174   50.7536   25.9679 H         1 UNK         0.0000 
     49 H49        -0.4775   50.5300   28.2612 H         1 UNK         0.0000 
     50 H50        -0.7104   51.4684   30.5676 H         1 UNK         0.0000 
     51 H51        -0.3278   53.2974   32.1523 H         1 UNK         0.0000 
     52 H52         0.8344   55.3553   31.4440 H         1 UNK         0.0000 
     53 H53         1.7382   55.5500   29.1491 H         1 UNK         0.0000 
     54 H54         2.0748   54.5702   26.9217 H         1 UNK         0.0000 
@<TRIPOS>BOND
     1    1    2 1    
     2    1   35 1    
     3    1   36 1    
     4    1   37 1    
     5    2    3 1    
     6    3    8 ar   
     7    3    4 ar   
     8    4    5 ar   
     9    4   38 1    
    10    5    6 ar   
    11    5   39 1    
    12    6    7 ar   
    13    6    9 1    
    14    7    8 ar   
    15    7   40 1    
    16    8   41 1    
    17    9   10 1    
    18    9   14 1    
    19    9   11 1    
    20   11   12 1    
    21   11   42 1    
    22   11   43 1    
    23   12   13 2    
    24   12   25 1    
    25   13   14 1    
    26   14   15 am   BACKBONE|DICT|INTERRES
    27   15   16 2    
    28   15   17 1    
    29   17   18 1    
    30   17   44 1    
    31   17   45 1    
    32   18   19 1    
    33   19   23 1    
    34   19   20 2    
    35   20   21 1    
    36   21   22 2    
    37   22   23 1    
    38   22   24 1    
    39   24   46 1    
    40   24   47 1    
    41   25   34 ar   
    42   25   26 ar   
    43   26   27 ar   
    44   26   48 1    
    45   27   28 ar   
    46   27   49 1    
    47   28   33 ar   
    48   28   29 ar   
    49   29   30 ar   
    50   29   50 1    
    51   30   31 ar   
    52   30   51 1    
    53   31   32 ar   
    54   31   52 1    
    55   32   33 ar   
    56   32   53 1    
    57   33   34 ar   
    58   34   54 1    
@<TRIPOS>SUBSTRUCTURE
     1 UNK         1 GROUP             0       ****    0 ROOT    
