@<TRIPOS>MOLECULE
ZINC02229598_1266
59   63    1
SMALL
USER_CHARGES


@<TRIPOS>ATOM
      1 C1         -4.7073   53.3424   25.5584 C.3       1 UNK         0.0000 
      2 C2         -3.6166   52.4721   24.9475 C.ar      1 UNK         0.0000 
      3 C3         -3.0119   52.8938   23.7564 C.ar      1 UNK         0.0000 
      4 C4         -1.9958   52.1474   23.1636 C.ar      1 UNK         0.0000 
      5 C5         -1.5833   50.9650   23.7705 C.ar      1 UNK         0.0000 
      6 C6         -2.1912   50.5263   24.9350 C.ar      1 UNK         0.0000 
      7 C7         -3.2045   51.2682   25.5565 C.ar      1 UNK         0.0000 
      8 C8         -3.8506   50.7889   26.8528 C.3       1 UNK         0.0000 
      9 N9         -1.6541   49.2875   25.2820 N.am      1 UNK         0.0000 
     10 C10        -0.7784   48.8356   24.3690 C.2       1 UNK         0.0000 
     11 O11        -0.3307   47.6974   24.2551 O.2       1 UNK         0.0000 
     12 C12        -0.4189   50.0537   23.4984 C.3       1 UNK         0.0000 
     13 C13         1.0333   50.5380   23.8129 C.3       1 UNK         0.0000 
     14 H14         1.5837   49.8204   24.4292 H         1 UNK         0.0000 
     15 C15         1.7638   50.7219   22.5039 C.3       1 UNK         0.0000 
     16 H16         2.6396   50.0705   22.4785 H         1 UNK         0.0000 
     17 C17         0.7673   50.4055   21.3552 C.3       1 UNK         0.0000 
     18 H18         0.1955   51.2989   21.0904 H         1 UNK         0.0000 
     19 C19         1.3658   49.8011   20.0503 C.3       1 UNK         0.0000 
     20 C20         2.4225   50.6969   19.3747 C.3       1 UNK         0.0000 
     21 C21         1.9049   48.3655   20.2140 C.3       1 UNK         0.0000 
     22 C22         2.2306   52.1773   22.5331 C.2       1 UNK         0.0000 
     23 O23         2.9084   52.7177   21.6618 O.2       1 UNK         0.0000 
     24 N24         1.8320   52.7214   23.7080 N.am      1 UNK         0.0000 
     25 C25         1.1223   51.8955   24.5112 C.2       1 UNK         0.0000 
     26 O26         0.6794   52.1426   25.6339 O.2       1 UNK         0.0000 
     27 C27         2.1894   54.0895   24.1071 C.3       1 UNK         0.0000 
     28 C28         3.5206   54.1800   24.8445 C.ar      1 UNK         0.0000 
     29 C29         3.5518   54.0977   26.2393 C.ar      1 UNK         0.0000 
     30 C30         4.7615   54.2371   26.9152 C.ar      1 UNK         0.0000 
     31 C31         5.9314   54.4701   26.1966 C.ar      1 UNK         0.0000 
     32 C32         5.9066   54.5586   24.8068 C.ar      1 UNK         0.0000 
     33 C33         4.6975   54.4184   24.1290 C.ar      1 UNK         0.0000 
     34 F34         7.1018   54.6159   26.8558 F         1 UNK         0.0000 
     35 H35        -4.5100   53.5106   26.6172 H         1 UNK         0.0000 
     36 H36        -4.7674   54.3225   25.0829 H         1 UNK         0.0000 
     37 H37        -5.6783   52.8516   25.4709 H         1 UNK         0.0000 
     38 H38        -3.3143   53.8160   23.2841 H         1 UNK         0.0000 
     39 H39        -1.5126   52.5155   22.2724 H         1 UNK         0.0000 
     40 H40        -3.4986   49.8026   27.1592 H         1 UNK         0.0000 
     41 H41        -3.6335   51.4860   27.6620 H         1 UNK         0.0000 
     42 H42        -4.9333   50.7334   26.7411 H         1 UNK         0.0000 
     43 H43        -1.9694   48.7233   26.0620 H         1 UNK         0.0000 
     44 H44         0.5391   49.7309   19.3396 H         1 UNK         0.0000 
     45 H45         3.3435   50.7477   19.9562 H         1 UNK         0.0000 
     46 H46         2.6992   50.3149   18.3905 H         1 UNK         0.0000 
     47 H47         2.0608   51.7156   19.2317 H         1 UNK         0.0000 
     48 H48         2.6864   48.3000   20.9717 H         1 UNK         0.0000 
     49 H49         1.1088   47.6749   20.4810 H         1 UNK         0.0000 
     50 H50         2.3362   48.0011   19.2795 H         1 UNK         0.0000 
     51 H51         2.2236   54.7379   23.2287 H         1 UNK         0.0000 
     52 H52         1.4047   54.4966   24.7462 H         1 UNK         0.0000 
     53 H53         2.6422   53.9245   26.7974 H         1 UNK         0.0000 
     54 H54         4.7956   54.1699   27.9927 H         1 UNK         0.0000 
     55 H55         6.8214   54.7388   24.2602 H         1 UNK         0.0000 
     56 H56         4.6750   54.4939   23.0505 H         1 UNK         0.0000 
     57 N57        -0.2947   49.5412   22.0575 N.4       1 UNK         0.0000 
     58 H58         0.0305   48.5858   22.1019 H         1 UNK         0.0000 
     59 H59        -1.1838   49.5331   21.5795 H         1 UNK         0.0000 
@<TRIPOS>BOND
     1    1    2 1    
     2    1   35 1    
     3    1   36 1    
     4    1   37 1    
     5    2    7 ar   
     6    2    3 ar   
     7    3    4 ar   
     8    3   38 1    
     9    4    5 ar   
    10    4   39 1    
    11    5   12 1    
    12    5    6 ar   
    13    6    7 ar   
    14    6    9 1    
    15    7    8 1    
    16    8   40 1    
    17    8   41 1    
    18    8   42 1    
    19    9   10 am   BACKBONE|DICT|INTERRES
    20    9   43 1    
    21   10   11 2    
    22   10   12 1    
    23   12   13 1    
    24   12   57 1    
    25   13   14 1    
    26   13   25 1    
    27   13   15 1    
    28   15   16 1    
    29   15   17 1    
    30   15   22 1    
    31   17   18 1    
    32   17   19 1    
    33   17   57 1    
    34   19   20 1    
    35   19   21 1    
    36   19   44 1    
    37   20   45 1    
    38   20   46 1    
    39   20   47 1    
    40   21   48 1    
    41   21   49 1    
    42   21   50 1    
    43   22   23 2    
    44   22   24 am   BACKBONE|DICT|INTERRES
    45   24   25 am   BACKBONE|DICT|INTERRES
    46   24   27 1    
    47   25   26 2    
    48   27   28 1    
    49   27   51 1    
    50   27   52 1    
    51   28   33 ar   
    52   28   29 ar   
    53   29   30 ar   
    54   29   53 1    
    55   30   31 ar   
    56   30   54 1    
    57   31   32 ar   
    58   31   34 1    
    59   32   33 ar   
    60   32   55 1    
    61   33   56 1    
    62   57   58 1    
    63   57   59 1    
@<TRIPOS>SUBSTRUCTURE
     1 UNK         1 GROUP             0       ****    0 ROOT    
