@<TRIPOS>MOLECULE
ZINC62998006_3796
38   40    1
SMALL
USER_CHARGES


@<TRIPOS>ATOM
      1 C1          1.2123   51.5317   27.6932 C.3       1 UNK         0.0000 
      2 C2          1.2928   52.8172   28.5009 C.ar      1 UNK         0.0000 
      3 C3          0.6694   52.8848   29.7491 C.ar      1 UNK         0.0000 
      4 C4          0.6950   54.0650   30.4925 C.ar      1 UNK         0.0000 
      5 C5          1.3260   55.2093   29.9762 C.ar      1 UNK         0.0000 
      6 C6          1.9572   55.1315   28.7336 C.ar      1 UNK         0.0000 
      7 C7          1.9666   53.9404   28.0026 C.ar      1 UNK         0.0000 
      8 O8          2.5975   53.8893   26.7780 O.3       1 UNK         0.0000 
      9 C9          3.9609   54.0973   26.6434 C.ar      1 UNK         0.0000 
     10 C10         4.4906   54.1545   25.3341 C.ar      1 UNK         0.0000 
     11 C11         3.8986   54.0475   24.0301 C.2       1 UNK         0.0000 
     12 C12         4.8525   54.1184   23.0132 C.2       1 UNK         0.0000 
     13 S13         6.4757   54.3746   23.6325 S.3       1 UNK         0.0000 
     14 C14         5.8976   54.3565   25.2765 C.ar      1 UNK         0.0000 
     15 N15         6.7038   54.4967   26.3351 N.ar      1 UNK         0.0000 
     16 C16         6.0722   54.4128   27.5330 C.ar      1 UNK         0.0000 
     17 N17         4.7502   54.2205   27.7507 N.ar      1 UNK         0.0000 
     18 C18         4.6643   54.0295   21.5141 C.3       1 UNK         0.0000 
     19 C19         2.4039   53.8568   23.8390 C.3       1 UNK         0.0000 
     20 C20         1.3242   56.5494   30.7046 C.3       1 UNK         0.0000 
     21 N21         0.0822   54.0670   31.7445 N.pl3     1 UNK         0.0000 
     22 H22         0.3793   50.9030   28.0129 H         1 UNK         0.0000 
     23 H23         1.0513   51.7532   26.6379 H         1 UNK         0.0000 
     24 H24         2.1369   50.9649   27.7824 H         1 UNK         0.0000 
     25 H25         0.1593   52.0159   30.1415 H         1 UNK         0.0000 
     26 H26         2.4461   56.0010   28.3210 H         1 UNK         0.0000 
     27 H27         6.6955   54.5027   28.4127 H         1 UNK         0.0000 
     28 H28         3.6198   54.0324   21.2068 H         1 UNK         0.0000 
     29 H29         5.1327   54.8715   21.0039 H         1 UNK         0.0000 
     30 H30         5.1094   53.1209   21.1090 H         1 UNK         0.0000 
     31 H31         2.0549   52.9424   24.3195 H         1 UNK         0.0000 
     32 H32         2.1026   53.7920   22.7943 H         1 UNK         0.0000 
     33 H33         1.8371   54.6810   24.2717 H         1 UNK         0.0000 
     34 H34         0.3043   56.8880   30.8680 H         1 UNK         0.0000 
     35 H35         1.7964   56.4961   31.6823 H         1 UNK         0.0000 
     36 H36         1.8415   57.3195   30.1342 H         1 UNK         0.0000 
     37 H37         0.2987   54.8156   32.3855 H         1 UNK         0.0000 
     38 H38        -0.3199   53.2021   32.0986 H         1 UNK         0.0000 
@<TRIPOS>BOND
     1    1    2 1    
     2    1   22 1    
     3    1   23 1    
     4    1   24 1    
     5    2    7 ar   
     6    2    3 ar   
     7    3    4 ar   
     8    3   25 1    
     9    4    5 ar   
    10    4   21 1    
    11    5    6 ar   
    12    5   20 1    
    13    6    7 ar   
    14    6   26 1    
    15    7    8 1    
    16    8    9 1    
    17    9   17 ar   
    18    9   10 ar   
    19   10   14 ar   
    20   10   11 1    
    21   11   12 2    
    22   11   19 1    
    23   12   13 1    
    24   12   18 1    
    25   13   14 1    
    26   14   15 ar   
    27   15   16 ar   
    28   16   17 ar   
    29   16   27 1    
    30   18   28 1    
    31   18   29 1    
    32   18   30 1    
    33   19   31 1    
    34   19   32 1    
    35   19   33 1    
    36   20   34 1    
    37   20   35 1    
    38   20   36 1    
    39   21   37 1    
    40   21   38 1    
@<TRIPOS>SUBSTRUCTURE
     1 UNK         1 GROUP             0       ****    0 ROOT    
