ZINC52120585_1753
                    3D
 Schrodinger Suite 2024-2.
 36 37  0  0  1  0            999 V2000
    0.2250   53.6812   32.6456 C   0  0  0  0  0  0
    0.2936   53.3090   31.2422 N   0  0  0  0  0  0
    1.2398   52.5369   30.6921 C   0  0  0  0  0  0
    2.1944   52.0984   31.3402 O   0  0  0  0  0  0
    1.0093   52.0931   29.2220 C   0  0  0  0  0  0
    0.5766   53.2901   28.3256 C   0  0  0  0  0  0
    1.7302   54.2210   27.8758 C   0  0  0  0  0  0
    2.8150   53.4376   27.2693 N   0  0  0  0  0  0
    3.3621   52.5557   28.3040 C   0  0  0  0  0  0
    2.3040   51.4898   28.6335 C   0  0  0  0  0  0
    3.6999   53.9886   26.3495 C   0  0  0  0  0  0
    4.9480   54.4692   26.7700 C   0  0  0  0  0  0
    5.8916   54.8970   25.8436 C   0  0  0  0  0  0
    5.5931   54.8969   24.4860 C   0  0  0  0  0  0
    4.3294   54.4963   24.0561 C   0  0  0  0  0  0
    3.3747   54.0605   24.9766 C   0  0  0  0  0  0
    2.1299   53.6543   24.4828 N   0  0  0  0  0  0
    7.1043   55.2999   26.2661 F   0  0  0  0  0  0
   -0.8188   53.6967   32.9504 H   0  0  0  0  0  0
    0.6665   54.6612   32.8181 H   0  0  0  0  0  0
    0.7044   52.9411   33.2815 H   0  0  0  0  0  0
   -0.4961   53.5644   30.6731 H   0  0  0  0  0  0
    0.1895   51.3789   29.3200 H   0  0  0  0  0  0
    0.0184   52.9087   27.4695 H   0  0  0  0  0  0
   -0.2384   53.8540   28.7792 H   0  0  0  0  0  0
    1.3276   54.8966   27.1326 H   0  0  0  0  0  0
    2.1073   54.8332   28.6971 H   0  0  0  0  0  0
    4.2867   52.0967   27.9643 H   0  0  0  0  0  0
    3.6274   53.1408   29.1866 H   0  0  0  0  0  0
    2.7014   50.7155   29.2805 H   0  0  0  0  0  0
    2.0428   50.8838   27.7649 H   0  0  0  0  0  0
    5.2166   54.4617   27.8161 H   0  0  0  0  0  0
    6.3344   55.2244   23.7716 H   0  0  0  0  0  0
    4.0987   54.5213   23.0006 H   0  0  0  0  0  0
    1.9889   53.5882   23.4854 H   0  0  0  0  0  0
    1.4973   53.2004   25.1269 H   0  0  0  0  0  0
  1  2  1  0  0  0
  1 19  1  0  0  0
  1 20  1  0  0  0
  1 21  1  0  0  0
  2  3  1  0  0  0
  2 22  1  0  0  0
  3  4  2  0  0  0
  3  5  1  0  0  0
  5 10  1  0  0  0
  5  6  1  0  0  0
  5 23  1  0  0  0
  6  7  1  0  0  0
  6 24  1  0  0  0
  6 25  1  0  0  0
  7  8  1  0  0  0
  7 26  1  0  0  0
  7 27  1  0  0  0
  8  9  1  0  0  0
  8 11  1  0  0  0
  9 10  1  0  0  0
  9 28  1  0  0  0
  9 29  1  0  0  0
 10 30  1  0  0  0
 10 31  1  0  0  0
 11 16  2  0  0  0
 11 12  1  0  0  0
 12 13  2  0  0  0
 12 32  1  0  0  0
 13 14  1  0  0  0
 13 18  1  0  0  0
 14 15  2  0  0  0
 14 33  1  0  0  0
 15 16  1  0  0  0
 15 34  1  0  0  0
 16 17  1  0  0  0
 17 35  1  0  0  0
 17 36  1  0  0  0
M  END
> <i_i_glide_confnum>
31

> <i_i_glide_lignum>
1754

> <i_i_glide_posenum>
146

> <i_i_glide_rotatable_bonds>
3

> <i_m_Source_File_Index>
4464

> <b_m_subgroup_collapsed>
0

> <r_i_docking_score>
-5.99728

> <r_i_glide_ecoul>
-4.42096

> <r_i_glide_eff_state_penalty>
0

> <r_i_glide_einternal>
1.1743

> <r_i_glide_emodel>
-43.924

> <r_i_glide_energy>
-31.4074

> <r_i_glide_erotb>
0.555042

> <r_i_glide_esite>
-0.100233

> <r_i_glide_evdw>
-26.9864

> <r_i_glide_gscore>
-5.99728

> <r_i_glide_hbond>
-0.242523

> <r_i_glide_ligand_efficiency>
-0.333182

> <r_i_glide_ligand_efficiency_ln>
-1.54157

> <r_i_glide_ligand_efficiency_sa>
-0.873184

> <r_i_glide_lipo>
-2.25948

> <r_i_glide_metal>
0

> <r_i_glide_rewards>
-1.93762

> <s_i_glide_gridfile>
wee1_glide-grid

> <s_m_Source_File>
wee1_decoys_glide_SP.sdf

> <s_m_Source_Path>
/Users/zhangxujun/Desktop

> <s_m_entry_id>
4739

> <s_m_entry_name>
wee1_decoys_glide_SP.4464

> <s_m_subgroup_title>
wee1_decoys_glide_SP

> <s_m_subgroupid>
wee1_decoys_glide_SP


$$$$
