@<TRIPOS>MOLECULE
ZINC12941110_1951
44   46    1
SMALL
USER_CHARGES


@<TRIPOS>ATOM
      1 C1          3.1044   54.0967   26.2473 C.ar      1 UNK         0.0000 
      2 C2          3.5821   54.0675   24.9363 C.ar      1 UNK         0.0000 
      3 C3          4.9663   54.0967   24.7040 C.ar      1 UNK         0.0000 
      4 N4          5.8392   54.2133   25.7482 N.ar      1 UNK         0.0000 
      5 C5          5.3625   54.2525   27.0178 C.ar      1 UNK         0.0000 
      6 C6          3.9984   54.1894   27.3176 C.ar      1 UNK         0.0000 
      7 C7          3.4806   54.2424   28.7526 C.3       1 UNK         0.0000 
      8 F8          2.5569   55.1974   28.8691 F         1 UNK         0.0000 
      9 F9          2.9277   53.0716   29.0693 F         1 UNK         0.0000 
     10 F10         4.4505   54.4967   29.6310 F         1 UNK         0.0000 
     11 N11         5.5101   54.0606   23.4142 N.pl3     1 UNK         0.0000 
     12 C12         6.9522   54.0127   23.1163 C.3       1 UNK         0.0000 
     13 C13         7.3430   55.0138   22.0009 C.3       1 UNK         0.0000 
     14 C14         6.4769   54.8967   20.7121 C.3       1 UNK         0.0000 
     15 C15         4.9920   54.8227   21.1222 C.3       1 UNK         0.0000 
     16 C16         4.7753   53.7183   22.1793 C.3       1 UNK         0.0000 
     17 C17         6.8318   56.1138   19.8362 C.2       1 UNK         0.0000 
     18 O18         6.7044   57.2618   20.2735 O.2       1 UNK         0.0000 
     19 N19         7.3778   55.8161   18.6380 N.am      1 UNK         0.0000 
     20 C20         8.2288   56.6569   17.9561 C.2       1 UNK         0.0000 
     21 N21         9.3040   57.1908   18.4817 N.2       1 UNK         0.0000 
     22 C22        10.0055   57.8710   17.5954 C.2       1 UNK         0.0000 
     23 C23         9.4828   57.8641   16.3002 C.2       1 UNK         0.0000 
     24 S24         8.0065   56.9404   16.2653 S.3       1 UNK         0.0000 
     25 C25        11.2623   58.5572   18.1133 C.3       1 UNK         0.0000 
     26 C26        10.9454   59.8865   18.8126 C.2       1 UNK         0.0000 
     27 O27        11.7490   60.2921   19.6816 O.co2     1 UNK         0.0000 
     28 O28         9.9044   60.4967   18.4817 O.co2     1 UNK         0.0000 
     29 H29         2.0395   54.0578   26.4279 H         1 UNK         0.0000 
     30 H30         2.8672   54.0136   24.1319 H         1 UNK         0.0000 
     31 H31         6.1064   54.3372   27.7980 H         1 UNK         0.0000 
     32 H32         7.2420   52.9893   22.8817 H         1 UNK         0.0000 
     33 H33         7.5199   54.2863   24.0026 H         1 UNK         0.0000 
     34 H34         8.3910   54.8488   21.7549 H         1 UNK         0.0000 
     35 H35         7.2350   55.9867   22.4868 H         1 UNK         0.0000 
     36 H36         6.7042   54.0414   20.0817 H         1 UNK         0.0000 
     37 H37         4.7043   55.6967   21.6802 H         1 UNK         0.0000 
     38 H38         4.3340   54.6236   20.2747 H         1 UNK         0.0000 
     39 H39         5.1610   52.7660   21.8095 H         1 UNK         0.0000 
     40 H40         3.7095   53.5610   22.3289 H         1 UNK         0.0000 
     41 H41         7.2506   54.8910   18.2566 H         1 UNK         0.0000 
     42 H42         9.8657   58.3508   15.4164 H         1 UNK         0.0000 
     43 H43        11.9617   58.7573   17.3024 H         1 UNK         0.0000 
     44 H44        11.7898   57.9098   18.8160 H         1 UNK         0.0000 
@<TRIPOS>BOND
     1    1    6 ar   
     2    1    2 ar   
     3    1   29 1    
     4    2    3 ar   
     5    2   30 1    
     6    3    4 ar   
     7    3   11 1    
     8    4    5 ar   
     9    5    6 ar   
    10    5   31 1    
    11    6    7 1    
    12    7    8 1    
    13    7    9 1    
    14    7   10 1    
    15   11   16 1    
    16   11   12 1    
    17   12   13 1    
    18   12   32 1    
    19   12   33 1    
    20   13   14 1    
    21   13   34 1    
    22   13   35 1    
    23   14   15 1    
    24   14   17 1    
    25   14   36 1    
    26   15   16 1    
    27   15   37 1    
    28   15   38 1    
    29   16   39 1    
    30   16   40 1    
    31   17   18 2    
    32   17   19 am   BACKBONE|DICT|INTERRES
    33   19   20 am   BACKBONE|DICT|INTERRES
    34   19   41 1    
    35   20   24 1    
    36   20   21 2    
    37   21   22 1    
    38   22   23 2    
    39   22   25 1    
    40   23   24 1    
    41   23   42 1    
    42   25   26 1    
    43   25   43 1    
    44   25   44 1    
    45   26   27 2    
    46   26   28 1    
@<TRIPOS>SUBSTRUCTURE
     1 UNK         1 GROUP             0       ****    0 ROOT    
