@<TRIPOS>MOLECULE
ZINC11695904_5926
56   59    1
SMALL
USER_CHARGES


@<TRIPOS>ATOM
      1 C1         10.3424   52.6054   16.5122 C.3       1 UNK         0.0000 
      2 C2          9.2762   53.4526   17.1842 C.ar      1 UNK         0.0000 
      3 C3          9.6486   54.5388   17.9762 C.ar      1 UNK         0.0000 
      4 C4          8.6767   55.2949   18.6289 C.ar      1 UNK         0.0000 
      5 C5          7.3296   54.9628   18.4739 C.ar      1 UNK         0.0000 
      6 C6          6.9541   53.8800   17.6754 C.ar      1 UNK         0.0000 
      7 C7          7.9279   53.1219   17.0342 C.ar      1 UNK         0.0000 
      8 S8          6.0563   55.8982   19.3120 S.o2      1 UNK         0.0000 
      9 O9          5.0916   56.3262   18.2912 O.2       1 UNK         0.0000 
     10 O10         6.7043   56.8779   20.1985 O.2       1 UNK         0.0000 
     11 C11         5.2379   54.6391   20.3463 C.ar      1 UNK         0.0000 
     12 C12         5.4913   54.3042   21.6612 C.ar      1 UNK         0.0000 
     13 N13         4.6893   53.3236   21.9823 N.ar      1 UNK         0.0000 
     14 C14         4.0256   53.0691   20.8800 C.ar      1 UNK         0.0000 
     15 N15         4.3164   53.8420   19.8626 N.2       1 UNK         0.0000 
     16 C16         3.0344   51.9410   20.7936 C.ar      1 UNK         0.0000 
     17 C17         2.7049   51.3690   19.5582 C.ar      1 UNK         0.0000 
     18 C18         1.8269   50.2902   19.4877 C.ar      1 UNK         0.0000 
     19 C19         1.2647   49.7821   20.6559 C.ar      1 UNK         0.0000 
     20 C20         1.5688   50.3465   21.8914 C.ar      1 UNK         0.0000 
     21 C21         2.4490   51.4233   21.9572 C.ar      1 UNK         0.0000 
     22 S22         6.7044   54.9870   22.7470 S.3       1 UNK         0.0000 
     23 C23         6.6880   53.8347   24.1635 C.3       1 UNK         0.0000 
     24 C24         6.4848   54.5043   25.5234 C.2       1 UNK         0.0000 
     25 O25         6.7045   55.7009   25.6840 O.2       1 UNK         0.0000 
     26 N26         6.0990   53.6960   26.5189 N.am      1 UNK         0.0000 
     27 C27         5.8511   54.0787   27.9071 C.3       1 UNK         0.0000 
     28 C28         4.4159   53.7390   28.3717 C.3       1 UNK         0.0000 
     29 H29         4.2749   52.6572   28.3352 H         1 UNK         0.0000 
     30 C30         4.0095   54.3532   29.7074 C.3       1 UNK         0.0000 
     31 C31         2.5173   54.6028   29.6045 C.3       1 UNK         0.0000 
     32 C32         2.2163   54.4548   28.1131 C.3       1 UNK         0.0000 
     33 O33         3.4890   54.3564   27.4805 O.3       1 UNK         0.0000 
     34 H34        11.2478   52.5698   17.1211 H         1 UNK         0.0000 
     35 H35        10.0058   51.5738   16.3957 H         1 UNK         0.0000 
     36 H36        10.5927   53.0109   15.5313 H         1 UNK         0.0000 
     37 H37        10.6919   54.7932   18.0966 H         1 UNK         0.0000 
     38 H38         8.9742   56.1248   19.2523 H         1 UNK         0.0000 
     39 H39         5.9103   53.6163   17.5663 H         1 UNK         0.0000 
     40 H40         7.6332   52.2732   16.4334 H         1 UNK         0.0000 
     41 H41         3.1595   51.7380   18.6493 H         1 UNK         0.0000 
     42 H42         1.6012   49.8445   18.5304 H         1 UNK         0.0000 
     43 H43         0.5882   48.9421   20.6016 H         1 UNK         0.0000 
     44 H44         1.1334   49.9477   22.7956 H         1 UNK         0.0000 
     45 H45         2.6907   51.8532   22.9184 H         1 UNK         0.0000 
     46 H46         7.6365   53.2984   24.1705 H         1 UNK         0.0000 
     47 H47         5.9064   53.0912   24.0494 H         1 UNK         0.0000 
     48 H48         5.9592   52.7181   26.3027 H         1 UNK         0.0000 
     49 H49         6.0646   55.1362   28.0853 H         1 UNK         0.0000 
     50 H50         6.5651   53.5340   28.5260 H         1 UNK         0.0000 
     51 H51         4.5405   55.2965   29.8311 H         1 UNK         0.0000 
     52 H52         4.3043   53.7342   30.5544 H         1 UNK         0.0000 
     53 H53         2.2564   55.6002   29.9679 H         1 UNK         0.0000 
     54 H54         1.9453   53.8740   30.1837 H         1 UNK         0.0000 
     55 H55         1.6515   55.2957   27.7112 H         1 UNK         0.0000 
     56 H56         1.6361   53.5555   27.9008 H         1 UNK         0.0000 
@<TRIPOS>BOND
     1    1    2 1    
     2    1   34 1    
     3    1   35 1    
     4    1   36 1    
     5    2    7 ar   
     6    2    3 ar   
     7    3    4 ar   
     8    3   37 1    
     9    4    5 ar   
    10    4   38 1    
    11    5    6 ar   
    12    5    8 1    
    13    6    7 ar   
    14    6   39 1    
    15    7   40 1    
    16    8    9 2    
    17    8   10 2    
    18    8   11 1    
    19   11   12 ar   
    20   11   15 ar   
    21   12   22 1    
    22   12   13 ar   
    23   13   14 ar   
    24   14   15 ar   
    25   14   16 1    
    26   16   21 ar   
    27   16   17 ar   
    28   17   18 ar   
    29   17   41 1    
    30   18   19 ar   
    31   18   42 1    
    32   19   20 ar   
    33   19   43 1    
    34   20   21 ar   
    35   20   44 1    
    36   21   45 1    
    37   22   23 1    
    38   23   24 1    
    39   23   46 1    
    40   23   47 1    
    41   24   25 2    
    42   24   26 am   BACKBONE|DICT|INTERRES
    43   26   27 1    
    44   26   48 1    
    45   27   28 1    
    46   27   49 1    
    47   27   50 1    
    48   28   29 1    
    49   28   33 1    
    50   28   30 1    
    51   30   31 1    
    52   30   51 1    
    53   30   52 1    
    54   31   32 1    
    55   31   53 1    
    56   31   54 1    
    57   32   33 1    
    58   32   55 1    
    59   32   56 1    
@<TRIPOS>SUBSTRUCTURE
     1 UNK         1 GROUP             0       ****    0 ROOT    
