@<TRIPOS>MOLECULE
ZINC35403761_4339
51   55    1
SMALL
USER_CHARGES


@<TRIPOS>ATOM
      1 C1          0.3820   50.9227   25.8820 C.3       1 UNK         0.0000 
      2 C2         -0.8770   51.6644   25.4542 C.ar      1 UNK         0.0000 
      3 C3         -1.8609   51.8938   26.4227 C.ar      1 UNK         0.0000 
      4 C4         -3.0659   52.5069   26.0831 C.ar      1 UNK         0.0000 
      5 C5         -3.2980   52.9063   24.7697 C.ar      1 UNK         0.0000 
      6 C6         -2.3258   52.6920   23.7949 C.ar      1 UNK         0.0000 
      7 C7         -1.1107   52.0643   24.1176 C.ar      1 UNK         0.0000 
      8 N8         -0.2043   51.7739   23.0701 N.am      1 UNK         0.0000 
      9 C9          1.0793   52.2598   22.9629 C.2       1 UNK         0.0000 
     10 O10         1.7238   52.9363   23.7632 O.2       1 UNK         0.0000 
     11 C11         1.5326   51.8598   21.5657 C.3       1 UNK         0.0000 
     12 H12         1.2167   52.6693   20.8987 H         1 UNK         0.0000 
     13 C13         2.9396   51.4301   21.1403 C.3       1 UNK         0.0000 
     14 H14         3.4213   50.7814   21.8744 H         1 UNK         0.0000 
     15 N15         2.5918   50.5015   19.9309 N.4       1 UNK         0.0000 
     16 C16         1.0606   50.1498   19.9588 C.3       1 UNK         0.0000 
     17 C17         0.7974   50.5956   21.4092 C.3       1 UNK         0.0000 
     18 H18         1.1829   49.7829   22.0396 H         1 UNK         0.0000 
     19 C19        -0.5324   50.9287   22.0409 C.2       1 UNK         0.0000 
     20 O20        -1.6325   50.4731   21.7238 O.2       1 UNK         0.0000 
     21 C21         0.2858   50.9775   18.8840 C.ar      1 UNK         0.0000 
     22 C22         0.8808   52.0498   18.1924 C.ar      1 UNK         0.0000 
     23 C23         0.1513   52.8066   17.2812 C.ar      1 UNK         0.0000 
     24 C24        -1.1856   52.5029   17.0415 C.ar      1 UNK         0.0000 
     25 C25        -1.7999   51.4529   17.7160 C.ar      1 UNK         0.0000 
     26 C26        -1.0683   50.6983   18.6281 C.ar      1 UNK         0.0000 
     27 C27         0.9604   48.6025   19.6850 C.2       1 UNK         0.0000 
     28 O28        -0.0779   48.0198   20.0722 O.co2     1 UNK         0.0000 
     29 O29         1.9208   47.9940   19.1568 O.co2     1 UNK         0.0000 
     30 C30         3.8920   52.5615   20.7695 C.2       1 UNK         0.0000 
     31 C31         4.4626   52.8969   19.5352 C.2       1 UNK         0.0000 
     32 C32         5.3004   54.0124   19.5587 C.2       1 UNK         0.0000 
     33 C33         5.4099   54.5633   20.8191 C.2       1 UNK         0.0000 
     34 S34         4.4519   53.6981   21.9733 S.3       1 UNK         0.0000 
     35 Cl35        6.3455   55.9282   21.2865 Cl        1 UNK         0.0000 
     36 H36         0.2198   50.3434   26.7948 H         1 UNK         0.0000 
     37 H37         0.6985   50.2093   25.1210 H         1 UNK         0.0000 
     38 H38         1.1902   51.6362   26.0537 H         1 UNK         0.0000 
     39 H39        -1.7060   51.5730   27.4444 H         1 UNK         0.0000 
     40 H40        -3.8234   52.6599   26.8376 H         1 UNK         0.0000 
     41 H41        -4.2345   53.3753   24.5050 H         1 UNK         0.0000 
     42 H42        -2.5291   52.9898   22.7764 H         1 UNK         0.0000 
     43 H43         3.1061   49.6285   19.9621 H         1 UNK         0.0000 
     44 H44         1.9059   52.3376   18.3571 H         1 UNK         0.0000 
     45 H45         0.6220   53.6293   16.7616 H         1 UNK         0.0000 
     46 H46        -1.7508   53.0913   16.3325 H         1 UNK         0.0000 
     47 H47        -2.8387   51.2225   17.5311 H         1 UNK         0.0000 
     48 H48        -1.5721   49.8991   19.1497 H         1 UNK         0.0000 
     49 H49         4.2920   52.3372   18.6271 H         1 UNK         0.0000 
     50 H50         5.8148   54.3951   18.6903 H         1 UNK         0.0000 
     51 H51         2.8437   50.9034   19.0397 H         1 UNK         0.0000 
@<TRIPOS>BOND
     1    1    2 1    
     2    1   36 1    
     3    1   37 1    
     4    1   38 1    
     5    2    7 ar   
     6    2    3 ar   
     7    3    4 ar   
     8    3   39 1    
     9    4    5 ar   
    10    4   40 1    
    11    5    6 ar   
    12    5   41 1    
    13    6    7 ar   
    14    6   42 1    
    15    7    8 1    
    16    8   19 am   BACKBONE|DICT|INTERRES
    17    8    9 am   BACKBONE|DICT|INTERRES
    18    9   10 2    
    19    9   11 1    
    20   11   12 1    
    21   11   17 1    
    22   11   13 1    
    23   13   14 1    
    24   13   15 1    
    25   13   30 1    
    26   15   16 1    
    27   15   43 1    
    28   15   51 1    
    29   16   17 1    
    30   16   21 1    
    31   16   27 1    
    32   17   18 1    
    33   17   19 1    
    34   19   20 2    
    35   21   26 ar   
    36   21   22 ar   
    37   22   23 ar   
    38   22   44 1    
    39   23   24 ar   
    40   23   45 1    
    41   24   25 ar   
    42   24   46 1    
    43   25   26 ar   
    44   25   47 1    
    45   26   48 1    
    46   27   28 2    
    47   27   29 1    
    48   30   34 1    
    49   30   31 2    
    50   31   32 1    
    51   31   49 1    
    52   32   33 2    
    53   32   50 1    
    54   33   34 1    
    55   33   35 1    
@<TRIPOS>SUBSTRUCTURE
     1 UNK         1 GROUP             0       ****    0 ROOT    
