@<TRIPOS>MOLECULE
ZINC13089074_549
58   60    1
SMALL
USER_CHARGES


@<TRIPOS>ATOM
      1 C1         -0.3397   51.9207   29.6148 C.3       1 UNK         0.0000 
      2 C2          0.6967   52.8762   29.0380 C.ar      1 UNK         0.0000 
      3 C3          1.2523   53.8378   29.8857 C.ar      1 UNK         0.0000 
      4 C4          2.2366   54.7056   29.4239 C.ar      1 UNK         0.0000 
      5 C5          2.6812   54.6105   28.1101 C.ar      1 UNK         0.0000 
      6 C6          2.1296   53.6692   27.2241 C.ar      1 UNK         0.0000 
      7 C7          1.1179   52.7987   27.6938 C.ar      1 UNK         0.0000 
      8 C8          0.4675   51.7801   26.7484 C.3       1 UNK         0.0000 
      9 N9          2.5134   53.5790   25.8649 N.am      1 UNK         0.0000 
     10 C10         3.5045   54.1920   25.1769 C.2       1 UNK         0.0000 
     11 O11         4.3623   54.9085   25.6889 O.2       1 UNK         0.0000 
     12 C12         3.5836   53.9760   23.6445 C.3       1 UNK         0.0000 
     13 N13         2.7044   52.8960   23.1655 N.3       1 UNK         0.0000 
     14 C14         1.3016   53.3151   22.9465 C.3       1 UNK         0.0000 
     15 C15         0.4429   52.0694   22.6287 C.3       1 UNK         0.0000 
     16 N16         1.0059   51.3461   21.4688 N.pl3     1 UNK         0.0000 
     17 C17         2.4340   51.0022   21.6064 C.3       1 UNK         0.0000 
     18 C18         3.2577   52.2591   21.9505 C.3       1 UNK         0.0000 
     19 S19         0.2051   51.3057   19.8944 S.o2      1 UNK         0.0000 
     20 O20         1.0279   52.0806   18.9588 O.2       1 UNK         0.0000 
     21 O21        -1.2070   51.6510   20.0976 O.2       1 UNK         0.0000 
     22 C22         0.2925   49.5779   19.4259 C.ar      1 UNK         0.0000 
     23 C23        -0.6148   48.6671   19.9744 C.ar      1 UNK         0.0000 
     24 C24        -0.5014   47.3103   19.6780 C.ar      1 UNK         0.0000 
     25 C25         0.5165   46.8504   18.8315 C.ar      1 UNK         0.0000 
     26 C26         1.4153   47.7729   18.2813 C.ar      1 UNK         0.0000 
     27 C27         1.3099   49.1292   18.5791 C.ar      1 UNK         0.0000 
     28 C28         0.7044   45.4172   18.5287 C.2       1 UNK         0.0000 
     29 C29         0.2890   44.3758   19.2858 C.2       1 UNK         0.0000 
     30 C30         0.5329   42.8943   18.9428 C.2       1 UNK         0.0000 
     31 O31         0.8925   42.6505   17.7703 O.co2     1 UNK         0.0000 
     32 O32         0.3042   42.1006   19.8863 O.co2     1 UNK         0.0000 
     33 H33        -0.0862   50.8953   29.3456 H         1 UNK         0.0000 
     34 H34        -0.3922   51.9642   30.7040 H         1 UNK         0.0000 
     35 H35        -1.3246   52.1298   29.2038 H         1 UNK         0.0000 
     36 H36         0.9223   53.9140   30.9116 H         1 UNK         0.0000 
     37 H37         2.6559   55.4514   30.0813 H         1 UNK         0.0000 
     38 H38         3.4516   55.2965   27.8020 H         1 UNK         0.0000 
     39 H39        -0.5174   51.4527   27.0812 H         1 UNK         0.0000 
     40 H40         0.2967   52.2140   25.7603 H         1 UNK         0.0000 
     41 H41         1.1033   50.9019   26.6347 H         1 UNK         0.0000 
     42 H42         1.9707   52.9313   25.3105 H         1 UNK         0.0000 
     43 H43         4.6280   53.7447   23.4284 H         1 UNK         0.0000 
     44 H44         3.3503   54.9057   23.1269 H         1 UNK         0.0000 
     45 H45         1.3281   53.9821   22.0837 H         1 UNK         0.0000 
     46 H46         0.8844   53.8610   23.7949 H         1 UNK         0.0000 
     47 H47        -0.5738   52.3801   22.3865 H         1 UNK         0.0000 
     48 H48         0.3836   51.3889   23.4793 H         1 UNK         0.0000 
     49 H49         2.5477   50.2245   22.3631 H         1 UNK         0.0000 
     50 H50         2.7857   50.5902   20.6597 H         1 UNK         0.0000 
     51 H51         4.3116   51.9969   22.0661 H         1 UNK         0.0000 
     52 H52         3.1547   53.0047   21.1577 H         1 UNK         0.0000 
     53 H53        -1.3952   49.0098   20.6416 H         1 UNK         0.0000 
     54 H54        -1.2090   46.6197   20.1140 H         1 UNK         0.0000 
     55 H55         2.2186   47.4476   17.6338 H         1 UNK         0.0000 
     56 H56         2.0349   49.8188   18.1596 H         1 UNK         0.0000 
     57 H57         1.2227   45.2027   17.6026 H         1 UNK         0.0000 
     58 H58        -0.2460   44.5764   20.2031 H         1 UNK         0.0000 
@<TRIPOS>BOND
     1    1    2 1    
     2    1   33 1    
     3    1   34 1    
     4    1   35 1    
     5    2    7 ar   
     6    2    3 ar   
     7    3    4 ar   
     8    3   36 1    
     9    4    5 ar   
    10    4   37 1    
    11    5    6 ar   
    12    5   38 1    
    13    6    7 ar   
    14    6    9 1    
    15    7    8 1    
    16    8   39 1    
    17    8   40 1    
    18    8   41 1    
    19    9   10 am   BACKBONE|DICT|INTERRES
    20    9   42 1    
    21   10   11 2    
    22   10   12 1    
    23   12   13 1    
    24   12   43 1    
    25   12   44 1    
    26   13   18 1    
    27   13   14 1    
    28   14   15 1    
    29   14   45 1    
    30   14   46 1    
    31   15   16 1    
    32   15   47 1    
    33   15   48 1    
    34   16   17 1    
    35   16   19 1    
    36   17   18 1    
    37   17   49 1    
    38   17   50 1    
    39   18   51 1    
    40   18   52 1    
    41   19   20 2    
    42   19   21 2    
    43   19   22 1    
    44   22   27 ar   
    45   22   23 ar   
    46   23   24 ar   
    47   23   53 1    
    48   24   25 ar   
    49   24   54 1    
    50   25   26 ar   
    51   25   28 1    
    52   26   27 ar   
    53   26   55 1    
    54   27   56 1    
    55   28   29 2    
    56   28   57 1    
    57   29   30 1    
    58   29   58 1    
    59   30   31 2    
    60   30   32 1    
@<TRIPOS>SUBSTRUCTURE
     1 UNK         1 GROUP             0       ****    0 ROOT    
