@<TRIPOS>MOLECULE
ZINC08935649_464
57   61    1
SMALL
USER_CHARGES


@<TRIPOS>ATOM
      1 C1          6.4853   54.5002   27.0643 C.ar      1 UNK         0.0000 
      2 C2          5.6411   53.6718   27.7955 C.ar      1 UNK         0.0000 
      3 C3          4.3591   53.3999   27.3259 C.ar      1 UNK         0.0000 
      4 C4          3.8920   53.9877   26.1386 C.ar      1 UNK         0.0000 
      5 C5          4.7600   54.8199   25.4154 C.ar      1 UNK         0.0000 
      6 C6          6.0522   55.0711   25.8704 C.ar      1 UNK         0.0000 
      7 C7          2.5187   53.6967   25.5848 C.2       1 UNK         0.0000 
      8 O8          2.2197   54.0120   24.4307 O.2       1 UNK         0.0000 
      9 C9          1.5033   53.0139   26.4081 C.2       1 UNK         0.0000 
     10 C10         1.1054   53.3931   27.7253 C.2       1 UNK         0.0000 
     11 C11         0.2421   52.4635   28.3199 C.2       1 UNK         0.0000 
     12 S12        -0.2875   51.2677   27.2077 S.3       1 UNK         0.0000 
     13 C13         0.7432   51.9089   25.9593 C.2       1 UNK         0.0000 
     14 N14         0.8545   51.3080   24.6981 N.am      1 UNK         0.0000 
     15 C15         0.2579   50.1872   24.2242 C.2       1 UNK         0.0000 
     16 O16        -0.6165   49.5514   24.8089 O.2       1 UNK         0.0000 
     17 C17         0.7334   49.6427   22.8651 C.3       1 UNK         0.0000 
     18 N18         1.2912   50.6225   21.9379 N.pl3     1 UNK         0.0000 
     19 N19         2.5081   51.1500   22.0998 N.2       1 UNK         0.0000 
     20 C20         2.5301   52.0649   21.1530 C.ar      1 UNK         0.0000 
     21 N21         1.4348   52.0963   20.4058 N.2       1 UNK         0.0000 
     22 N22         0.5799   51.1587   20.9468 N.2       1 UNK         0.0000 
     23 C23         3.6679   53.0238   20.9850 C.ar      1 UNK         0.0000 
     24 C24         3.9167   53.6439   19.7570 C.ar      1 UNK         0.0000 
     25 C25         4.9440   54.5786   19.6356 C.ar      1 UNK         0.0000 
     26 C26         5.7441   54.8967   20.7398 C.ar      1 UNK         0.0000 
     27 C27         5.5047   54.2633   21.9638 C.ar      1 UNK         0.0000 
     28 C28         4.4750   53.3403   22.0824 C.ar      1 UNK         0.0000 
     29 C29         6.8335   55.9273   20.6089 C.2       1 UNK         0.0000 
     30 O30         6.7052   56.9299   19.9130 O.2       1 UNK         0.0000 
     31 N31         7.9590   55.6962   21.2817 N.am      1 UNK         0.0000 
     32 C32        -0.1740   52.4386   29.7817 C.3       1 UNK         0.0000 
     33 C33         0.0635   53.8242   30.4079 C.3       1 UNK         0.0000 
     34 C34         1.4294   54.4163   30.0203 C.3       1 UNK         0.0000 
     35 C35         1.5483   54.6464   28.4981 C.3       1 UNK         0.0000 
     36 H36         7.4820   54.6997   27.4329 H         1 UNK         0.0000 
     37 H37         5.9891   53.2255   28.7152 H         1 UNK         0.0000 
     38 H38         3.7415   52.7221   27.8964 H         1 UNK         0.0000 
     39 H39         4.4403   55.2787   24.4901 H         1 UNK         0.0000 
     40 H40         6.7072   55.7153   25.3019 H         1 UNK         0.0000 
     41 H41         1.5087   51.7575   24.0722 H         1 UNK         0.0000 
     42 H42         1.5053   48.8983   23.0627 H         1 UNK         0.0000 
     43 H43        -0.0947   49.1311   22.3728 H         1 UNK         0.0000 
     44 H44         3.3024   53.4166   18.8972 H         1 UNK         0.0000 
     45 H45         5.1063   55.0590   18.6803 H         1 UNK         0.0000 
     46 H46         6.0972   54.4938   22.8365 H         1 UNK         0.0000 
     47 H47         4.2883   52.8966   23.0461 H         1 UNK         0.0000 
     48 H48         8.0438   54.8959   21.8885 H         1 UNK         0.0000 
     49 H49         8.7342   56.3353   21.1882 H         1 UNK         0.0000 
     50 H50        -1.2134   52.1275   29.8998 H         1 UNK         0.0000 
     51 H51         0.4236   51.6975   30.3121 H         1 UNK         0.0000 
     52 H52        -0.7251   54.4969   30.0815 H         1 UNK         0.0000 
     53 H53        -0.0274   53.7530   31.4926 H         1 UNK         0.0000 
     54 H54         1.5831   55.3620   30.5427 H         1 UNK         0.0000 
     55 H55         2.2237   53.7457   30.3516 H         1 UNK         0.0000 
     56 H56         2.5563   54.9824   28.2650 H         1 UNK         0.0000 
     57 H57         0.9036   55.4764   28.2115 H         1 UNK         0.0000 
@<TRIPOS>BOND
     1    1    6 ar   
     2    1    2 ar   
     3    1   36 1    
     4    2    3 ar   
     5    2   37 1    
     6    3    4 ar   
     7    3   38 1    
     8    4    5 ar   
     9    4    7 1    
    10    5    6 ar   
    11    5   39 1    
    12    6   40 1    
    13    7    8 2    
    14    7    9 1    
    15    9   13 2    
    16    9   10 1    
    17   10   35 1    
    18   10   11 2    
    19   11   12 1    
    20   11   32 1    
    21   12   13 1    
    22   13   14 am   BACKBONE|DICT|INTERRES
    23   14   15 am   BACKBONE|DICT|INTERRES
    24   14   41 1    
    25   15   16 2    
    26   15   17 1    
    27   17   18 1    
    28   17   42 1    
    29   17   43 1    
    30   18   22 ar   
    31   18   19 ar   
    32   19   20 ar   
    33   20   21 ar   
    34   20   23 1    
    35   21   22 ar   
    36   23   28 ar   
    37   23   24 ar   
    38   24   25 ar   
    39   24   44 1    
    40   25   26 ar   
    41   25   45 1    
    42   26   27 ar   
    43   26   29 1    
    44   27   28 ar   
    45   27   46 1    
    46   28   47 1    
    47   29   30 2    
    48   29   31 am   BACKBONE|DICT|INTERRES
    49   31   48 1    
    50   31   49 1    
    51   32   33 1    
    52   32   50 1    
    53   32   51 1    
    54   33   34 1    
    55   33   52 1    
    56   33   53 1    
    57   34   35 1    
    58   34   54 1    
    59   34   55 1    
    60   35   56 1    
    61   35   57 1    
@<TRIPOS>SUBSTRUCTURE
     1 UNK         1 GROUP             0       ****    0 ROOT    
