@<TRIPOS>MOLECULE
ZINC24286608_3265
70   75    1
SMALL
USER_CHARGES


@<TRIPOS>ATOM
      1 C1          3.8727   52.2955   29.5992 C.3       1 UNK         0.0000 
      2 C2          3.5816   53.2143   28.3867 C.3       1 UNK         0.0000 
      3 H3          3.2091   54.1510   28.8072 H         1 UNK         0.0000 
      4 C4          4.8652   53.6329   27.5891 C.2       1 UNK         0.0000 
      5 O5          5.9594   53.3007   28.0536 O.2       1 UNK         0.0000 
      6 N6          4.7752   54.3495   26.4309 N.am      1 UNK         0.0000 
      7 C7          3.5242   54.8817   25.8902 C.3       1 UNK         0.0000 
      8 C8          3.2457   54.1380   24.5742 C.3       1 UNK         0.0000 
      9 C9          4.4170   54.2733   23.5730 C.3       1 UNK         0.0000 
     10 C10         5.8251   54.1010   24.2037 C.3       1 UNK         0.0000 
     11 C11         5.9661   54.7100   25.6296 C.3       1 UNK         0.0000 
     12 C12         4.2429   53.4862   22.2505 C.2       1 UNK         0.0000 
     13 O13         5.0797   53.6134   21.3543 O.2       1 UNK         0.0000 
     14 N14         3.1902   52.6430   22.1826 N.am      1 UNK         0.0000 
     15 C15         2.7594   51.8710   21.1014 C.ar      1 UNK         0.0000 
     16 C16         2.1971   50.6148   21.3996 C.ar      1 UNK         0.0000 
     17 C17         1.6289   49.8260   20.3897 C.ar      1 UNK         0.0000 
     18 C18         1.6331   50.3354   19.0970 C.ar      1 UNK         0.0000 
     19 C19         2.1796   51.5553   18.8016 C.ar      1 UNK         0.0000 
     20 C20         2.7596   52.3572   19.7789 C.ar      1 UNK         0.0000 
     21 O21         1.9733   51.8338   17.4867 O.3       1 UNK         0.0000 
     22 C22         1.4978   50.6389   16.9253 C.3       1 UNK         0.0000 
     23 O23         1.0725   49.8105   17.9768 O.3       1 UNK         0.0000 
     24 N24         2.5078   52.6178   27.5660 N.am      1 UNK         0.0000 
     25 C25         1.2048   52.5398   27.9073 C.2       1 UNK         0.0000 
     26 O26         0.8190   52.9475   29.0048 O.2       1 UNK         0.0000 
     27 C27         0.1794   51.9401   26.8801 C.3       1 UNK         0.0000 
     28 C28         0.5487   52.3012   25.4068 C.3       1 UNK         0.0000 
     29 C29        -0.4901   51.7275   24.4125 C.3       1 UNK         0.0000 
     30 C30        -0.5086   50.1835   24.5440 C.3       1 UNK         0.0000 
     31 C31        -0.8988   49.7929   25.9920 C.3       1 UNK         0.0000 
     32 C32         0.1383   50.3880   26.9916 C.3       1 UNK         0.0000 
     33 C33        -2.3111   50.3587   26.3041 C.3       1 UNK         0.0000 
     34 C34        -2.2903   51.9015   26.1899 C.3       1 UNK         0.0000 
     35 C35        -1.8918   52.2959   24.7430 C.3       1 UNK         0.0000 
     36 C36        -1.2614   52.4505   27.2167 C.3       1 UNK         0.0000 
     37 H37         4.7037   52.6744   30.1928 H         1 UNK         0.0000 
     38 H38         3.0127   52.2210   30.2642 H         1 UNK         0.0000 
     39 H39         4.1390   51.2909   29.2812 H         1 UNK         0.0000 
     40 H40         2.7091   54.8965   26.6100 H         1 UNK         0.0000 
     41 H41         3.7010   55.9350   25.6828 H         1 UNK         0.0000 
     42 H42         3.1418   53.0953   24.8562 H         1 UNK         0.0000 
     43 H43         2.3239   54.5502   24.1586 H         1 UNK         0.0000 
     44 H44         4.3942   55.2921   23.2139 H         1 UNK         0.0000 
     45 H45         6.6040   54.5421   23.5788 H         1 UNK         0.0000 
     46 H46         6.0206   53.0437   24.3419 H         1 UNK         0.0000 
     47 H47         5.9880   55.7977   25.5583 H         1 UNK         0.0000 
     48 H48         6.9026   54.4193   26.1087 H         1 UNK         0.0000 
     49 H49         2.6670   52.5110   23.0333 H         1 UNK         0.0000 
     50 H50         2.1828   50.2477   22.4139 H         1 UNK         0.0000 
     51 H51         1.1821   48.8715   20.6206 H         1 UNK         0.0000 
     52 H52         3.1461   53.3366   19.5378 H         1 UNK         0.0000 
     53 H53         2.3038   50.1405   16.3840 H         1 UNK         0.0000 
     54 H54         0.6809   50.8376   16.2292 H         1 UNK         0.0000 
     55 H55         2.8068   52.2481   26.6772 H         1 UNK         0.0000 
     56 H56         1.5053   51.8516   25.1500 H         1 UNK         0.0000 
     57 H57         0.6407   53.3774   25.2761 H         1 UNK         0.0000 
     58 H58        -0.2138   52.0013   23.3921 H         1 UNK         0.0000 
     59 H59        -1.2085   49.7492   23.8291 H         1 UNK         0.0000 
     60 H60         0.4697   49.7678   24.2920 H         1 UNK         0.0000 
     61 H61        -0.9131   48.7049   26.0817 H         1 UNK         0.0000 
     62 H62        -0.1181   50.0994   28.0061 H         1 UNK         0.0000 
     63 H63         1.1092   49.9384   26.7966 H         1 UNK         0.0000 
     64 H64        -2.6275   50.0636   27.3052 H         1 UNK         0.0000 
     65 H65        -3.0483   49.9343   25.6203 H         1 UNK         0.0000 
     66 H66        -3.2802   52.2980   26.4197 H         1 UNK         0.0000 
     67 H67        -2.6292   51.9134   24.0363 H         1 UNK         0.0000 
     68 H68        -1.8982   53.3763   24.6217 H         1 UNK         0.0000 
     69 H69        -1.2962   53.5364   27.2816 H         1 UNK         0.0000 
     70 H70        -1.5520   52.0972   28.2103 H         1 UNK         0.0000 
@<TRIPOS>BOND
     1    1    2 1    
     2    1   37 1    
     3    1   38 1    
     4    1   39 1    
     5    2    3 1    
     6    2    4 1    
     7    2   24 1    
     8    4    5 2    
     9    4    6 am   BACKBONE|DICT|INTERRES
    10    6   11 1    
    11    6    7 1    
    12    7    8 1    
    13    7   40 1    
    14    7   41 1    
    15    8    9 1    
    16    8   42 1    
    17    8   43 1    
    18    9   10 1    
    19    9   12 1    
    20    9   44 1    
    21   10   11 1    
    22   10   45 1    
    23   10   46 1    
    24   11   47 1    
    25   11   48 1    
    26   12   13 2    
    27   12   14 am   BACKBONE|DICT|INTERRES
    28   14   15 1    
    29   14   49 1    
    30   15   20 ar   
    31   15   16 ar   
    32   16   17 ar   
    33   16   50 1    
    34   17   18 ar   
    35   17   51 1    
    36   18   23 1    
    37   18   19 ar   
    38   19   20 ar   
    39   19   21 1    
    40   20   52 1    
    41   21   22 1    
    42   22   23 1    
    43   22   53 1    
    44   22   54 1    
    45   24   25 am   BACKBONE|DICT|INTERRES
    46   24   55 1    
    47   25   26 2    
    48   25   27 1    
    49   27   32 1    
    50   27   36 1    
    51   27   28 1    
    52   28   29 1    
    53   28   56 1    
    54   28   57 1    
    55   29   35 1    
    56   29   30 1    
    57   29   58 1    
    58   30   31 1    
    59   30   59 1    
    60   30   60 1    
    61   31   32 1    
    62   31   33 1    
    63   31   61 1    
    64   32   62 1    
    65   32   63 1    
    66   33   34 1    
    67   33   64 1    
    68   33   65 1    
    69   34   35 1    
    70   34   36 1    
    71   34   66 1    
    72   35   67 1    
    73   35   68 1    
    74   36   69 1    
    75   36   70 1    
@<TRIPOS>SUBSTRUCTURE
     1 UNK         1 GROUP             0       ****    0 ROOT    
