ZINC02905546_4469
                    3D
 Schrodinger Suite 2024-2.
 49 51  0  0  1  0            999 V2000
   -4.2469   49.7175   24.5030 C   0  0  0  0  0  0
   -4.8163   51.0996   24.8186 C   0  0  0  0  0  0
   -6.1332   51.1487   25.2911 C   0  0  0  0  0  0
   -6.7542   52.3657   25.5567 C   0  0  0  0  0  0
   -6.0653   53.5549   25.3479 C   0  0  0  0  0  0
   -4.7529   53.5262   24.8821 C   0  0  0  0  0  0
   -4.1022   52.3096   24.6149 C   0  0  0  0  0  0
   -2.6686   52.3732   24.1330 C   0  0  0  0  0  0
   -2.2873   53.2965   23.4137 O   0  0  0  0  0  0
   -1.8393   51.4210   24.5881 N   0  0  0  0  0  0
   -0.3782   51.3828   24.4294 C   0  0  2  0  0  0
   -0.1637   51.9372   23.5114 H   0  0  0  0  0  0
    0.1812   49.9646   24.1190 C   0  0  0  0  0  0
   -0.6951   49.2331   22.7438 Cl  0  0  0  0  0  0
    1.9042   50.0964   23.6678 Cl  0  0  0  0  0  0
    0.0325   48.8852   25.5297 Cl  0  0  0  0  0  0
    0.4225   52.1251   25.4319 N   0  0  0  0  0  0
    1.2086   52.6277   25.0472 H   0  0  0  0  0  0
    0.2485   52.2310   26.7895 C   0  0  0  0  0  0
   -1.0467   51.6965   27.6817 S   0  0  0  0  0  0
    1.2326   52.8109   27.5358 N   0  0  0  0  0  0
    2.4937   53.2619   27.1445 C   0  0  0  0  0  0
    3.6257   53.2738   27.9690 C   0  0  0  0  0  0
    4.7826   53.7039   27.2869 C   0  0  0  0  0  0
    4.5051   54.1089   25.9723 C   0  0  0  0  0  0
    2.8478   53.8914   25.5563 S   0  0  0  0  0  0
    5.5078   54.7132   25.0045 C   0  0  0  0  0  0
    6.9228   54.3561   25.4832 C   0  0  0  0  0  0
    7.1032   54.6490   26.9843 C   0  0  0  0  0  0
    6.1928   53.7828   27.8769 C   0  0  0  0  0  0
    3.6205   52.8288   29.3610 C   0  0  0  0  0  0
    3.6109   52.4742   30.4629 N   0  0  0  0  0  0
   -5.0338   48.9688   24.3933 H   0  0  0  0  0  0
   -3.7067   49.7259   23.5554 H   0  0  0  0  0  0
   -3.5673   49.3873   25.2907 H   0  0  0  0  0  0
   -6.6900   50.2357   25.4489 H   0  0  0  0  0  0
   -7.7722   52.3856   25.9171 H   0  0  0  0  0  0
   -6.5530   54.4970   25.5470 H   0  0  0  0  0  0
   -4.2401   54.4671   24.7339 H   0  0  0  0  0  0
   -2.2132   50.7694   25.2628 H   0  0  0  0  0  0
    1.1115   52.7177   28.5344 H   0  0  0  0  0  0
    5.3949   55.7970   24.9792 H   0  0  0  0  0  0
    5.3494   54.3559   23.9859 H   0  0  0  0  0  0
    7.6507   54.9063   24.8879 H   0  0  0  0  0  0
    7.1048   53.2977   25.2926 H   0  0  0  0  0  0
    6.8839   55.6967   27.1789 H   0  0  0  0  0  0
    8.1335   54.4966   27.2846 H   0  0  0  0  0  0
    6.6089   52.7780   27.9572 H   0  0  0  0  0  0
    6.1844   54.1895   28.8895 H   0  0  0  0  0  0
  1  2  1  0  0  0
  1 33  1  0  0  0
  1 34  1  0  0  0
  1 35  1  0  0  0
  2  7  2  0  0  0
  2  3  1  0  0  0
  3  4  2  0  0  0
  3 36  1  0  0  0
  4  5  1  0  0  0
  4 37  1  0  0  0
  5  6  2  0  0  0
  5 38  1  0  0  0
  6  7  1  0  0  0
  6 39  1  0  0  0
  7  8  1  0  0  0
  8  9  2  0  0  0
  8 10  1  0  0  0
 10 11  1  0  0  0
 10 40  1  0  0  0
 11 12  1  0  0  0
 11 13  1  0  0  0
 11 17  1  0  0  0
 13 14  1  0  0  0
 13 15  1  0  0  0
 13 16  1  0  0  0
 17 18  1  0  0  0
 17 19  1  0  0  0
 19 20  2  0  0  0
 19 21  1  0  0  0
 21 22  1  0  0  0
 21 41  1  0  0  0
 22 26  1  0  0  0
 22 23  2  0  0  0
 23 24  1  0  0  0
 23 31  1  0  0  0
 24 30  1  0  0  0
 24 25  2  0  0  0
 25 26  1  0  0  0
 25 27  1  0  0  0
 27 28  1  0  0  0
 27 42  1  0  0  0
 27 43  1  0  0  0
 28 29  1  0  0  0
 28 44  1  0  0  0
 28 45  1  0  0  0
 29 30  1  0  0  0
 29 46  1  0  0  0
 29 47  1  0  0  0
 30 48  1  0  0  0
 30 49  1  0  0  0
 31 32  3  0  0  0
M  END
> <i_i_glide_confnum>
200

> <i_i_glide_lignum>
4470

> <i_i_glide_posenum>
78

> <i_i_glide_rotatable_bonds>
9

> <i_m_Source_File_Index>
3543

> <b_m_subgroup_collapsed>
0

> <r_i_docking_score>
-4.5064

> <r_i_glide_ecoul>
-1.51585

> <r_i_glide_eff_state_penalty>
0

> <r_i_glide_einternal>
15.5539

> <r_i_glide_emodel>
-48.813

> <r_i_glide_energy>
-44.2384

> <r_i_glide_erotb>
0.567744

> <r_i_glide_esite>
-0.0655478

> <r_i_glide_evdw>
-42.7225

> <r_i_glide_gscore>
-4.5064

> <r_i_glide_hbond>
0

> <r_i_glide_ligand_efficiency>
-0.150213

> <r_i_glide_ligand_efficiency_ln>
-1.0239

> <r_i_glide_ligand_efficiency_sa>
-0.466748

> <r_i_glide_lipo>
-2.14055

> <r_i_glide_metal>
0

> <r_i_glide_rewards>
-0.504546

> <s_i_glide_gridfile>
wee1_glide-grid

> <s_m_Source_File>
wee1_decoys_glide_SP.sdf

> <s_m_Source_Path>
/Users/zhangxujun/Desktop

> <s_m_entry_id>
3818

> <s_m_entry_name>
wee1_decoys_glide_SP.3543

> <s_m_subgroup_title>
wee1_decoys_glide_SP

> <s_m_subgroupid>
wee1_decoys_glide_SP


$$$$
