ZINC21337465_5237
                    3D
 Schrodinger Suite 2024-2.
 73 77  0  0  1  0            999 V2000
    0.3788   51.4283   14.5269 C   0  0  0  0  0  0
    0.8756   51.8555   15.8311 N   0  0  0  0  0  0
    1.8968   50.9177   16.3159 C   0  0  0  0  0  0
    2.3591   51.3460   17.7204 C   0  0  0  0  0  0
    2.9703   52.7611   17.6407 N   0  3  0  0  0  0
    1.8579   53.7155   17.1473 C   0  0  0  0  0  0
    1.3590   53.2408   15.7641 C   0  0  0  0  0  0
    3.7124   53.2685   18.8153 C   0  0  0  0  0  0
    3.4238   53.0738   20.1103 C   0  0  0  0  0  0
    2.3665   52.3474   20.6513 N   0  0  0  0  0  0
    2.3988   51.3441   21.7162 C   0  0  0  0  0  0
    1.0526   51.3667   22.4811 C   0  0  0  0  0  0
   -0.0827   50.6182   21.7568 C   0  0  0  0  0  0
    0.3288   49.1807   21.4001 C   0  0  0  0  0  0
    1.5937   49.1595   20.5237 C   0  0  0  0  0  0
    2.7667   49.9668   21.1281 C   0  0  0  0  0  0
    4.2682   53.8248   20.9202 N   0  0  0  0  0  0
    5.1982   54.5127   20.1551 C   0  0  0  0  0  0
    6.3064   55.6905   20.6445 S   0  0  0  0  0  0
    5.0060   54.0358   18.6986 C   0  0  0  0  0  0
    6.1427   53.0544   18.2744 C   0  0  0  0  0  0
    7.4757   53.7012   17.8435 C   0  0  0  0  0  0
    7.2588   54.7518   16.7412 C   0  0  0  0  0  0
    6.2349   55.8223   17.1557 C   0  0  0  0  0  0
    4.9028   55.2145   17.6614 C   0  0  0  0  0  0
    4.0562   54.0466   22.3204 C   0  0  0  0  0  0
    2.7661   54.3212   22.7948 C   0  0  0  0  0  0
    2.5211   54.4967   24.1495 C   0  0  0  0  0  0
    3.5798   54.4965   25.0540 C   0  0  0  0  0  0
    4.8875   54.2888   24.6055 C   0  0  0  0  0  0
    5.1107   54.0166   23.2493 C   0  0  0  0  0  0
    6.0530   54.3825   25.5829 C   0  0  0  0  0  0
    7.1043   53.6965   25.1427 F   0  0  0  0  0  0
    6.4134   55.6650   25.6974 F   0  0  0  0  0  0
    5.7211   53.9208   26.7914 F   0  0  0  0  0  0
   -0.4191   52.0865   14.1797 H   0  0  0  0  0  0
    1.1675   51.4270   13.7730 H   0  0  0  0  0  0
   -0.0373   50.4216   14.5807 H   0  0  0  0  0  0
    2.7505   50.9060   15.6351 H   0  0  0  0  0  0
    1.4911   49.9065   16.3768 H   0  0  0  0  0  0
    3.1044   50.6690   18.1263 H   0  0  0  0  0  0
    1.5153   51.3978   18.4034 H   0  0  0  0  0  0
    1.0762   53.7067   17.9086 H   0  0  0  0  0  0
    2.2690   54.7220   17.1023 H   0  0  0  0  0  0
    0.5653   53.9073   15.4185 H   0  0  0  0  0  0
    2.1876   53.2797   15.0534 H   0  0  0  0  0  0
    3.1980   51.6601   22.3817 H   0  0  0  0  0  0
    0.7441   52.3788   22.7438 H   0  0  0  0  0  0
    1.2055   50.8296   23.4196 H   0  0  0  0  0  0
   -0.3598   51.1570   20.8492 H   0  0  0  0  0  0
   -0.9738   50.6029   22.3860 H   0  0  0  0  0  0
   -0.4884   48.6735   20.8852 H   0  0  0  0  0  0
    0.5057   48.6173   22.3179 H   0  0  0  0  0  0
    1.3392   49.5417   19.5390 H   0  0  0  0  0  0
    1.9113   48.1280   20.3581 H   0  0  0  0  0  0
    3.1043   49.3519   21.9650 H   0  0  0  0  0  0
    3.5941   50.0688   20.4256 H   0  0  0  0  0  0
    6.3047   52.3026   19.0483 H   0  0  0  0  0  0
    5.7937   52.4970   17.4052 H   0  0  0  0  0  0
    7.9796   54.1530   18.6972 H   0  0  0  0  0  0
    8.1566   52.9297   17.4813 H   0  0  0  0  0  0
    8.2082   55.2265   16.4900 H   0  0  0  0  0  0
    6.9168   54.2573   15.8312 H   0  0  0  0  0  0
    6.6755   56.4769   17.9035 H   0  0  0  0  0  0
    6.0348   56.4755   16.3051 H   0  0  0  0  0  0
    4.4288   54.8360   16.7575 H   0  0  0  0  0  0
    4.2444   56.0036   18.0293 H   0  0  0  0  0  0
    1.9343   54.3924   22.1079 H   0  0  0  0  0  0
    1.5108   54.6723   24.4831 H   0  0  0  0  0  0
    3.3839   54.6816   26.1004 H   0  0  0  0  0  0
    6.1166   53.8106   22.9103 H   0  0  0  0  0  0
    1.5766   52.1852   20.0482 H   0  0  0  0  0  0
    3.6586   52.6925   16.9026 H   0  0  0  0  0  0
  1  2  1  0  0  0
  1 36  1  0  0  0
  1 37  1  0  0  0
  1 38  1  0  0  0
  2  7  1  0  0  0
  2  3  1  0  0  0
  3  4  1  0  0  0
  3 39  1  0  0  0
  3 40  1  0  0  0
  4  5  1  0  0  0
  4 41  1  0  0  0
  4 42  1  0  0  0
  5  6  1  0  0  0
  5  8  1  0  0  0
  5 73  1  0  0  0
  6  7  1  0  0  0
  6 43  1  0  0  0
  6 44  1  0  0  0
  7 45  1  0  0  0
  7 46  1  0  0  0
  8 20  1  0  0  0
  8  9  2  0  0  0
  9 10  1  0  0  0
  9 17  1  0  0  0
 10 11  1  0  0  0
 10 72  1  0  0  0
 11 16  1  0  0  0
 11 12  1  0  0  0
 11 47  1  0  0  0
 12 13  1  0  0  0
 12 48  1  0  0  0
 12 49  1  0  0  0
 13 14  1  0  0  0
 13 50  1  0  0  0
 13 51  1  0  0  0
 14 15  1  0  0  0
 14 52  1  0  0  0
 14 53  1  0  0  0
 15 16  1  0  0  0
 15 54  1  0  0  0
 15 55  1  0  0  0
 16 56  1  0  0  0
 16 57  1  0  0  0
 17 18  1  0  0  0
 17 26  1  0  0  0
 18 19  2  0  0  0
 18 20  1  0  0  0
 20 25  1  0  0  0
 20 21  1  0  0  0
 21 22  1  0  0  0
 21 58  1  0  0  0
 21 59  1  0  0  0
 22 23  1  0  0  0
 22 60  1  0  0  0
 22 61  1  0  0  0
 23 24  1  0  0  0
 23 62  1  0  0  0
 23 63  1  0  0  0
 24 25  1  0  0  0
 24 64  1  0  0  0
 24 65  1  0  0  0
 25 66  1  0  0  0
 25 67  1  0  0  0
 26 31  2  0  0  0
 26 27  1  0  0  0
 27 28  2  0  0  0
 27 68  1  0  0  0
 28 29  1  0  0  0
 28 69  1  0  0  0
 29 30  2  0  0  0
 29 70  1  0  0  0
 30 31  1  0  0  0
 30 32  1  0  0  0
 31 71  1  0  0  0
 32 33  1  0  0  0
 32 34  1  0  0  0
 32 35  1  0  0  0
M  CHG  1   5   1
M  END
> <i_i_glide_confnum>
99

> <i_i_glide_lignum>
5238

> <i_i_glide_posenum>
297

> <i_i_glide_rotatable_bonds>
5

> <i_m_Source_File_Index>
1048

> <b_m_subgroup_collapsed>
0

> <r_i_docking_score>
-5.15116

> <r_i_glide_ecoul>
-2.91804

> <r_i_glide_eff_state_penalty>
0

> <r_i_glide_einternal>
10.3486

> <r_i_glide_emodel>
-44.6036

> <r_i_glide_energy>
-36.4454

> <r_i_glide_erotb>
0.317661

> <r_i_glide_esite>
-0.0594909

> <r_i_glide_evdw>
-33.5274

> <r_i_glide_gscore>
-5.15116

> <r_i_glide_hbond>
0

> <r_i_glide_ligand_efficiency>
-0.147176

> <r_i_glide_ligand_efficiency_ln>
-1.13079

> <r_i_glide_ligand_efficiency_sa>
-0.481422

> <r_i_glide_lipo>
-1.91875

> <r_i_glide_metal>
0

> <r_i_glide_rewards>
-1.3765

> <s_i_glide_gridfile>
wee1_glide-grid

> <s_m_Source_File>
wee1_decoys_glide_SP.sdf

> <s_m_Source_Path>
/Users/zhangxujun/Desktop

> <s_m_entry_id>
1323

> <s_m_entry_name>
wee1_decoys_glide_SP.1048

> <s_m_subgroup_title>
wee1_decoys_glide_SP

> <s_m_subgroupid>
wee1_decoys_glide_SP


$$$$
