@<TRIPOS>MOLECULE
ZINC09634070_3045
64   67    1
SMALL
USER_CHARGES


@<TRIPOS>ATOM
      1 C1         15.3813   49.9977   11.9570 C.3       1 UNK         0.0000 
      2 C2         15.0336   49.4348   13.3433 C.3       1 UNK         0.0000 
      3 C3         16.0488   49.9166   14.3961 C.3       1 UNK         0.0000 
      4 N4         13.6418   49.8103   13.6828 N.pl3     1 UNK         0.0000 
      5 S5         12.9164   49.1224   15.1318 S.o2      1 UNK         0.0000 
      6 O6         12.7051   47.6943   14.8812 O.2       1 UNK         0.0000 
      7 O7         13.6996   49.5540   16.2945 O.2       1 UNK         0.0000 
      8 C8         11.3008   49.8867   15.2855 C.ar      1 UNK         0.0000 
      9 C9         10.4881   50.0712   14.1663 C.ar      1 UNK         0.0000 
     10 C10         9.2502   50.7006   14.3023 C.ar      1 UNK         0.0000 
     11 C11         8.8158   51.1403   15.5643 C.ar      1 UNK         0.0000 
     12 C12         9.6217   50.9177   16.6805 C.ar      1 UNK         0.0000 
     13 C13        10.8607   50.3001   16.5436 C.ar      1 UNK         0.0000 
     14 N14         7.5581   51.7246   15.8184 N.am      1 UNK         0.0000 
     15 C15         6.6885   52.3006   14.9567 C.2       1 UNK         0.0000 
     16 O16         6.9557   52.4982   13.7698 O.2       1 UNK         0.0000 
     17 C17         5.2750   52.7109   15.4867 C.3       1 UNK         0.0000 
     18 H18         4.6719   51.8068   15.3754 H         1 UNK         0.0000 
     19 C19         4.6530   53.8319   14.6404 C.3       1 UNK         0.0000 
     20 C20         3.8096   52.8834   17.5875 C.3       1 UNK         0.0000 
     21 C21         3.8591   52.8980   19.1278 C.3       1 UNK         0.0000 
     22 C22         4.6718   54.0802   19.7121 C.3       1 UNK         0.0000 
     23 C23         6.0509   54.2217   19.0099 C.3       1 UNK         0.0000 
     24 C24         5.9598   54.2091   17.4744 C.3       1 UNK         0.0000 
     25 C25         4.7131   54.1091   21.2419 C.2       1 UNK         0.0000 
     26 N26         5.7708   54.4872   21.9141 N.2       1 UNK         0.0000 
     27 C27         5.5655   54.4829   23.2582 C.ar      1 UNK         0.0000 
     28 C28         6.5166   54.8601   24.2163 C.ar      1 UNK         0.0000 
     29 C29         6.1514   54.8457   25.5639 C.ar      1 UNK         0.0000 
     30 C30         4.8670   54.4736   25.9570 C.ar      1 UNK         0.0000 
     31 C31         3.9000   54.0967   25.0236 C.ar      1 UNK         0.0000 
     32 C32         4.2668   54.0983   23.6699 C.ar      1 UNK         0.0000 
     33 S33         3.3292   53.6944   22.2436 S.3       1 UNK         0.0000 
     34 H34        16.3800   49.6872   11.6476 H         1 UNK         0.0000 
     35 H35        15.3540   51.0881   11.9477 H         1 UNK         0.0000 
     36 H36        14.6868   49.6396   11.1959 H         1 UNK         0.0000 
     37 H37        15.0700   48.3450   13.2760 H         1 UNK         0.0000 
     38 H38        17.0729   49.7720   14.0502 H         1 UNK         0.0000 
     39 H39        15.9200   50.9760   14.6216 H         1 UNK         0.0000 
     40 H40        15.9618   49.3575   15.3270 H         1 UNK         0.0000 
     41 H41        13.0634   49.6377   12.8489 H         1 UNK         0.0000 
     42 H42        10.8085   49.7285   13.1934 H         1 UNK         0.0000 
     43 H43         8.6378   50.8132   13.4225 H         1 UNK         0.0000 
     44 H44         9.3054   51.2245   17.6681 H         1 UNK         0.0000 
     45 H45        11.4747   50.1468   17.4209 H         1 UNK         0.0000 
     46 H46         7.2913   51.7044   16.7904 H         1 UNK         0.0000 
     47 H47         4.5792   53.5292   13.5946 H         1 UNK         0.0000 
     48 H48         3.6452   54.0659   14.9814 H         1 UNK         0.0000 
     49 H49         5.2591   54.7369   14.6938 H         1 UNK         0.0000 
     50 H50         3.2637   53.7318   17.1746 H         1 UNK         0.0000 
     51 H51         3.3601   51.9481   17.2479 H         1 UNK         0.0000 
     52 H52         2.8243   52.9461   19.4693 H         1 UNK         0.0000 
     53 H53         4.3002   51.9539   19.4473 H         1 UNK         0.0000 
     54 H54         4.1240   54.9634   19.3762 H         1 UNK         0.0000 
     55 H55         6.7033   53.3934   19.2829 H         1 UNK         0.0000 
     56 H56         6.5233   55.1646   19.2945 H         1 UNK         0.0000 
     57 H57         6.9641   54.2041   17.0491 H         1 UNK         0.0000 
     58 H58         5.3956   55.0532   17.0744 H         1 UNK         0.0000 
     59 H59         7.5054   55.1611   23.9118 H         1 UNK         0.0000 
     60 H60         6.8675   55.1333   26.3207 H         1 UNK         0.0000 
     61 H61         4.6198   54.4702   27.0089 H         1 UNK         0.0000 
     62 H62         2.9081   53.8005   25.3357 H         1 UNK         0.0000 
     63 N63         5.2551   52.9025   17.0375 N.4       1 UNK         0.0000 
     64 H64         5.7102   52.0943   17.4514 H         1 UNK         0.0000 
@<TRIPOS>BOND
     1    1    2 1    
     2    1   34 1    
     3    1   35 1    
     4    1   36 1    
     5    2    3 1    
     6    2    4 1    
     7    2   37 1    
     8    3   38 1    
     9    3   39 1    
    10    3   40 1    
    11    4    5 1    
    12    4   41 1    
    13    5    6 2    
    14    5    7 2    
    15    5    8 1    
    16    8   13 ar   
    17    8    9 ar   
    18    9   10 ar   
    19    9   42 1    
    20   10   11 ar   
    21   10   43 1    
    22   11   12 ar   
    23   11   14 1    
    24   12   13 ar   
    25   12   44 1    
    26   13   45 1    
    27   14   15 am   BACKBONE|DICT|INTERRES
    28   14   46 1    
    29   15   16 2    
    30   15   17 1    
    31   17   18 1    
    32   17   19 1    
    33   17   63 1    
    34   19   47 1    
    35   19   48 1    
    36   19   49 1    
    37   20   21 1    
    38   20   50 1    
    39   20   51 1    
    40   20   63 1    
    41   21   22 1    
    42   21   52 1    
    43   21   53 1    
    44   22   23 1    
    45   22   25 1    
    46   22   54 1    
    47   23   24 1    
    48   23   55 1    
    49   23   56 1    
    50   24   57 1    
    51   24   58 1    
    52   24   63 1    
    53   25   33 1    
    54   25   26 2    
    55   26   27 1    
    56   27   32 ar   
    57   27   28 ar   
    58   28   29 ar   
    59   28   59 1    
    60   29   30 ar   
    61   29   60 1    
    62   30   31 ar   
    63   30   61 1    
    64   31   32 ar   
    65   31   62 1    
    66   32   33 1    
    67   63   64 1    
@<TRIPOS>SUBSTRUCTURE
     1 UNK         1 GROUP             0       ****    0 ROOT    
