ZINC64774544_560
                    3D
 Schrodinger Suite 2024-2.
 57 60  0  0  1  0            999 V2000
   -1.5608   45.2980   20.0516 C   0  0  0  0  0  0
   -0.7562   46.2240   19.1581 C   0  0  0  0  0  0
   -0.5892   45.9392   17.8060 C   0  0  0  0  0  0
    0.1597   46.7840   16.9837 C   0  0  0  0  0  0
    0.7472   47.9523   17.5237 C   0  0  0  0  0  0
    0.6088   48.2287   18.9094 C   0  0  0  0  0  0
   -0.1565   47.3583   19.6981 C   0  0  0  0  0  0
    1.2822   49.3388   19.6287 C   0  0  0  0  0  0
    1.0658   50.7923   19.2572 C   0  0  0  0  0  0
    0.2147   51.0779   18.4155 O   0  0  0  0  0  0
    1.8147   51.6963   19.9123 N   0  5  0  0  0  0
    2.5801   51.3217   20.8786 C   0  0  0  0  0  0
    2.7147   50.0975   21.3069 N   0  0  0  0  0  0
    2.0837   49.0780   20.6313 N   0  0  0  0  0  0
    3.5900   52.5797   21.6820 S   0  0  0  0  0  0
    2.4355   53.5413   22.7633 C   0  0  1  0  0  0
    2.5167   54.5609   22.3870 H   0  0  0  0  0  0
    0.9358   53.1701   22.6354 C   0  0  0  0  0  0
    2.8547   53.6372   24.2695 C   0  0  0  0  0  0
    2.0304   53.2604   25.1075 O   0  0  0  0  0  0
    4.0625   54.1404   24.6702 N   0  0  0  0  0  0
    5.1778   54.3591   23.7434 C   0  0  0  0  0  0
    6.3723   54.7916   24.5824 C   0  0  0  0  0  0
    5.9585   54.3846   25.9657 C   0  0  0  0  0  0
    4.5923   54.0927   25.9843 C   0  0  0  0  0  0
    3.9451   53.9049   27.2171 C   0  0  0  0  0  0
    4.6847   53.8840   28.3990 C   0  0  0  0  0  0
    6.0608   54.0973   28.3630 C   0  0  0  0  0  0
    6.6932   54.3801   27.1532 C   0  0  0  0  0  0
    1.5043   48.8027   16.6918 N   0  0  0  0  0  0
    0.9786   49.5864   15.7281 C   0  0  0  0  0  0
   -0.2130   49.6008   15.4132 O   0  0  0  0  0  0
    1.9480   50.5153   15.0091 C   0  0  0  0  0  0
    0.3506   46.3702   15.5268 C   0  0  0  0  0  0
   -1.9245   44.4199   19.5156 H   0  0  0  0  0  0
   -0.9449   44.9590   20.8863 H   0  0  0  0  0  0
   -2.4158   45.8316   20.4703 H   0  0  0  0  0  0
   -1.0393   45.0491   17.3899 H   0  0  0  0  0  0
   -0.2803   47.5542   20.7548 H   0  0  0  0  0  0
    0.3062   53.7841   23.2822 H   0  0  0  0  0  0
    0.5901   53.2967   21.6123 H   0  0  0  0  0  0
    0.7568   52.1309   22.9145 H   0  0  0  0  0  0
    5.4431   53.3563   23.4061 H   0  0  0  0  0  0
    4.9882   54.8985   22.8160 H   0  0  0  0  0  0
    7.3040   54.3590   24.2147 H   0  0  0  0  0  0
    6.4912   55.8741   24.5185 H   0  0  0  0  0  0
    2.8816   53.7387   27.2859 H   0  0  0  0  0  0
    4.1912   53.7026   29.3418 H   0  0  0  0  0  0
    6.6338   54.0909   29.2806 H   0  0  0  0  0  0
    7.7489   54.5929   27.1631 H   0  0  0  0  0  0
    2.5034   48.9000   16.8818 H   0  0  0  0  0  0
    2.9259   50.0526   14.8816 H   0  0  0  0  0  0
    2.0762   51.4305   15.5882 H   0  0  0  0  0  0
    1.5648   50.7817   14.0239 H   0  0  0  0  0  0
    0.1318   45.3133   15.3703 H   0  0  0  0  0  0
   -0.2879   46.9617   14.8720 H   0  0  0  0  0  0
    1.3847   46.5212   15.2191 H   0  0  0  0  0  0
  1  2  1  0  0  0
  1 35  1  0  0  0
  1 36  1  0  0  0
  1 37  1  0  0  0
  2  7  2  0  0  0
  2  3  1  0  0  0
  3  4  2  0  0  0
  3 38  1  0  0  0
  4  5  1  0  0  0
  4 34  1  0  0  0
  5  6  2  0  0  0
  5 30  1  0  0  0
  6  7  1  0  0  0
  6  8  1  0  0  0
  7 39  1  0  0  0
  8 14  2  0  0  0
  8  9  1  0  0  0
  9 10  2  0  0  0
  9 11  1  0  0  0
 11 12  1  0  0  0
 12 15  1  0  0  0
 12 13  2  0  0  0
 13 14  1  0  0  0
 15 16  1  0  0  0
 16 17  1  0  0  0
 16 18  1  0  0  0
 16 19  1  0  0  0
 18 40  1  0  0  0
 18 41  1  0  0  0
 18 42  1  0  0  0
 19 20  2  0  0  0
 19 21  1  0  0  0
 21 25  1  0  0  0
 21 22  1  0  0  0
 22 23  1  0  0  0
 22 43  1  0  0  0
 22 44  1  0  0  0
 23 24  1  0  0  0
 23 45  1  0  0  0
 23 46  1  0  0  0
 24 29  2  0  0  0
 24 25  1  0  0  0
 25 26  2  0  0  0
 26 27  1  0  0  0
 26 47  1  0  0  0
 27 28  2  0  0  0
 27 48  1  0  0  0
 28 29  1  0  0  0
 28 49  1  0  0  0
 29 50  1  0  0  0
 30 31  1  0  0  0
 30 51  1  0  0  0
 31 32  2  0  0  0
 31 33  1  0  0  0
 33 52  1  0  0  0
 33 53  1  0  0  0
 33 54  1  0  0  0
 34 55  1  0  0  0
 34 56  1  0  0  0
 34 57  1  0  0  0
M  CHG  1  11  -1
M  END
> <i_i_glide_confnum>
57

> <i_i_glide_lignum>
561

> <i_i_glide_posenum>
369

> <i_i_glide_rotatable_bonds>
7

> <i_m_Source_File_Index>
5384

> <b_m_subgroup_collapsed>
0

> <r_i_docking_score>
-5.78636

> <r_i_glide_ecoul>
-3.72274

> <r_i_glide_eff_state_penalty>
0

> <r_i_glide_einternal>
11.2479

> <r_i_glide_emodel>
-56.5478

> <r_i_glide_energy>
-42.5953

> <r_i_glide_erotb>
0.470787

> <r_i_glide_esite>
-0.168507

> <r_i_glide_evdw>
-38.8725

> <r_i_glide_gscore>
-5.78636

> <r_i_glide_hbond>
-0.16

> <r_i_glide_ligand_efficiency>
-0.175344

> <r_i_glide_ligand_efficiency_ln>
-1.28686

> <r_i_glide_ligand_efficiency_sa>
-0.562423

> <r_i_glide_lipo>
-2.41894

> <r_i_glide_metal>
0

> <r_i_glide_rewards>
-1.00767

> <s_i_glide_gridfile>
wee1_glide-grid

> <s_m_Source_File>
wee1_decoys_glide_SP.sdf

> <s_m_Source_Path>
/Users/zhangxujun/Desktop

> <s_m_entry_id>
5659

> <s_m_entry_name>
wee1_decoys_glide_SP.5384

> <s_m_subgroup_title>
wee1_decoys_glide_SP

> <s_m_subgroupid>
wee1_decoys_glide_SP


$$$$
