ZINC12617025_2039
                    3D
 Schrodinger Suite 2024-2.
 67 70  0  0  1  0            999 V2000
    2.1195   56.1254   29.2743 C   0  0  0  0  0  0
    2.8983   54.8066   29.4350 C   0  0  0  0  0  0
    2.1979   53.5132   28.9172 C   0  0  0  0  0  0
    0.8344   53.3542   29.6423 C   0  0  0  0  0  0
    3.0752   52.3036   29.3462 C   0  0  0  0  0  0
    1.9970   53.5860   27.3552 C   0  0  2  0  0  0
    1.3872   54.4713   27.1776 H   0  0  0  0  0  0
    1.2704   52.3615   26.7543 C   0  0  0  0  0  0
    0.8328   52.5860   25.2898 C   0  0  0  0  0  0
    2.0082   53.1271   24.4736 C   0  0  0  0  0  0
    3.1286   53.6796   25.1001 C   0  0  0  0  0  0
    4.3651   54.0980   23.9785 S   0  0  0  0  0  0
    3.3628   53.6312   22.6288 C   0  0  0  0  0  0
    2.1487   53.0767   23.0675 C   0  0  0  0  0  0
    1.1307   52.5233   22.1790 C   0  0  0  0  0  0
    0.3222   52.0852   21.4755 N   0  0  0  0  0  0
    3.7488   53.8234   21.3003 N   0  0  0  0  0  0
    4.9255   54.2827   20.8274 C   0  0  0  0  0  0
    5.9168   54.5150   21.5173 O   0  0  0  0  0  0
    4.9417   54.5026   19.3031 C   0  0  0  0  0  0
    6.1870   55.0908   18.7404 N   0  0  0  0  0  0
    6.7703   56.2590   19.1271 C   0  0  0  0  0  0
    6.4904   56.9882   20.0843 O   0  0  0  0  0  0
    7.8711   56.5270   18.1087 C   0  0  2  0  0  0
    9.2612   56.5859   18.8023 C   0  0  0  0  0  0
   10.3705   56.8779   17.7649 C   0  0  0  0  0  0
   10.1125   58.2239   17.0451 C   0  0  2  0  0  0
    8.7139   58.2104   16.3811 C   0  0  0  0  0  0
    7.6179   57.9029   17.4242 C   0  0  0  0  0  0
   11.2170   58.5528   16.0281 C   0  0  0  0  0  0
    7.7013   55.3969   17.2461 N   0  0  0  0  0  0
    6.7015   54.5856   17.5881 C   0  0  0  0  0  0
    6.2335   53.7017   16.8724 O   0  0  0  0  0  0
    3.3437   53.7932   26.5967 C   0  0  0  0  0  0
    2.7027   56.9415   29.6892 H   0  0  0  0  0  0
    1.1669   56.1071   29.8038 H   0  0  0  0  0  0
    1.9224   56.3683   28.2315 H   0  0  0  0  0  0
    3.8804   54.9240   28.9776 H   0  0  0  0  0  0
    3.1347   54.6806   30.4817 H   0  0  0  0  0  0
    0.4145   52.3535   29.5201 H   0  0  0  0  0  0
    0.9253   53.5163   30.7172 H   0  0  0  0  0  0
    0.0896   54.0598   29.2703 H   0  0  0  0  0  0
    2.6615   51.3531   29.0087 H   0  0  0  0  0  0
    4.0950   52.3699   28.9695 H   0  0  0  0  0  0
    3.1566   52.2402   30.4306 H   0  0  0  0  0  0
    1.8934   51.4784   26.8837 H   0  0  0  0  0  0
    0.3651   52.1348   27.3172 H   0  0  0  0  0  0
    0.4535   51.6494   24.8724 H   0  0  0  0  0  0
    0.0057   53.2934   25.2377 H   0  0  0  0  0  0
    3.0392   53.6104   20.6126 H   0  0  0  0  0  0
    4.7587   53.5199   18.8627 H   0  0  0  0  0  0
    4.0965   55.1272   19.0192 H   0  0  0  0  0  0
    9.2831   57.2916   19.6347 H   0  0  0  0  0  0
    9.4990   55.6202   19.2571 H   0  0  0  0  0  0
   10.4409   56.0684   17.0374 H   0  0  0  0  0  0
   11.3502   56.8981   18.2422 H   0  0  0  0  0  0
   10.0968   59.0026   17.8083 H   0  0  0  0  0  0
    8.6884   57.4736   15.5737 H   0  0  0  0  0  0
    8.5188   59.1656   15.8930 H   0  0  0  0  0  0
    6.6660   57.8719   16.8880 H   0  0  0  0  0  0
    7.4911   58.7123   18.1513 H   0  0  0  0  0  0
   11.2710   57.7997   15.2392 H   0  0  0  0  0  0
   11.0406   59.5168   15.5511 H   0  0  0  0  0  0
   12.1954   58.5973   16.5097 H   0  0  0  0  0  0
    8.4361   55.1199   16.6141 H   0  0  0  0  0  0
    3.7785   54.7662   26.8176 H   0  0  0  0  0  0
    4.0676   53.0317   26.8885 H   0  0  0  0  0  0
  1  2  1  0  0  0
  1 35  1  0  0  0
  1 36  1  0  0  0
  1 37  1  0  0  0
  2  3  1  0  0  0
  2 38  1  0  0  0
  2 39  1  0  0  0
  3  4  1  0  0  0
  3  5  1  0  0  0
  3  6  1  0  0  0
  4 40  1  0  0  0
  4 41  1  0  0  0
  4 42  1  0  0  0
  5 43  1  0  0  0
  5 44  1  0  0  0
  5 45  1  0  0  0
  6  7  1  0  0  0
  6 34  1  0  0  0
  6  8  1  0  0  0
  8  9  1  0  0  0
  8 46  1  0  0  0
  8 47  1  0  0  0
  9 10  1  0  0  0
  9 48  1  0  0  0
  9 49  1  0  0  0
 10 14  1  0  0  0
 10 11  2  0  0  0
 11 12  1  0  0  0
 11 34  1  0  0  0
 12 13  1  0  0  0
 13 14  2  0  0  0
 13 17  1  0  0  0
 14 15  1  0  0  0
 15 16  3  0  0  0
 17 18  1  0  0  0
 17 50  1  0  0  0
 18 19  2  0  0  0
 18 20  1  0  0  0
 20 21  1  0  0  0
 20 51  1  0  0  0
 20 52  1  0  0  0
 21 32  1  0  0  0
 21 22  1  0  0  0
 22 23  2  0  0  0
 22 24  1  0  0  0
 24 29  1  0  0  0
 24 25  1  0  0  0
 24 31  1  0  0  0
 25 26  1  0  0  0
 25 53  1  0  0  0
 25 54  1  0  0  0
 26 27  1  0  0  0
 26 55  1  0  0  0
 26 56  1  0  0  0
 27 28  1  0  0  0
 27 30  1  0  0  0
 27 57  1  0  0  0
 28 29  1  0  0  0
 28 58  1  0  0  0
 28 59  1  0  0  0
 29 60  1  0  0  0
 29 61  1  0  0  0
 30 62  1  0  0  0
 30 63  1  0  0  0
 30 64  1  0  0  0
 31 32  1  0  0  0
 31 65  1  0  0  0
 32 33  2  0  0  0
 34 66  1  0  0  0
 34 67  1  0  0  0
M  END
> <i_i_glide_confnum>
2

> <i_i_glide_lignum>
2040

> <i_i_glide_posenum>
20

> <i_i_glide_rotatable_bonds>
7

> <i_m_Source_File_Index>
3095

> <b_m_subgroup_collapsed>
0

> <r_i_docking_score>
-5.48505

> <r_i_glide_ecoul>
-4.93335

> <r_i_glide_eff_state_penalty>
0

> <r_i_glide_einternal>
12.341

> <r_i_glide_emodel>
-52.1805

> <r_i_glide_energy>
-43.3409

> <r_i_glide_erotb>
0.456147

> <r_i_glide_esite>
-0.00574509

> <r_i_glide_evdw>
-38.4075

> <r_i_glide_gscore>
-5.48505

> <r_i_glide_hbond>
-0.236318

> <r_i_glide_ligand_efficiency>
-0.166214

> <r_i_glide_ligand_efficiency_ln>
-1.21985

> <r_i_glide_ligand_efficiency_sa>
-0.533136

> <r_i_glide_lipo>
-2.56591

> <r_i_glide_metal>
0

> <r_i_glide_rewards>
-0.472854

> <s_i_glide_gridfile>
wee1_glide-grid

> <s_m_Source_File>
wee1_decoys_glide_SP.sdf

> <s_m_Source_Path>
/Users/zhangxujun/Desktop

> <s_m_entry_id>
3370

> <s_m_entry_name>
wee1_decoys_glide_SP.3095

> <s_m_subgroup_title>
wee1_decoys_glide_SP

> <s_m_subgroupid>
wee1_decoys_glide_SP


$$$$
