@<TRIPOS>MOLECULE
ZINC67049712_1411
50   53    1
SMALL
USER_CHARGES


@<TRIPOS>ATOM
      1 C1          8.3313   56.1811   17.7966 C.3       1 UNK         0.0000 
      2 C2          7.6845   56.7710   19.0630 C.3       1 UNK         0.0000 
      3 C3          7.1278   58.1847   18.8023 C.3       1 UNK         0.0000 
      4 C4          6.6104   55.8460   19.6145 C.2       1 UNK         0.0000 
      5 N5          6.6952   55.2886   20.8013 N.2       1 UNK         0.0000 
      6 C6          5.6696   54.4966   21.0919 C.2       1 UNK         0.0000 
      7 C7          4.7034   54.4248   20.0945 C.2       1 UNK         0.0000 
      8 S8          5.1699   55.4077   18.7461 S.3       1 UNK         0.0000 
      9 C9          5.6532   53.7260   22.4184 C.3       1 UNK         0.0000 
     10 C10         5.9481   54.5343   23.6884 C.2       1 UNK         0.0000 
     11 O11         6.7044   55.5049   23.6884 O.2       1 UNK         0.0000 
     12 N12         5.2697   54.1515   24.7732 N.am      1 UNK         0.0000 
     13 C13         4.9810   55.0022   25.9208 C.3       1 UNK         0.0000 
     14 C14         3.4730   54.8968   26.1754 C.3       1 UNK         0.0000 
     15 C15         3.0063   53.5180   26.6761 C.3       1 UNK         0.0000 
     16 N16         3.7178   53.1604   27.9130 N.pl3     1 UNK         0.0000 
     17 C17         5.1817   53.1773   27.6733 C.3       1 UNK         0.0000 
     18 C18         5.6809   54.5566   27.2114 C.3       1 UNK         0.0000 
     19 C19         3.1237   52.7030   29.0930 C.ar      1 UNK         0.0000 
     20 C20         1.7266   52.5498   29.3156 C.ar      1 UNK         0.0000 
     21 N21         0.6067   52.5925   28.5184 N.2       1 UNK         0.0000 
     22 C22        -0.3857   52.2785   29.3168 C.ar      1 UNK         0.0000 
     23 N23        -0.0234   52.1392   30.6343 N.pl3     1 UNK         0.0000 
     24 C24         1.3435   52.2582   30.6515 C.ar      1 UNK         0.0000 
     25 N25         2.1683   52.0802   31.6819 N.ar      1 UNK         0.0000 
     26 C26         3.4740   52.0973   31.3186 C.ar      1 UNK         0.0000 
     27 N27         3.9806   52.4209   30.1121 N.ar      1 UNK         0.0000 
     28 H28        -0.6547   51.8942   31.3990 H         1 UNK         0.0000 
     29 H29         8.7635   55.1989   17.9966 H         1 UNK         0.0000 
     30 H30         9.1332   56.8218   17.4289 H         1 UNK         0.0000 
     31 H31         7.6089   56.0650   16.9892 H         1 UNK         0.0000 
     32 H32         8.4878   56.8667   19.7938 H         1 UNK         0.0000 
     33 H33         6.7048   58.6246   19.7038 H         1 UNK         0.0000 
     34 H34         7.9086   58.8574   18.4467 H         1 UNK         0.0000 
     35 H35         6.3432   58.1781   18.0440 H         1 UNK         0.0000 
     36 H36         3.7864   53.8529   20.0754 H         1 UNK         0.0000 
     37 H37         4.6577   53.2935   22.5246 H         1 UNK         0.0000 
     38 H38         6.3044   52.8588   22.4309 H         1 UNK         0.0000 
     39 H39         4.8630   53.2290   24.7930 H         1 UNK         0.0000 
     40 H40         5.2267   56.0412   25.6831 H         1 UNK         0.0000 
     41 H41         3.1154   55.6562   26.8705 H         1 UNK         0.0000 
     42 H42         2.9736   55.0932   25.2269 H         1 UNK         0.0000 
     43 H43         1.9339   53.5877   26.8175 H         1 UNK         0.0000 
     44 H44         3.1649   52.7490   25.9217 H         1 UNK         0.0000 
     45 H45         5.7671   52.8577   28.5352 H         1 UNK         0.0000 
     46 H46         5.4042   52.4659   26.8845 H         1 UNK         0.0000 
     47 H47         6.7576   54.5171   27.0476 H         1 UNK         0.0000 
     48 H48         5.5446   55.2931   28.0051 H         1 UNK         0.0000 
     49 H49        -1.4093   52.0969   29.0215 H         1 UNK         0.0000 
     50 H50         4.2045   51.8912   32.0817 H         1 UNK         0.0000 
@<TRIPOS>BOND
     1    1    2 1    
     2    1   29 1    
     3    1   30 1    
     4    1   31 1    
     5    2    3 1    
     6    2    4 1    
     7    2   32 1    
     8    3   33 1    
     9    3   34 1    
    10    3   35 1    
    11    4    8 1    
    12    4    5 2    
    13    5    6 1    
    14    6    7 2    
    15    6    9 1    
    16    7    8 1    
    17    7   36 1    
    18    9   10 1    
    19    9   37 1    
    20    9   38 1    
    21   10   11 2    
    22   10   12 am   BACKBONE|DICT|INTERRES
    23   12   13 1    
    24   12   39 1    
    25   13   18 1    
    26   13   14 1    
    27   13   40 1    
    28   14   15 1    
    29   14   41 1    
    30   14   42 1    
    31   15   43 1    
    32   15   44 1    
    33   15   16 1    
    34   16   17 1    
    35   16   19 1    
    36   17   18 1    
    37   17   45 1    
    38   17   46 1    
    39   18   47 1    
    40   18   48 1    
    41   19   20 ar   
    42   19   27 ar   
    43   20   21 ar   
    44   20   24 ar   
    45   21   22 ar   
    46   22   49 1    
    47   22   23 ar   
    48   23   28 1    
    49   23   24 ar   
    50   24   25 ar   
    51   25   26 ar   
    52   26   50 1    
    53   26   27 ar   
@<TRIPOS>SUBSTRUCTURE
     1 UNK         1 GROUP             0       ****    0 ROOT    
