ZINC04560781_1539
                    3D
 Schrodinger Suite 2024-2.
 51 54  0  0  1  0            999 V2000
    1.4861   53.7843   23.9186 C   0  0  0  0  0  0
    1.1030   52.3189   24.0628 C   0  0  0  0  0  0
    0.3562   51.9083   25.1704 C   0  0  0  0  0  0
    0.0093   50.5699   25.3294 C   0  0  0  0  0  0
    0.3925   49.6357   24.3727 C   0  0  0  0  0  0
    1.1311   50.0359   23.2590 C   0  0  0  0  0  0
    1.5074   51.3821   23.0990 C   0  0  0  0  0  0
    2.2609   51.8547   22.0371 O   0  0  0  0  0  0
    2.8631   50.9821   21.1186 C   0  0  1  0  0  0
    3.2022   50.0714   21.6155 H   0  0  0  0  0  0
    1.9004   50.7242   19.9322 C   0  0  1  0  0  0
    0.9272   50.4844   20.3724 H   0  0  0  0  0  0
    1.7014   52.0348   19.1200 C   0  0  1  0  0  0
    1.2124   52.7870   19.7440 H   0  0  0  0  0  0
    3.0792   52.5586   18.6853 C   0  0  2  0  0  0
    3.5067   51.8311   17.9918 H   0  0  0  0  0  0
    3.9566   52.7224   19.9313 C   0  0  1  0  0  0
    3.4964   53.4983   20.5496 H   0  0  0  0  0  0
    4.0963   51.5039   20.6740 O   0  0  0  0  0  0
    5.3201   53.2555   19.4870 C   0  0  0  0  0  0
    5.1500   54.4571   18.7286 O   0  0  0  0  0  0
    4.2857   54.2666   17.6308 C   0  0  1  0  0  0
    4.7147   53.4850   16.9914 H   0  0  0  0  0  0
    3.0109   53.8479   18.0652 O   0  0  0  0  0  0
    4.1403   55.5661   16.9291 C   0  0  0  0  0  0
    4.2046   55.9161   15.5882 C   0  0  0  0  0  0
    3.9997   57.2953   15.5256 C   0  0  0  0  0  0
    3.8205   57.7248   16.8302 C   0  0  0  0  0  0
    3.9033   56.6716   17.6852 O   0  0  0  0  0  0
    0.8442   51.8265   18.0086 O   0  0  0  0  0  0
    2.3035   49.5765   19.1008 N   0  0  0  0  0  0
    1.7742   48.3454   19.1317 C   0  0  0  0  0  0
    0.9143   47.9902   19.9364 O   0  0  0  0  0  0
    2.2887   47.3706   18.0800 C   0  0  0  0  0  0
    1.1106   54.1846   22.9762 H   0  0  0  0  0  0
    1.1054   54.3973   24.7337 H   0  0  0  0  0  0
    2.5725   53.8845   23.8958 H   0  0  0  0  0  0
    0.0486   52.6217   25.9196 H   0  0  0  0  0  0
   -0.5545   50.2495   26.1954 H   0  0  0  0  0  0
    0.1247   48.5963   24.4975 H   0  0  0  0  0  0
    1.4005   49.2834   22.5370 H   0  0  0  0  0  0
    5.9043   53.5052   20.3693 H   0  0  0  0  0  0
    5.8979   52.5219   18.9189 H   0  0  0  0  0  0
    4.3766   55.2435   14.7605 H   0  0  0  0  0  0
    3.9854   57.9121   14.6388 H   0  0  0  0  0  0
    3.6368   58.6936   17.2730 H   0  0  0  0  0  0
    1.2880   51.2240   17.4037 H   0  0  0  0  0  0
    3.0757   49.7291   18.4562 H   0  0  0  0  0  0
    3.3760   47.2974   18.1049 H   0  0  0  0  0  0
    1.8635   46.3787   18.2379 H   0  0  0  0  0  0
    1.9989   47.7083   17.0853 H   0  0  0  0  0  0
  1  2  1  0  0  0
  1 35  1  0  0  0
  1 36  1  0  0  0
  1 37  1  0  0  0
  2  7  2  0  0  0
  2  3  1  0  0  0
  3  4  2  0  0  0
  3 38  1  0  0  0
  4  5  1  0  0  0
  4 39  1  0  0  0
  5  6  2  0  0  0
  5 40  1  0  0  0
  6  7  1  0  0  0
  6 41  1  0  0  0
  7  8  1  0  0  0
  8  9  1  0  0  0
  9 10  1  0  0  0
  9 19  1  0  0  0
  9 11  1  0  0  0
 11 12  1  0  0  0
 11 13  1  0  0  0
 11 31  1  0  0  0
 13 14  1  0  0  0
 13 15  1  0  0  0
 13 30  1  0  0  0
 15 16  1  0  0  0
 15 24  1  0  0  0
 15 17  1  0  0  0
 17 18  1  0  0  0
 17 19  1  0  0  0
 17 20  1  0  0  0
 20 21  1  0  0  0
 20 42  1  0  0  0
 20 43  1  0  0  0
 21 22  1  0  0  0
 22 23  1  0  0  0
 22 24  1  0  0  0
 22 25  1  0  0  0
 25 29  1  0  0  0
 25 26  2  0  0  0
 26 27  1  0  0  0
 26 44  1  0  0  0
 27 28  2  0  0  0
 27 45  1  0  0  0
 28 29  1  0  0  0
 28 46  1  0  0  0
 30 47  1  0  0  0
 31 32  1  0  0  0
 31 48  1  0  0  0
 32 33  2  0  0  0
 32 34  1  0  0  0
 34 49  1  0  0  0
 34 50  1  0  0  0
 34 51  1  0  0  0
M  END
> <i_i_glide_confnum>
5

> <i_i_glide_lignum>
1540

> <i_i_glide_posenum>
340

> <i_i_glide_rotatable_bonds>
6

> <i_m_Source_File_Index>
4255

> <b_m_subgroup_collapsed>
0

> <r_i_docking_score>
-3.53893

> <r_i_glide_ecoul>
-5.02291

> <r_i_glide_eff_state_penalty>
0

> <r_i_glide_einternal>
5.46307

> <r_i_glide_emodel>
-39.4393

> <r_i_glide_energy>
-33.7596

> <r_i_glide_erotb>
0.514242

> <r_i_glide_esite>
-0.146436

> <r_i_glide_evdw>
-28.7367

> <r_i_glide_gscore>
-3.53893

> <r_i_glide_hbond>
-0.119961

> <r_i_glide_ligand_efficiency>
-0.12639

> <r_i_glide_ligand_efficiency_ln>
-0.816889

> <r_i_glide_ligand_efficiency_sa>
-0.383795

> <r_i_glide_lipo>
-0.742707

> <r_i_glide_metal>
0

> <r_i_glide_rewards>
-0.853795

> <s_i_glide_gridfile>
wee1_glide-grid

> <s_m_Source_File>
wee1_decoys_glide_SP.sdf

> <s_m_Source_Path>
/Users/zhangxujun/Desktop

> <s_m_entry_id>
4530

> <s_m_entry_name>
wee1_decoys_glide_SP.4255

> <s_m_subgroup_title>
wee1_decoys_glide_SP

> <s_m_subgroupid>
wee1_decoys_glide_SP


$$$$
