ZINC39575922_333
                    3D
 Schrodinger Suite 2024-2.
 66 70  0  0  1  0            999 V2000
    9.9148   56.6162   16.8178 C   0  0  0  0  0  0
    9.3997   55.2972   16.9591 O   0  0  0  0  0  0
    8.1353   55.1196   17.4850 C   0  0  0  0  0  0
    7.2631   56.1659   17.8239 C   0  0  0  0  0  0
    6.0116   55.8875   18.3675 C   0  0  0  0  0  0
    5.6254   54.5640   18.5993 C   0  0  0  0  0  0
    6.4843   53.5222   18.2416 C   0  0  0  0  0  0
    7.7275   53.8013   17.6817 C   0  0  0  0  0  0
    4.2673   54.2728   19.2375 C   0  0  1  0  0  0
    3.7119   55.2106   19.3049 H   0  0  0  0  0  0
    3.5049   53.3674   18.4058 N   0  0  0  0  0  0
    2.4692   52.8967   19.2662 N   0  0  0  0  0  0
    3.1391   52.7262   20.5353 C   0  0  2  0  0  0
    2.4101   53.0061   21.2954 H   0  0  0  0  0  0
    4.2783   53.6528   20.5719 N   0  0  0  0  0  0
    4.9101   54.1007   21.7577 C   0  0  0  0  0  0
    4.4222   53.7058   23.0131 C   0  0  0  0  0  0
    5.0452   54.0967   24.1959 C   0  0  0  0  0  0
    6.2051   54.8789   24.1605 C   0  0  0  0  0  0
    6.7044   55.2712   22.9214 C   0  0  0  0  0  0
    6.0650   54.8967   21.7405 C   0  0  0  0  0  0
    6.8982   55.2971   25.2817 O   0  0  0  0  0  0
    6.4470   54.8840   26.5686 C   0  0  0  0  0  0
    3.5975   51.0072   20.8820 S   0  0  0  0  0  0
    2.0274   50.0905   20.7326 C   0  0  0  0  0  0
    1.0613   50.1500   21.9269 C   0  0  0  0  0  0
    0.0238   49.4866   21.8598 O   0  0  0  0  0  0
    1.3949   50.9051   22.9953 N   0  0  0  0  0  0
    0.6639   50.9091   24.1292 N   0  0  0  0  0  0
    1.1028   51.6968   25.0248 C   0  0  0  0  0  0
    0.4887   51.7302   26.3257 C   0  0  0  0  0  0
    0.8087   52.5758   27.3318 C   0  0  0  0  0  0
    1.7924   53.6721   27.4272 C   0  0  0  0  0  0
    1.9175   54.3955   28.5585 C   0  0  0  0  0  0
    1.0640   54.0535   29.6882 C   0  0  0  0  0  0
    0.1641   53.0377   29.6296 C   0  0  0  0  0  0
    0.0141   52.2925   28.4531 C   0  0  0  0  0  0
   -0.8012   51.2967   28.2053 N   0  3  0  0  0  0
   -0.6087   50.8112   26.8310 C   0  0  0  0  0  0
   10.9290   56.5649   16.4218 H   0  0  0  0  0  0
    9.3183   57.2074   16.1211 H   0  0  0  0  0  0
    9.9627   57.1315   17.7787 H   0  0  0  0  0  0
    7.5389   57.1980   17.6716 H   0  0  0  0  0  0
    5.3533   56.7043   18.6263 H   0  0  0  0  0  0
    6.1846   52.4968   18.4051 H   0  0  0  0  0  0
    8.3888   52.9894   17.4166 H   0  0  0  0  0  0
    3.0670   53.7973   17.6026 H   0  0  0  0  0  0
    1.9034   53.7336   19.4185 H   0  0  0  0  0  0
    3.5459   53.0862   23.0969 H   0  0  0  0  0  0
    4.6248   53.7609   25.1307 H   0  0  0  0  0  0
    7.5994   55.8729   22.8755 H   0  0  0  0  0  0
    6.5182   55.2175   20.8215 H   0  0  0  0  0  0
    7.1052   55.2962   27.3320 H   0  0  0  0  0  0
    5.4392   55.2466   26.7765 H   0  0  0  0  0  0
    6.4666   53.7974   26.6697 H   0  0  0  0  0  0
    2.2851   49.0436   20.5700 H   0  0  0  0  0  0
    1.5073   50.4145   19.8312 H   0  0  0  0  0  0
    2.2411   51.4534   23.0049 H   0  0  0  0  0  0
    1.9466   52.3738   24.9063 H   0  0  0  0  0  0
    2.4315   53.9328   26.5959 H   0  0  0  0  0  0
    2.6325   55.2033   28.6274 H   0  0  0  0  0  0
    1.1475   54.6240   30.6027 H   0  0  0  0  0  0
   -0.4361   52.8211   30.5046 H   0  0  0  0  0  0
   -0.3282   49.7557   26.8817 H   0  0  0  0  0  0
   -1.5560   50.9108   26.2995 H   0  0  0  0  0  0
   -1.4548   50.8707   28.8619 H   0  0  0  0  0  0
  1  2  1  0  0  0
  1 40  1  0  0  0
  1 41  1  0  0  0
  1 42  1  0  0  0
  2  3  1  0  0  0
  3  8  2  0  0  0
  3  4  1  0  0  0
  4  5  2  0  0  0
  4 43  1  0  0  0
  5  6  1  0  0  0
  5 44  1  0  0  0
  6  7  2  0  0  0
  6  9  1  0  0  0
  7  8  1  0  0  0
  7 45  1  0  0  0
  8 46  1  0  0  0
  9 10  1  0  0  0
  9 15  1  0  0  0
  9 11  1  0  0  0
 11 12  1  0  0  0
 11 47  1  0  0  0
 12 13  1  0  0  0
 12 48  1  0  0  0
 13 14  1  0  0  0
 13 15  1  0  0  0
 13 24  1  0  0  0
 15 16  1  0  0  0
 16 21  2  0  0  0
 16 17  1  0  0  0
 17 18  2  0  0  0
 17 49  1  0  0  0
 18 19  1  0  0  0
 18 50  1  0  0  0
 19 20  2  0  0  0
 19 22  1  0  0  0
 20 21  1  0  0  0
 20 51  1  0  0  0
 21 52  1  0  0  0
 22 23  1  0  0  0
 23 53  1  0  0  0
 23 54  1  0  0  0
 23 55  1  0  0  0
 24 25  1  0  0  0
 25 26  1  0  0  0
 25 56  1  0  0  0
 25 57  1  0  0  0
 26 27  2  0  0  0
 26 28  1  0  0  0
 28 29  1  0  0  0
 28 58  1  0  0  0
 29 30  2  0  0  0
 30 31  1  0  0  0
 30 59  1  0  0  0
 31 39  1  0  0  0
 31 32  2  0  0  0
 32 37  1  0  0  0
 32 33  1  0  0  0
 33 34  2  0  0  0
 33 60  1  0  0  0
 34 35  1  0  0  0
 34 61  1  0  0  0
 35 36  2  0  0  0
 35 62  1  0  0  0
 36 37  1  0  0  0
 36 63  1  0  0  0
 37 38  2  0  0  0
 38 39  1  0  0  0
 38 66  1  0  0  0
 39 64  1  0  0  0
 39 65  1  0  0  0
M  CHG  1  38   1
M  END
> <i_i_glide_confnum>
81

> <i_i_glide_lignum>
334

> <i_i_glide_posenum>
77

> <i_i_glide_rotatable_bonds>
10

> <i_m_Source_File_Index>
1030

> <b_m_subgroup_collapsed>
0

> <r_i_docking_score>
-6.34346

> <r_i_glide_ecoul>
-6.4063

> <r_i_glide_eff_state_penalty>
0

> <r_i_glide_einternal>
8.19162

> <r_i_glide_emodel>
-71.6768

> <r_i_glide_energy>
-51.3011

> <r_i_glide_erotb>
0.536446

> <r_i_glide_esite>
-0.143219

> <r_i_glide_evdw>
-44.8948

> <r_i_glide_gscore>
-6.34346

> <r_i_glide_hbond>
-0.608

> <r_i_glide_ligand_efficiency>
-0.171445

> <r_i_glide_ligand_efficiency_ln>
-1.37575

> <r_i_glide_ligand_efficiency_sa>
-0.571292

> <r_i_glide_lipo>
-2.7277

> <r_i_glide_metal>
0

> <r_i_glide_rewards>
-0.195299

> <s_i_glide_gridfile>
wee1_glide-grid

> <s_m_Source_File>
wee1_decoys_glide_SP.sdf

> <s_m_Source_Path>
/Users/zhangxujun/Desktop

> <s_m_entry_id>
1305

> <s_m_entry_name>
wee1_decoys_glide_SP.1030

> <s_m_subgroup_title>
wee1_decoys_glide_SP

> <s_m_subgroupid>
wee1_decoys_glide_SP


$$$$
