@<TRIPOS>MOLECULE
ZINC39668863_1323
63   66    1
SMALL
USER_CHARGES


@<TRIPOS>ATOM
      1 C1          1.9478   49.8053   21.1079 C.3       1 UNK         0.0000 
      2 C2          1.5269   51.2938   21.1314 C.3       1 UNK         0.0000 
      3 C3          1.4549   51.8403   19.6882 C.3       1 UNK         0.0000 
      4 C4          0.2255   51.5502   21.9461 C.2       1 UNK         0.0000 
      5 O5         -0.8200   51.8257   21.3507 O.2       1 UNK         0.0000 
      6 N6          0.2645   51.4931   23.3010 N.am      1 UNK         0.0000 
      7 C7          1.4575   51.1681   24.0968 C.3       1 UNK         0.0000 
      8 C8          1.0801   51.6249   25.5239 C.3       1 UNK         0.0000 
      9 H9          1.5037   51.0289   26.3289 H         1 UNK         0.0000 
     10 C10        -0.4516   51.3763   25.5684 C.3       1 UNK         0.0000 
     11 C11        -0.8948   51.8162   24.1523 C.3       1 UNK         0.0000 
     12 C12        -1.1943   52.0018   26.7817 C.3       1 UNK         0.0000 
     13 C13        -2.7061   51.6787   26.7800 C.3       1 UNK         0.0000 
     14 N14        -2.8955   50.1433   26.8210 N.4       1 UNK         0.0000 
     15 C15        -2.1587   49.4135   25.6829 C.3       1 UNK         0.0000 
     16 C16        -0.6775   49.8326   25.7520 C.3       1 UNK         0.0000 
     17 C17         1.5974   53.0759   25.7265 C.2       1 UNK         0.0000 
     18 O18         1.5165   53.9196   24.8340 O.2       1 UNK         0.0000 
     19 N19         2.3447   53.2676   26.8246 N.am      1 UNK         0.0000 
     20 C20         3.2281   54.4129   27.0878 C.3       1 UNK         0.0000 
     21 C21         3.6938   54.5694   28.5521 C.3       1 UNK         0.0000 
     22 H22         3.9061   55.6222   28.7328 H         1 UNK         0.0000 
     23 C23         2.6449   54.1061   29.5573 C.ar      1 UNK         0.0000 
     24 C24         1.5059   54.8780   29.8173 C.ar      1 UNK         0.0000 
     25 C25         0.5161   54.4172   30.6784 C.ar      1 UNK         0.0000 
     26 C26         0.6622   53.1817   31.2975 C.ar      1 UNK         0.0000 
     27 C27         1.7986   52.4156   31.0551 C.ar      1 UNK         0.0000 
     28 C28         2.7991   52.8538   30.1816 C.ar      1 UNK         0.0000 
     29 C29         4.0548   52.0162   29.9313 C.3       1 UNK         0.0000 
     30 C30         4.8716   52.5120   28.7215 C.3       1 UNK         0.0000 
     31 O31         4.9489   53.9255   28.7418 O.3       1 UNK         0.0000 
     32 H32         1.9520   49.3467   22.0938 H         1 UNK         0.0000 
     33 H33         1.2806   49.2171   20.4775 H         1 UNK         0.0000 
     34 H34         2.9619   49.6956   20.7107 H         1 UNK         0.0000 
     35 H35         2.3134   51.8655   21.6222 H         1 UNK         0.0000 
     36 H36         1.1969   52.8981   19.6738 H         1 UNK         0.0000 
     37 H37         2.4121   51.7364   19.1767 H         1 UNK         0.0000 
     38 H38         0.7062   51.3167   19.0915 H         1 UNK         0.0000 
     39 H39         2.3785   51.6442   23.7618 H         1 UNK         0.0000 
     40 H40         1.6329   50.0915   24.1112 H         1 UNK         0.0000 
     41 H41        -1.8408   51.3851   23.8307 H         1 UNK         0.0000 
     42 H42        -1.0250   52.9001   24.1540 H         1 UNK         0.0000 
     43 H43        -1.0827   53.0843   26.7743 H         1 UNK         0.0000 
     44 H44        -0.7416   51.6756   27.7207 H         1 UNK         0.0000 
     45 H45        -3.2189   52.0365   25.8851 H         1 UNK         0.0000 
     46 H46        -3.2157   52.0660   27.6635 H         1 UNK         0.0000 
     47 H47        -3.8756   49.8971   26.8177 H         1 UNK         0.0000 
     48 H48        -2.6608   49.6622   24.7490 H         1 UNK         0.0000 
     49 H49        -2.2866   48.3487   25.8843 H         1 UNK         0.0000 
     50 H50        -0.2214   49.4709   26.6755 H         1 UNK         0.0000 
     51 H51        -0.1684   49.2661   24.9721 H         1 UNK         0.0000 
     52 H52         2.3697   52.5346   27.5168 H         1 UNK         0.0000 
     53 H53         4.0827   54.3959   26.4097 H         1 UNK         0.0000 
     54 H54         2.7045   55.3154   26.8813 H         1 UNK         0.0000 
     55 H55         1.3814   55.8375   29.3350 H         1 UNK         0.0000 
     56 H56        -0.3556   55.0208   30.8762 H         1 UNK         0.0000 
     57 H57        -0.0927   52.8298   31.9861 H         1 UNK         0.0000 
     58 H58         1.9069   51.4783   31.5791 H         1 UNK         0.0000 
     59 H59         3.7830   50.9770   29.7633 H         1 UNK         0.0000 
     60 H60         4.6786   52.0558   30.8247 H         1 UNK         0.0000 
     61 H61         4.3887   52.1740   27.8114 H         1 UNK         0.0000 
     62 H62         5.8699   52.0979   28.6301 H         1 UNK         0.0000 
     63 H63        -2.5082   49.7626   27.6842 H         1 UNK         0.0000 
@<TRIPOS>BOND
     1    1    2 1    
     2    1   32 1    
     3    1   33 1    
     4    1   34 1    
     5    2    3 1    
     6    2    4 1    
     7    2   35 1    
     8    3   36 1    
     9    3   37 1    
    10    3   38 1    
    11    4    5 2    
    12    4    6 am   BACKBONE|DICT|INTERRES
    13    6   11 1    
    14    6    7 1    
    15    7    8 1    
    16    7   39 1    
    17    7   40 1    
    18    8    9 1    
    19    8   10 1    
    20    8   17 1    
    21   10   16 1    
    22   10   11 1    
    23   10   12 1    
    24   11   41 1    
    25   11   42 1    
    26   12   13 1    
    27   12   43 1    
    28   12   44 1    
    29   13   14 1    
    30   13   45 1    
    31   13   46 1    
    32   14   15 1    
    33   14   47 1    
    34   14   63 1    
    35   15   16 1    
    36   15   48 1    
    37   15   49 1    
    38   16   50 1    
    39   16   51 1    
    40   17   18 2    
    41   17   19 am   BACKBONE|DICT|INTERRES
    42   19   20 1    
    43   19   52 1    
    44   20   21 1    
    45   20   53 1    
    46   20   54 1    
    47   21   22 1    
    48   21   31 1    
    49   21   23 1    
    50   23   28 ar   
    51   23   24 ar   
    52   24   25 ar   
    53   24   55 1    
    54   25   26 ar   
    55   25   56 1    
    56   26   27 ar   
    57   26   57 1    
    58   27   28 ar   
    59   27   58 1    
    60   28   29 1    
    61   29   30 1    
    62   29   59 1    
    63   29   60 1    
    64   30   31 1    
    65   30   61 1    
    66   30   62 1    
@<TRIPOS>SUBSTRUCTURE
     1 UNK         1 GROUP             0       ****    0 ROOT    
