@<TRIPOS>MOLECULE
ZINC03841732_3033
63   67    1
SMALL
USER_CHARGES


@<TRIPOS>ATOM
      1 C1          2.3187   45.3720   15.2445 C.3       1 UNK         0.0000 
      2 O2          1.3764   44.9601   16.2229 O.3       1 UNK         0.0000 
      3 C3          1.1009   45.7982   17.2827 C.ar      1 UNK         0.0000 
      4 C4          1.7340   47.0287   17.5129 C.ar      1 UNK         0.0000 
      5 C5          1.3722   47.8236   18.6023 C.ar      1 UNK         0.0000 
      6 C6          0.3935   47.3618   19.4950 C.ar      1 UNK         0.0000 
      7 C7         -0.2471   46.1314   19.2800 C.ar      1 UNK         0.0000 
      8 C8          0.1161   45.3675   18.1721 C.ar      1 UNK         0.0000 
      9 O9         -1.2210   45.5986   20.1042 O.3       1 UNK         0.0000 
     10 C10        -1.6984   46.3750   21.1967 C.3       1 UNK         0.0000 
     11 N11         2.0813   49.0315   18.7404 N.pl3     1 UNK         0.0000 
     12 C12         1.8329   50.2286   19.3539 C.2       1 UNK         0.0000 
     13 S13         0.3909   50.6880   20.0840 S.2       1 UNK         0.0000 
     14 N14         2.9433   51.0189   19.2820 N.pl3     1 UNK         0.0000 
     15 C15         3.1103   52.3512   19.8824 C.3       1 UNK         0.0000 
     16 H16         2.1641   52.8943   19.8506 H         1 UNK         0.0000 
     17 C17         3.6241   52.2006   21.3131 C.3       1 UNK         0.0000 
     18 O18         5.0362   52.0926   21.1662 O.3       1 UNK         0.0000 
     19 C19         5.4577   52.9254   20.0757 C.3       1 UNK         0.0000 
     20 H20         6.2397   52.4183   19.5114 H         1 UNK         0.0000 
     21 C21         4.2332   53.1050   19.1785 C.3       1 UNK         0.0000 
     22 H22         4.4164   52.7368   18.1648 H         1 UNK         0.0000 
     23 O23         4.0141   54.5166   19.1142 O.3       1 UNK         0.0000 
     24 C24         5.2462   55.1810   19.3609 C.3       1 UNK         0.0000 
     25 C25         5.8818   54.3477   20.4614 C.3       1 UNK         0.0000 
     26 H26         6.9632   54.4969   20.4866 H         1 UNK         0.0000 
     27 O27         5.3221   54.7443   21.7207 O.3       1 UNK         0.0000 
     28 C28         5.9236   54.4331   22.8873 C.2       1 UNK         0.0000 
     29 O29         7.1011   54.0975   22.9914 O.2       1 UNK         0.0000 
     30 N30         4.9905   54.4967   23.9112 N.am      1 UNK         0.0000 
     31 C31         5.1975   54.3609   25.2975 C.ar      1 UNK         0.0000 
     32 C32         6.4478   54.6143   25.8800 C.ar      1 UNK         0.0000 
     33 C33         6.6410   54.4969   27.2502 C.ar      1 UNK         0.0000 
     34 C34         5.5945   54.1365   28.0836 C.ar      1 UNK         0.0000 
     35 C35         4.3134   53.8686   27.5487 C.ar      1 UNK         0.0000 
     36 C36         4.0982   53.9843   26.1372 C.ar      1 UNK         0.0000 
     37 C37         2.7952   53.6942   25.6337 C.ar      1 UNK         0.0000 
     38 C38         1.7728   53.2962   26.4894 C.ar      1 UNK         0.0000 
     39 C39         1.9911   53.1961   27.8570 C.ar      1 UNK         0.0000 
     40 C40         3.2417   53.4801   28.3935 C.ar      1 UNK         0.0000 
     41 H41         2.3253   44.6290   14.4480 H         1 UNK         0.0000 
     42 H42         2.0451   46.3277   14.7963 H         1 UNK         0.0000 
     43 H43         3.3255   45.4455   15.6602 H         1 UNK         0.0000 
     44 H44         2.5038   47.3815   16.8411 H         1 UNK         0.0000 
     45 H45         0.1490   47.9364   20.3718 H         1 UNK         0.0000 
     46 H46        -0.3731   44.4194   17.9997 H         1 UNK         0.0000 
     47 H47        -2.4983   45.8359   21.7021 H         1 UNK         0.0000 
     48 H48        -0.9152   46.5657   21.9334 H         1 UNK         0.0000 
     49 H49        -2.1123   47.3282   20.8592 H         1 UNK         0.0000 
     50 H50         2.9312   49.0310   18.1853 H         1 UNK         0.0000 
     51 H51         3.7529   50.6607   18.7791 H         1 UNK         0.0000 
     52 H52         3.1894   51.3613   21.8573 H         1 UNK         0.0000 
     53 H53         3.3559   53.0611   21.9267 H         1 UNK         0.0000 
     54 H54         5.1042   56.2220   19.6466 H         1 UNK         0.0000 
     55 H55         5.8454   55.2228   18.4480 H         1 UNK         0.0000 
     56 H56         4.0414   54.6689   23.6204 H         1 UNK         0.0000 
     57 H57         7.2880   54.9136   25.2727 H         1 UNK         0.0000 
     58 H58         7.6102   54.7026   27.6817 H         1 UNK         0.0000 
     59 H59         5.7568   54.0567   29.1494 H         1 UNK         0.0000 
     60 H60         2.5965   53.7574   24.5748 H         1 UNK         0.0000 
     61 H61         0.7990   53.0609   26.0873 H         1 UNK         0.0000 
     62 H62         1.1849   52.8886   28.5075 H         1 UNK         0.0000 
     63 H63         3.4068   53.3933   29.4562 H         1 UNK         0.0000 
@<TRIPOS>BOND
     1    1    2 1    
     2    1   41 1    
     3    1   42 1    
     4    1   43 1    
     5    2    3 1    
     6    3    8 ar   
     7    3    4 ar   
     8    4    5 ar   
     9    4   44 1    
    10    5    6 ar   
    11    5   11 1    
    12    6    7 ar   
    13    6   45 1    
    14    7    8 ar   
    15    7    9 1    
    16    8   46 1    
    17    9   10 1    
    18   10   47 1    
    19   10   48 1    
    20   10   49 1    
    21   11   12 1    
    22   11   50 1    
    23   12   13 2    
    24   12   14 1    
    25   14   15 1    
    26   14   51 1    
    27   15   16 1    
    28   15   21 1    
    29   15   17 1    
    30   17   18 1    
    31   17   52 1    
    32   17   53 1    
    33   18   19 1    
    34   19   20 1    
    35   19   25 1    
    36   19   21 1    
    37   21   22 1    
    38   21   23 1    
    39   23   24 1    
    40   24   25 1    
    41   24   54 1    
    42   24   55 1    
    43   25   26 1    
    44   25   27 1    
    45   27   28 1    
    46   28   29 2    
    47   28   30 am   BACKBONE|DICT|INTERRES
    48   30   31 1    
    49   30   56 1    
    50   31   36 ar   
    51   31   32 ar   
    52   32   33 ar   
    53   32   57 1    
    54   33   34 ar   
    55   33   58 1    
    56   34   35 ar   
    57   34   59 1    
    58   35   40 ar   
    59   35   36 ar   
    60   36   37 ar   
    61   37   38 ar   
    62   37   60 1    
    63   38   39 ar   
    64   38   61 1    
    65   39   40 ar   
    66   39   62 1    
    67   40   63 1    
@<TRIPOS>SUBSTRUCTURE
     1 UNK         1 GROUP             0       ****    0 ROOT    
