@<TRIPOS>MOLECULE
ZINC39686624_4902
74   76    1
SMALL
USER_CHARGES


@<TRIPOS>ATOM
      1 C1         11.5046   58.6099   18.8349 C.3       1 UNK         0.0000 
      2 C2         10.7704   58.3341   17.5153 C.3       1 UNK         0.0000 
      3 C3          9.9439   57.0343   17.5268 C.3       1 UNK         0.0000 
      4 C4          8.9187   56.9170   18.6738 C.3       1 UNK         0.0000 
      5 C5          7.8417   58.0300   18.7127 C.3       1 UNK         0.0000 
      6 C6          6.8613   58.1037   17.5156 C.3       1 UNK         0.0000 
      7 C7          6.2698   56.7743   17.0031 C.2       1 UNK         0.0000 
      8 O8          6.3249   56.5548   15.7899 O.2       1 UNK         0.0000 
      9 N9          5.7243   55.8781   17.8642 N.am      1 UNK         0.0000 
     10 C10         5.5048   56.0809   19.2944 C.3       1 UNK         0.0000 
     11 C11         4.4977   54.9776   19.6874 C.3       1 UNK         0.0000 
     12 H12         3.5021   55.3242   19.5330 H         1 UNK         0.0000 
     13 C13         4.6987   53.8520   18.6473 C.3       1 UNK         0.0000 
     14 C14         5.1583   54.6214   17.3914 C.3       1 UNK         0.0000 
     15 C15         3.4701   52.9919   18.2542 C.3       1 UNK         0.0000 
     16 C16         2.8352   52.2776   19.4495 C.3       1 UNK         0.0000 
     17 N17         3.9041   51.3641   20.0814 N.4       1 UNK         0.0000 
     18 C18         5.3614   51.8850   20.1913 C.3       1 UNK         0.0000 
     19 C19         5.8042   52.8687   19.0510 C.3       1 UNK         0.0000 
     20 C20         4.7070   54.6287   21.1931 C.2       1 UNK         0.0000 
     21 O21         5.8274   54.6779   21.6965 O.2       1 UNK         0.0000 
     22 N22         3.6104   54.3044   21.9074 N.am      1 UNK         0.0000 
     23 C23         3.5847   53.6874   23.2403 C.3       1 UNK         0.0000 
     24 H24         4.3246   52.8972   23.2231 H         1 UNK         0.0000 
     25 C25         2.2270   53.0007   23.4644 C.3       1 UNK         0.0000 
     26 C26         3.9505   54.6717   24.3713 C.3       1 UNK         0.0000 
     27 C27         4.3948   54.1096   25.7206 C.ar      1 UNK         0.0000 
     28 C28         3.4190   53.7178   26.6441 C.ar      1 UNK         0.0000 
     29 C29         3.7802   53.3060   27.9253 C.ar      1 UNK         0.0000 
     30 C30         5.1221   53.2954   28.2984 C.ar      1 UNK         0.0000 
     31 C31         6.1030   53.6990   27.3955 C.ar      1 UNK         0.0000 
     32 C32         5.7536   54.0979   26.1052 C.ar      1 UNK         0.0000 
     33 O33         6.7598   54.5617   25.2909 O.3       1 UNK         0.0000 
     34 C34         7.1451   53.6974   24.2277 C.3       1 UNK         0.0000 
     35 H35        12.1648   59.4726   18.7471 H         1 UNK         0.0000 
     36 H36        12.1098   57.7517   19.1325 H         1 UNK         0.0000 
     37 H37        10.7933   58.8201   19.6378 H         1 UNK         0.0000 
     38 H38        10.1263   59.1803   17.2696 H         1 UNK         0.0000 
     39 H39        11.5010   58.2760   16.7067 H         1 UNK         0.0000 
     40 H40         9.4318   56.9298   16.5687 H         1 UNK         0.0000 
     41 H41        10.6280   56.1860   17.5887 H         1 UNK         0.0000 
     42 H42         8.4463   55.9360   18.6134 H         1 UNK         0.0000 
     43 H43         9.4502   56.8956   19.6257 H         1 UNK         0.0000 
     44 H44         7.2660   57.9451   19.6314 H         1 UNK         0.0000 
     45 H45         8.3339   58.9976   18.8081 H         1 UNK         0.0000 
     46 H46         6.0474   58.7969   17.7299 H         1 UNK         0.0000 
     47 H47         7.3922   58.5664   16.6812 H         1 UNK         0.0000 
     48 H48         6.4706   55.8853   19.7602 H         1 UNK         0.0000 
     49 H49         5.1096   57.0674   19.5418 H         1 UNK         0.0000 
     50 H50         4.2748   54.9039   16.8166 H         1 UNK         0.0000 
     51 H51         5.7826   54.0333   16.7150 H         1 UNK         0.0000 
     52 H52         2.6965   53.6348   17.8292 H         1 UNK         0.0000 
     53 H53         3.7221   52.2809   17.4624 H         1 UNK         0.0000 
     54 H54         2.4381   52.9438   20.2072 H         1 UNK         0.0000 
     55 H55         2.0298   51.6112   19.1378 H         1 UNK         0.0000 
     56 H56         3.5829   50.9410   20.9410 H         1 UNK         0.0000 
     57 H57         5.5056   52.2135   21.2149 H         1 UNK         0.0000 
     58 H58         5.9042   50.9702   20.0818 H         1 UNK         0.0000 
     59 H59         6.1458   52.3108   18.1825 H         1 UNK         0.0000 
     60 H60         6.7038   53.4239   19.3143 H         1 UNK         0.0000 
     61 H61         2.7109   54.4478   21.4658 H         1 UNK         0.0000 
     62 H62         2.1929   52.5000   24.4313 H         1 UNK         0.0000 
     63 H63         1.4066   53.7203   23.4579 H         1 UNK         0.0000 
     64 H64         2.0309   52.2351   22.7136 H         1 UNK         0.0000 
     65 H65         4.7666   55.2969   24.0361 H         1 UNK         0.0000 
     66 H66         3.0942   55.3169   24.5365 H         1 UNK         0.0000 
     67 H67         2.3718   53.7508   26.3809 H         1 UNK         0.0000 
     68 H68         3.0197   52.9994   28.6273 H         1 UNK         0.0000 
     69 H69         5.4041   52.9730   29.2878 H         1 UNK         0.0000 
     70 H70         7.1380   53.7091   27.7004 H         1 UNK         0.0000 
     71 H71         7.6226   54.2856   23.4503 H         1 UNK         0.0000 
     72 H72         7.8447   52.9191   24.5326 H         1 UNK         0.0000 
     73 H73         6.3069   53.2035   23.7544 H         1 UNK         0.0000 
     74 H74         4.0075   50.6125   19.4012 H         1 UNK         0.0000 
@<TRIPOS>BOND
     1    1    2 1    
     2    1   35 1    
     3    1   36 1    
     4    1   37 1    
     5    2    3 1    
     6    2   38 1    
     7    2   39 1    
     8    3    4 1    
     9    3   40 1    
    10    3   41 1    
    11    4    5 1    
    12    4   42 1    
    13    4   43 1    
    14    5    6 1    
    15    5   44 1    
    16    5   45 1    
    17    6    7 1    
    18    6   46 1    
    19    6   47 1    
    20    7    8 2    
    21    7    9 am   BACKBONE|DICT|INTERRES
    22    9   14 1    
    23    9   10 1    
    24   10   11 1    
    25   10   48 1    
    26   10   49 1    
    27   11   12 1    
    28   11   13 1    
    29   11   20 1    
    30   13   19 1    
    31   13   14 1    
    32   13   15 1    
    33   14   50 1    
    34   14   51 1    
    35   15   16 1    
    36   15   52 1    
    37   15   53 1    
    38   16   17 1    
    39   16   54 1    
    40   16   55 1    
    41   17   18 1    
    42   17   56 1    
    43   17   74 1    
    44   18   19 1    
    45   18   57 1    
    46   18   58 1    
    47   19   59 1    
    48   19   60 1    
    49   20   21 2    
    50   20   22 am   BACKBONE|DICT|INTERRES
    51   22   23 1    
    52   22   61 1    
    53   23   24 1    
    54   23   25 1    
    55   23   26 1    
    56   25   62 1    
    57   25   63 1    
    58   25   64 1    
    59   26   27 1    
    60   26   65 1    
    61   26   66 1    
    62   27   32 ar   
    63   27   28 ar   
    64   28   29 ar   
    65   28   67 1    
    66   29   30 ar   
    67   29   68 1    
    68   30   31 ar   
    69   30   69 1    
    70   31   32 ar   
    71   31   70 1    
    72   32   33 1    
    73   33   34 1    
    74   34   71 1    
    75   34   72 1    
    76   34   73 1    
@<TRIPOS>SUBSTRUCTURE
     1 UNK         1 GROUP             0       ****    0 ROOT    
