@<TRIPOS>MOLECULE
ZINC16116479_2097
48   50    1
SMALL
USER_CHARGES


@<TRIPOS>ATOM
      1 C1          1.5318   49.1900   22.1246 C.3       1 UNK         0.0000 
      2 C2          0.9433   50.0163   23.2982 C.3       1 UNK         0.0000 
      3 H3          1.7091   50.6940   23.6756 H         1 UNK         0.0000 
      4 C4          0.4842   49.1037   24.4456 C.3       1 UNK         0.0000 
      5 C5         -0.9968   49.2589   24.4675 C.ar      1 UNK         0.0000 
      6 C6         -1.9240   48.6116   25.2813 C.ar      1 UNK         0.0000 
      7 C7         -3.2753   48.9500   25.1959 C.ar      1 UNK         0.0000 
      8 C8         -3.6877   49.9575   24.3190 C.ar      1 UNK         0.0000 
      9 C9         -2.7513   50.6175   23.5225 C.ar      1 UNK         0.0000 
     10 C10        -1.3971   50.2477   23.5740 C.ar      1 UNK         0.0000 
     11 N11        -0.2673   50.7784   22.9064 N.am      1 UNK         0.0000 
     12 C12        -0.2909   51.7276   21.9233 C.2       1 UNK         0.0000 
     13 O13        -1.3448   52.0968   21.3991 O.2       1 UNK         0.0000 
     14 C14         0.9999   52.4009   21.4065 C.3       1 UNK         0.0000 
     15 O15         1.8460   52.8231   22.4845 O.3       1 UNK         0.0000 
     16 C16         3.1043   53.2935   22.2321 C.2       1 UNK         0.0000 
     17 O17         3.6009   53.3558   21.1085 O.2       1 UNK         0.0000 
     18 C18         3.8718   53.6959   23.4083 C.2       1 UNK         0.0000 
     19 C19         3.4037   53.7016   24.6771 C.2       1 UNK         0.0000 
     20 C20         4.1458   54.0366   25.9217 C.ar      1 UNK         0.0000 
     21 C21         3.4167   54.0237   27.1186 C.ar      1 UNK         0.0000 
     22 C22         4.0396   54.2487   28.3443 C.ar      1 UNK         0.0000 
     23 C23         5.4084   54.4962   28.3949 C.ar      1 UNK         0.0000 
     24 C24         6.1505   54.5120   27.2182 C.ar      1 UNK         0.0000 
     25 C25         5.5315   54.2929   25.9881 C.ar      1 UNK         0.0000 
     26 F26         6.3124   54.3163   24.8855 F         1 UNK         0.0000 
     27 Br27        3.0188   54.1964   29.9479 Br        1 UNK         0.0000 
     28 S28        -4.4460   48.0906   26.2303 S.o2      1 UNK         0.0000 
     29 O29        -5.7893   48.5652   25.8814 O.2       1 UNK         0.0000 
     30 O30        -4.1001   46.6657   26.1677 O.2       1 UNK         0.0000 
     31 N31        -4.0957   48.6597   27.8382 N.pl3     1 UNK         0.0000 
     32 H32         2.2990   48.4990   22.4810 H         1 UNK         0.0000 
     33 H33         0.7698   48.5843   21.6320 H         1 UNK         0.0000 
     34 H34         2.0314   49.8061   21.3803 H         1 UNK         0.0000 
     35 H35         0.7095   48.0495   24.2826 H         1 UNK         0.0000 
     36 H36         0.9103   49.4342   25.3923 H         1 UNK         0.0000 
     37 H37        -1.6010   47.8622   25.9940 H         1 UNK         0.0000 
     38 H38        -4.7293   50.2387   24.2587 H         1 UNK         0.0000 
     39 H39        -3.1073   51.4030   22.8754 H         1 UNK         0.0000 
     40 H40         0.7064   53.2959   20.8529 H         1 UNK         0.0000 
     41 H41         1.5090   51.7603   20.6861 H         1 UNK         0.0000 
     42 H42         4.8826   53.9884   23.1782 H         1 UNK         0.0000 
     43 H43         2.3699   53.4208   24.8325 H         1 UNK         0.0000 
     44 H44         2.3563   53.8168   27.1096 H         1 UNK         0.0000 
     45 H45         5.8985   54.6826   29.3363 H         1 UNK         0.0000 
     46 H46         7.2122   54.7029   27.2674 H         1 UNK         0.0000 
     47 H47        -3.1057   48.4955   28.1056 H         1 UNK         0.0000 
     48 H48        -4.3517   49.6365   27.9809 H         1 UNK         0.0000 
@<TRIPOS>BOND
     1    1    2 1    
     2    1   32 1    
     3    1   33 1    
     4    1   34 1    
     5    2    3 1    
     6    2   11 1    
     7    2    4 1    
     8    4    5 1    
     9    4   35 1    
    10    4   36 1    
    11    5   10 ar   
    12    5    6 ar   
    13    6    7 ar   
    14    6   37 1    
    15    7    8 ar   
    16    7   28 1    
    17    8    9 ar   
    18    8   38 1    
    19    9   10 ar   
    20    9   39 1    
    21   10   11 1    
    22   11   12 am   BACKBONE|DICT|INTERRES
    23   12   13 2    
    24   12   14 1    
    25   14   15 1    
    26   14   40 1    
    27   14   41 1    
    28   15   16 1    
    29   16   17 2    
    30   16   18 1    
    31   18   19 2    
    32   18   42 1    
    33   19   20 1    
    34   19   43 1    
    35   20   25 ar   
    36   20   21 ar   
    37   21   22 ar   
    38   21   44 1    
    39   22   23 ar   
    40   22   27 1    
    41   23   24 ar   
    42   23   45 1    
    43   24   25 ar   
    44   24   46 1    
    45   25   26 1    
    46   28   29 2    
    47   28   30 2    
    48   28   31 1    
    49   31   47 1    
    50   31   48 1    
@<TRIPOS>SUBSTRUCTURE
     1 UNK         1 GROUP             0       ****    0 ROOT    
