ZINC02905545_4468
                    3D
 Schrodinger Suite 2024-2.
 49 51  0  0  1  0            999 V2000
    0.0826   55.0804   17.0008 C   0  0  0  0  0  0
   -1.3155   54.6051   16.6154 C   0  0  0  0  0  0
   -1.9478   55.2771   15.5629 C   0  0  0  0  0  0
   -3.2399   54.9360   15.1711 C   0  0  0  0  0  0
   -3.9192   53.9188   15.8316 C   0  0  0  0  0  0
   -3.3032   53.2413   16.8813 C   0  0  0  0  0  0
   -2.0023   53.5650   17.2909 C   0  0  0  0  0  0
   -1.4127   52.7798   18.4401 C   0  0  0  0  0  0
   -2.0970   52.4938   19.4232 O   0  0  0  0  0  0
   -0.1431   52.3774   18.2863 N   0  0  0  0  0  0
    0.6681   51.6005   19.2297 C   0  0  1  0  0  0
    0.0105   50.8506   19.6794 H   0  0  0  0  0  0
    1.7682   50.8299   18.4311 C   0  0  0  0  0  0
    2.8813   51.9928   17.6477 Cl  0  0  0  0  0  0
    2.7051   49.7393   19.4860 Cl  0  0  0  0  0  0
    1.0125   49.8178   17.1622 Cl  0  0  0  0  0  0
    1.2131   52.4967   20.2732 N   0  0  0  0  0  0
    1.5069   53.4080   19.9411 H   0  0  0  0  0  0
    1.4239   52.2396   21.6006 C   0  0  0  0  0  0
    0.9538   50.8274   22.3848 S   0  0  0  0  0  0
    2.0895   53.2966   22.1674 N   0  0  0  0  0  0
    2.5246   53.4622   23.4846 C   0  0  0  0  0  0
    3.8001   53.8706   23.8975 C   0  0  0  0  0  0
    3.8970   54.0215   25.3019 C   0  0  0  0  0  0
    2.6990   53.6912   25.9511 C   0  0  0  0  0  0
    1.4379   53.2972   24.8328 S   0  0  0  0  0  0
    2.5136   53.5755   27.4583 C   0  0  0  0  0  0
    3.6980   54.2502   28.1801 C   0  0  0  0  0  0
    5.0544   53.8952   27.5477 C   0  0  0  0  0  0
    5.1623   54.3866   26.0860 C   0  0  0  0  0  0
    4.9178   54.0966   22.9882 C   0  0  0  0  0  0
    5.8048   54.2795   22.2688 N   0  0  0  0  0  0
    0.3193   56.0591   16.5765 H   0  0  0  0  0  0
    0.1628   55.1876   18.0814 H   0  0  0  0  0  0
    0.8436   54.3709   16.6671 H   0  0  0  0  0  0
   -1.4405   56.0771   15.0432 H   0  0  0  0  0  0
   -3.7144   55.4635   14.3564 H   0  0  0  0  0  0
   -4.9226   53.6530   15.5322 H   0  0  0  0  0  0
   -3.8525   52.4483   17.3717 H   0  0  0  0  0  0
    0.3384   52.6848   17.4538 H   0  0  0  0  0  0
    2.4904   53.9519   21.5120 H   0  0  0  0  0  0
    2.4805   52.5221   27.7384 H   0  0  0  0  0  0
    1.5702   54.0168   27.7813 H   0  0  0  0  0  0
    3.6927   53.9672   29.2333 H   0  0  0  0  0  0
    3.5604   55.3291   28.1644 H   0  0  0  0  0  0
    5.1991   52.8139   27.5810 H   0  0  0  0  0  0
    5.8648   54.3254   28.1372 H   0  0  0  0  0  0
    5.3042   55.4672   26.0633 H   0  0  0  0  0  0
    6.0534   53.9573   25.6250 H   0  0  0  0  0  0
  1  2  1  0  0  0
  1 33  1  0  0  0
  1 34  1  0  0  0
  1 35  1  0  0  0
  2  7  2  0  0  0
  2  3  1  0  0  0
  3  4  2  0  0  0
  3 36  1  0  0  0
  4  5  1  0  0  0
  4 37  1  0  0  0
  5  6  2  0  0  0
  5 38  1  0  0  0
  6  7  1  0  0  0
  6 39  1  0  0  0
  7  8  1  0  0  0
  8  9  2  0  0  0
  8 10  1  0  0  0
 10 11  1  0  0  0
 10 40  1  0  0  0
 11 12  1  0  0  0
 11 13  1  0  0  0
 11 17  1  0  0  0
 13 14  1  0  0  0
 13 15  1  0  0  0
 13 16  1  0  0  0
 17 18  1  0  0  0
 17 19  1  0  0  0
 19 20  2  0  0  0
 19 21  1  0  0  0
 21 22  1  0  0  0
 21 41  1  0  0  0
 22 26  1  0  0  0
 22 23  2  0  0  0
 23 24  1  0  0  0
 23 31  1  0  0  0
 24 30  1  0  0  0
 24 25  2  0  0  0
 25 26  1  0  0  0
 25 27  1  0  0  0
 27 28  1  0  0  0
 27 42  1  0  0  0
 27 43  1  0  0  0
 28 29  1  0  0  0
 28 44  1  0  0  0
 28 45  1  0  0  0
 29 30  1  0  0  0
 29 46  1  0  0  0
 29 47  1  0  0  0
 30 48  1  0  0  0
 30 49  1  0  0  0
 31 32  3  0  0  0
M  END
> <i_i_glide_confnum>
272

> <i_i_glide_lignum>
4469

> <i_i_glide_posenum>
169

> <i_i_glide_rotatable_bonds>
9

> <i_m_Source_File_Index>
1584

> <b_m_subgroup_collapsed>
0

> <r_i_docking_score>
-5.47975

> <r_i_glide_ecoul>
-6.8271

> <r_i_glide_eff_state_penalty>
0

> <r_i_glide_einternal>
8.1061

> <r_i_glide_emodel>
-51.701

> <r_i_glide_energy>
-40.3722

> <r_i_glide_erotb>
0.567744

> <r_i_glide_esite>
-0.100279

> <r_i_glide_evdw>
-33.5451

> <r_i_glide_gscore>
-5.47975

> <r_i_glide_hbond>
-0.680493

> <r_i_glide_ligand_efficiency>
-0.182658

> <r_i_glide_ligand_efficiency_ln>
-1.24506

> <r_i_glide_ligand_efficiency_sa>
-0.567562

> <r_i_glide_lipo>
-2.13752

> <r_i_glide_metal>
0

> <r_i_glide_rewards>
-0.427884

> <s_i_glide_gridfile>
wee1_glide-grid

> <s_m_Source_File>
wee1_decoys_glide_SP.sdf

> <s_m_Source_Path>
/Users/zhangxujun/Desktop

> <s_m_entry_id>
1859

> <s_m_entry_name>
wee1_decoys_glide_SP.1584

> <s_m_subgroup_title>
wee1_decoys_glide_SP

> <s_m_subgroupid>
wee1_decoys_glide_SP


$$$$
