@<TRIPOS>MOLECULE
ZINC26053292_2108
61   64    1
SMALL
USER_CHARGES


@<TRIPOS>ATOM
      1 C1          9.7546   55.7401   17.2466 C.3       1 UNK         0.0000 
      2 C2          8.2850   55.6719   17.6481 C.ar      1 UNK         0.0000 
      3 C3          7.9886   55.5135   19.0038 C.ar      1 UNK         0.0000 
      4 C4          6.6673   55.4047   19.4387 C.ar      1 UNK         0.0000 
      5 C5          5.6329   55.4677   18.5041 C.ar      1 UNK         0.0000 
      6 C6          5.9016   55.6605   17.1458 C.ar      1 UNK         0.0000 
      7 C7          7.2402   55.7550   16.7027 C.ar      1 UNK         0.0000 
      8 C8          7.5584   55.9653   15.2214 C.3       1 UNK         0.0000 
      9 S9          4.4825   55.7759   16.0344 S.o2      1 UNK         0.0000 
     10 O10         3.2715   55.5001   16.8169 O.2       1 UNK         0.0000 
     11 O11         4.7885   54.9840   14.8382 O.2       1 UNK         0.0000 
     12 N12         4.4168   57.4634   15.5445 N.pl3     1 UNK         0.0000 
     13 C13         4.0970   58.5022   16.5440 C.3       1 UNK         0.0000 
     14 C14         6.3640   55.2967   20.9029 C.2       1 UNK         0.0000 
     15 O15         6.8815   56.0964   21.6815 O.2       1 UNK         0.0000 
     16 N16         5.5041   54.3129   21.2461 N.am      1 UNK         0.0000 
     17 C17         4.8307   54.2113   22.4737 C.ar      1 UNK         0.0000 
     18 C18         3.4455   54.1052   22.3595 C.ar      1 UNK         0.0000 
     19 C19         2.6408   54.1825   23.4840 C.ar      1 UNK         0.0000 
     20 C20         3.2189   54.3689   24.7312 C.ar      1 UNK         0.0000 
     21 C21         4.6151   54.3753   24.9071 C.ar      1 UNK         0.0000 
     22 C22         5.4394   54.2630   23.7537 C.ar      1 UNK         0.0000 
     23 C23         6.9605   54.1236   23.8875 C.3       1 UNK         0.0000 
     24 C24         5.1865   54.5913   26.3083 C.2       1 UNK         0.0000 
     25 O25         6.2217   55.2528   26.4401 O.2       1 UNK         0.0000 
     26 N26         4.5135   54.0961   27.3878 N.am      1 UNK         0.0000 
     27 C27         4.9668   54.3773   28.7647 C.3       1 UNK         0.0000 
     28 C28         3.7398   54.6594   29.6818 C.3       1 UNK         0.0000 
     29 C29         2.5693   53.7354   29.3795 C.2       1 UNK         0.0000 
     30 C30         2.5317   52.9145   28.2634 C.2       1 UNK         0.0000 
     31 C31         1.3717   52.1287   28.2121 C.2       1 UNK         0.0000 
     32 C32         0.4954   52.3919   29.2558 C.2       1 UNK         0.0000 
     33 S33         1.1056   53.6189   30.3156 S.3       1 UNK         0.0000 
     34 C34         3.6950   52.8758   27.2964 C.3       1 UNK         0.0000 
     35 H35        10.4219   55.5159   18.0816 H         1 UNK         0.0000 
     36 H36         9.9679   55.0139   16.4619 H         1 UNK         0.0000 
     37 H37        10.0027   56.7316   16.8652 H         1 UNK         0.0000 
     38 H38         8.7952   55.4693   19.7248 H         1 UNK         0.0000 
     39 H39         4.6065   55.4060   18.8424 H         1 UNK         0.0000 
     40 H40         8.5667   56.3339   15.0370 H         1 UNK         0.0000 
     41 H41         7.4203   55.0345   14.6709 H         1 UNK         0.0000 
     42 H42         6.8991   56.7121   14.7833 H         1 UNK         0.0000 
     43 H43         5.0441   57.7354   14.7840 H         1 UNK         0.0000 
     44 H44         3.6744   59.3728   16.0440 H         1 UNK         0.0000 
     45 H45         5.0098   58.8160   17.0530 H         1 UNK         0.0000 
     46 H46         3.3903   58.1217   17.2804 H         1 UNK         0.0000 
     47 H47         5.1194   53.7694   20.4881 H         1 UNK         0.0000 
     48 H48         2.9751   54.0339   21.3879 H         1 UNK         0.0000 
     49 H49         1.5660   54.1526   23.3817 H         1 UNK         0.0000 
     50 H50         2.5545   54.4955   25.5735 H         1 UNK         0.0000 
     51 H51         7.2148   53.4630   24.7159 H         1 UNK         0.0000 
     52 H52         7.4231   53.6759   23.0084 H         1 UNK         0.0000 
     53 H53         7.4205   55.0942   24.0752 H         1 UNK         0.0000 
     54 H54         5.5091   53.5066   29.1343 H         1 UNK         0.0000 
     55 H55         5.6422   55.2334   28.8139 H         1 UNK         0.0000 
     56 H56         4.0856   54.4969   30.6988 H         1 UNK         0.0000 
     57 H57         3.4351   55.6990   29.5697 H         1 UNK         0.0000 
     58 H58         1.1752   51.3964   27.4415 H         1 UNK         0.0000 
     59 H59        -0.4611   51.9261   29.4506 H         1 UNK         0.0000 
     60 H60         3.4350   52.5370   26.2969 H         1 UNK         0.0000 
     61 H61         4.3642   52.1003   27.6697 H         1 UNK         0.0000 
@<TRIPOS>BOND
     1    1    2 1    
     2    1   35 1    
     3    1   36 1    
     4    1   37 1    
     5    2    7 ar   
     6    2    3 ar   
     7    3    4 ar   
     8    3   38 1    
     9    4    5 ar   
    10    4   14 1    
    11    5    6 ar   
    12    5   39 1    
    13    6    7 ar   
    14    6    9 1    
    15    7    8 1    
    16    8   40 1    
    17    8   41 1    
    18    8   42 1    
    19    9   10 2    
    20    9   11 2    
    21    9   12 1    
    22   12   13 1    
    23   12   43 1    
    24   13   44 1    
    25   13   45 1    
    26   13   46 1    
    27   14   15 2    
    28   14   16 am   BACKBONE|DICT|INTERRES
    29   16   17 1    
    30   16   47 1    
    31   17   22 ar   
    32   17   18 ar   
    33   18   19 ar   
    34   18   48 1    
    35   19   20 ar   
    36   19   49 1    
    37   20   21 ar   
    38   20   50 1    
    39   21   22 ar   
    40   21   24 1    
    41   22   23 1    
    42   23   51 1    
    43   23   52 1    
    44   23   53 1    
    45   24   25 2    
    46   24   26 am   BACKBONE|DICT|INTERRES
    47   26   34 1    
    48   26   27 1    
    49   27   28 1    
    50   27   54 1    
    51   27   55 1    
    52   28   29 1    
    53   28   56 1    
    54   28   57 1    
    55   29   33 1    
    56   29   30 2    
    57   30   31 1    
    58   30   34 1    
    59   31   32 2    
    60   31   58 1    
    61   32   33 1    
    62   32   59 1    
    63   34   60 1    
    64   34   61 1    
@<TRIPOS>SUBSTRUCTURE
     1 UNK         1 GROUP             0       ****    0 ROOT    
