@<TRIPOS>MOLECULE
ZINC35664237_2918
75   77    1
SMALL
USER_CHARGES


@<TRIPOS>ATOM
      1 C1         -0.4010   52.4038   21.5790 C.3       1 UNK         0.0000 
      2 C2          1.0087   52.4980   22.1883 C.3       1 UNK         0.0000 
      3 N3          1.1474   51.9120   23.5458 N.am      1 UNK         0.0000 
      4 C4          1.4666   52.6193   24.7091 C.2       1 UNK         0.0000 
      5 C5          1.1036   52.0953   25.9244 C.2       1 UNK         0.0000 
      6 C6          0.2225   50.8227   25.9192 C.3       1 UNK         0.0000 
      7 H7          0.3436   50.2209   26.8251 H         1 UNK         0.0000 
      8 N8          0.7039   50.0065   24.7815 N.am      1 UNK         0.0000 
      9 C9          1.0212   50.5352   23.5681 C.2       1 UNK         0.0000 
     10 O10         1.2073   49.7735   22.6193 O.2       1 UNK         0.0000 
     11 C11        -1.2904   51.1108   25.9494 C.ar      1 UNK         0.0000 
     12 C12        -1.9619   51.1779   27.1786 C.ar      1 UNK         0.0000 
     13 C13        -3.3334   51.4275   27.2347 C.ar      1 UNK         0.0000 
     14 C14        -4.0497   51.6408   26.0602 C.ar      1 UNK         0.0000 
     15 C15        -3.3982   51.5881   24.8315 C.ar      1 UNK         0.0000 
     16 C16        -2.0304   51.3242   24.7779 C.ar      1 UNK         0.0000 
     17 F17        -4.0916   51.7877   23.6879 F         1 UNK         0.0000 
     18 C18         1.5171   52.5504   27.2824 C.2       1 UNK         0.0000 
     19 O19         0.9239   52.1896   28.3041 O.2       1 UNK         0.0000 
     20 O20         2.6270   53.3294   27.3268 O.3       1 UNK         0.0000 
     21 C21         3.1134   53.8774   28.5498 C.3       1 UNK         0.0000 
     22 C22         2.2955   55.1106   28.9753 C.3       1 UNK         0.0000 
     23 C23         2.2944   53.9129   24.5106 C.3       1 UNK         0.0000 
     24 N24         3.8078   53.6970   24.2024 N.4       1 UNK         0.0000 
     25 C25         4.7405   54.7211   24.9052 C.3       1 UNK         0.0000 
     26 C26         6.2369   54.3682   24.8408 C.3       1 UNK         0.0000 
     27 C27         6.9837   54.7825   23.5490 C.3       1 UNK         0.0000 
     28 N28         6.2881   54.5100   22.2798 N.am      1 UNK         0.0000 
     29 C29         5.5038   53.2655   22.2779 C.3       1 UNK         0.0000 
     30 C30         4.0425   53.4637   22.6853 C.3       1 UNK         0.0000 
     31 C31         6.3634   55.3886   21.2321 C.2       1 UNK         0.0000 
     32 O32         6.9960   56.4465   21.2823 O.2       1 UNK         0.0000 
     33 N33         5.7322   55.0054   20.0970 N.am      1 UNK         0.0000 
     34 C34         5.9558   55.4776   18.7218 C.3       1 UNK         0.0000 
     35 C35         5.7022   56.9992   18.5569 C.3       1 UNK         0.0000 
     36 C36         4.9639   54.7224   17.8153 C.3       1 UNK         0.0000 
     37 C37         7.3965   55.1434   18.2652 C.3       1 UNK         0.0000 
     38 H38        -0.4014   52.8953   20.6072 H         1 UNK         0.0000 
     39 H39        -0.7097   51.3714   21.4082 H         1 UNK         0.0000 
     40 H40        -1.1477   52.8963   22.2053 H         1 UNK         0.0000 
     41 H41         1.2885   53.5474   22.1678 H         1 UNK         0.0000 
     42 H42         1.7062   52.0125   21.5031 H         1 UNK         0.0000 
     43 H43         0.4264   49.0367   24.7605 H         1 UNK         0.0000 
     44 H44        -1.4292   51.0013   28.1020 H         1 UNK         0.0000 
     45 H45        -3.8333   51.4515   28.1913 H         1 UNK         0.0000 
     46 H46        -5.1112   51.8345   26.0987 H         1 UNK         0.0000 
     47 H47        -1.5655   51.2744   23.8106 H         1 UNK         0.0000 
     48 H48         3.1214   53.1226   29.3393 H         1 UNK         0.0000 
     49 H49         4.1518   54.1721   28.3948 H         1 UNK         0.0000 
     50 H50         2.7053   55.5602   29.8804 H         1 UNK         0.0000 
     51 H51         2.2943   55.8736   28.1943 H         1 UNK         0.0000 
     52 H52         1.2563   54.8437   29.1822 H         1 UNK         0.0000 
     53 H53         2.2591   54.4968   25.4154 H         1 UNK         0.0000 
     54 H54         1.8926   54.6065   23.7706 H         1 UNK         0.0000 
     55 H55         4.4193   54.7188   25.9475 H         1 UNK         0.0000 
     56 H56         4.5534   55.6958   24.4821 H         1 UNK         0.0000 
     57 H57         6.3546   53.2976   24.9998 H         1 UNK         0.0000 
     58 H58         6.7479   54.8193   25.6906 H         1 UNK         0.0000 
     59 H59         7.8790   54.1581   23.5259 H         1 UNK         0.0000 
     60 H60         7.2872   55.8299   23.6194 H         1 UNK         0.0000 
     61 H61         5.4969   52.8578   21.2650 H         1 UNK         0.0000 
     62 H62         5.9973   52.4696   22.8360 H         1 UNK         0.0000 
     63 H63         3.5598   54.2805   22.1421 H         1 UNK         0.0000 
     64 H64         3.5207   52.5360   22.4758 H         1 UNK         0.0000 
     65 H65         5.1505   54.1849   20.1556 H         1 UNK         0.0000 
     66 H66         5.7956   57.3051   17.5125 H         1 UNK         0.0000 
     67 H67         6.4149   57.6020   19.1175 H         1 UNK         0.0000 
     68 H68         4.7048   57.2952   18.8810 H         1 UNK         0.0000 
     69 H69         5.1077   53.6415   17.8649 H         1 UNK         0.0000 
     70 H70         3.9300   54.9260   18.0969 H         1 UNK         0.0000 
     71 H71         5.0752   55.0117   16.7692 H         1 UNK         0.0000 
     72 H72         7.6050   54.0754   18.3370 H         1 UNK         0.0000 
     73 H73         7.5689   55.4389   17.2286 H         1 UNK         0.0000 
     74 H74         8.1426   55.6590   18.8709 H         1 UNK         0.0000 
     75 H75         4.0425   52.8324   24.6774 H         1 UNK         0.0000 
@<TRIPOS>BOND
     1    1    2 1    
     2    1   38 1    
     3    1   39 1    
     4    1   40 1    
     5    2    3 1    
     6    2   41 1    
     7    2   42 1    
     8    3    9 am   BACKBONE|DICT|INTERRES
     9    3    4 1    
    10    4    5 2    
    11    4   23 1    
    12    5    6 1    
    13    5   18 1    
    14    6    7 1    
    15    6    8 1    
    16    6   11 1    
    17    8    9 am   BACKBONE|DICT|INTERRES
    18    8   43 1    
    19    9   10 2    
    20   11   16 ar   
    21   11   12 ar   
    22   12   13 ar   
    23   12   44 1    
    24   13   14 ar   
    25   13   45 1    
    26   14   15 ar   
    27   14   46 1    
    28   15   16 ar   
    29   15   17 1    
    30   16   47 1    
    31   18   19 2    
    32   18   20 1    
    33   20   21 1    
    34   21   22 1    
    35   21   48 1    
    36   21   49 1    
    37   22   50 1    
    38   22   51 1    
    39   22   52 1    
    40   23   24 1    
    41   23   53 1    
    42   23   54 1    
    43   24   30 1    
    44   24   25 1    
    45   24   75 1    
    46   25   26 1    
    47   25   55 1    
    48   25   56 1    
    49   26   27 1    
    50   26   57 1    
    51   26   58 1    
    52   27   28 1    
    53   27   59 1    
    54   27   60 1    
    55   28   29 1    
    56   28   31 am   BACKBONE|DICT|INTERRES
    57   29   30 1    
    58   29   61 1    
    59   29   62 1    
    60   30   63 1    
    61   30   64 1    
    62   31   32 2    
    63   31   33 am   BACKBONE|DICT|INTERRES
    64   33   34 1    
    65   33   65 1    
    66   34   35 1    
    67   34   36 1    
    68   34   37 1    
    69   35   66 1    
    70   35   67 1    
    71   35   68 1    
    72   36   69 1    
    73   36   70 1    
    74   36   71 1    
    75   37   72 1    
    76   37   73 1    
    77   37   74 1    
@<TRIPOS>SUBSTRUCTURE
     1 UNK         1 GROUP             0       ****    0 ROOT    
