@<TRIPOS>MOLECULE
ZINC03440256_4972
63   66    1
SMALL
USER_CHARGES


@<TRIPOS>ATOM
      1 C1          4.7945   54.4108   26.7949 C.3       1 UNK         0.0000 
      2 C2          4.5977   54.2888   25.2901 C.ar      1 UNK         0.0000 
      3 C3          3.3049   54.3683   24.7662 C.ar      1 UNK         0.0000 
      4 C4          3.0891   54.2789   23.3928 C.ar      1 UNK         0.0000 
      5 C5          4.1614   54.0626   22.5279 C.ar      1 UNK         0.0000 
      6 C6          5.4597   53.9849   23.0437 C.ar      1 UNK         0.0000 
      7 C7          5.6843   54.1017   24.4179 C.ar      1 UNK         0.0000 
      8 C8          7.1034   53.9732   24.9381 C.3       1 UNK         0.0000 
      9 N9          3.9041   53.9710   21.1552 N.am      1 UNK         0.0000 
     10 C10         4.4005   53.0412   20.3142 C.2       1 UNK         0.0000 
     11 O11         5.1041   52.0968   20.6713 O.2       1 UNK         0.0000 
     12 C12         4.0576   53.2229   18.8330 C.3       1 UNK         0.0000 
     13 S13         2.2741   53.2292   18.4751 S.3       1 UNK         0.0000 
     14 C14         1.7373   51.5368   18.6663 C.2       1 UNK         0.0000 
     15 C15         1.0756   51.0140   19.7169 C.2       1 UNK         0.0000 
     16 C16         0.3989   49.6190   19.6991 C.3       1 UNK         0.0000 
     17 C17        -1.1471   49.8263   19.5275 C.3       1 UNK         0.0000 
     18 C18        -1.8998   50.3438   20.7720 C.3       1 UNK         0.0000 
     19 C19        -1.6499   49.4449   21.9941 C.3       1 UNK         0.0000 
     20 C20        -0.1514   49.2638   22.2870 C.3       1 UNK         0.0000 
     21 C21         0.6569   48.8416   21.0374 C.3       1 UNK         0.0000 
     22 C22         1.0055   48.7652   18.4997 C.3       1 UNK         0.0000 
     23 H23         1.9661   48.3772   18.8473 H         1 UNK         0.0000 
     24 C24         1.4453   49.6027   17.3015 C.2       1 UNK         0.0000 
     25 N25         1.8700   50.8457   17.5037 N.pl3     1 UNK         0.0000 
     26 C26         0.1728   47.5433   18.0777 C.2       1 UNK         0.0000 
     27 N27        -0.7498   47.5919   17.1428 N.2       1 UNK         0.0000 
     28 C28        -1.3684   46.4424   16.9511 C.2       1 UNK         0.0000 
     29 C29        -0.9457   45.4024   17.7677 C.2       1 UNK         0.0000 
     30 S30         0.3064   45.9759   18.8211 S.3       1 UNK         0.0000 
     31 C31        -2.4385   46.4172   15.8848 C.3       1 UNK         0.0000 
     32 C32         0.9158   51.8413   20.8685 C.1       1 UNK         0.0000 
     33 N33         0.7597   52.4968   21.8072 N.1       1 UNK         0.0000 
     34 H34         5.5867   55.1257   27.0197 H         1 UNK         0.0000 
     35 H35         3.8943   54.7621   27.3006 H         1 UNK         0.0000 
     36 H36         5.0838   53.4483   27.2183 H         1 UNK         0.0000 
     37 H37         2.4577   54.4964   25.4226 H         1 UNK         0.0000 
     38 H38         2.0837   54.3703   23.0114 H         1 UNK         0.0000 
     39 H39         6.2958   53.8349   22.3766 H         1 UNK         0.0000 
     40 H40         7.1068   53.3103   25.8042 H         1 UNK         0.0000 
     41 H41         7.7693   53.5363   24.1917 H         1 UNK         0.0000 
     42 H42         7.4925   54.9441   25.2416 H         1 UNK         0.0000 
     43 H43         3.1566   54.5526   20.7992 H         1 UNK         0.0000 
     44 H44         4.5707   52.4966   18.2081 H         1 UNK         0.0000 
     45 H45         4.4530   54.1937   18.5341 H         1 UNK         0.0000 
     46 H46        -1.3458   50.4777   18.6748 H         1 UNK         0.0000 
     47 H47        -1.6290   48.8811   19.2833 H         1 UNK         0.0000 
     48 H48        -1.6219   51.3722   20.9957 H         1 UNK         0.0000 
     49 H49        -2.9699   50.3757   20.5614 H         1 UNK         0.0000 
     50 H50        -2.1510   49.8574   22.8710 H         1 UNK         0.0000 
     51 H51        -2.1028   48.4671   21.8209 H         1 UNK         0.0000 
     52 H52         0.2568   50.1677   22.7307 H         1 UNK         0.0000 
     53 H53        -0.0289   48.5082   23.0653 H         1 UNK         0.0000 
     54 H54         0.3984   47.7974   20.8812 H         1 UNK         0.0000 
     55 H55         1.7229   48.8445   21.2749 H         1 UNK         0.0000 
     56 H56         1.9549   49.6667   15.3298 H         1 UNK         0.0000 
     57 H57         2.2714   51.3193   16.7082 H         1 UNK         0.0000 
     58 H58        -1.2927   44.3812   17.8006 H         1 UNK         0.0000 
     59 H59        -2.8993   45.4335   15.7922 H         1 UNK         0.0000 
     60 H60        -2.0392   46.6730   14.9025 H         1 UNK         0.0000 
     61 H61        -3.2414   47.1235   16.0993 H         1 UNK         0.0000 
     62 N62         1.5042   49.1301   16.0573 N.pl3     1 UNK         0.0000 
     63 H63         1.2409   48.1707   15.8866 H         1 UNK         0.0000 
@<TRIPOS>BOND
     1    1    2 1    
     2    1   34 1    
     3    1   35 1    
     4    1   36 1    
     5    2    7 ar   
     6    2    3 ar   
     7    3    4 ar   
     8    3   37 1    
     9    4    5 ar   
    10    4   38 1    
    11    5    6 ar   
    12    5    9 1    
    13    6    7 ar   
    14    6   39 1    
    15    7    8 1    
    16    8   40 1    
    17    8   41 1    
    18    8   42 1    
    19    9   10 am   BACKBONE|DICT|INTERRES
    20    9   43 1    
    21   10   11 2    
    22   10   12 1    
    23   12   13 1    
    24   12   44 1    
    25   12   45 1    
    26   13   14 1    
    27   14   25 1    
    28   14   15 2    
    29   15   16 1    
    30   15   32 1    
    31   16   21 1    
    32   16   17 1    
    33   16   22 1    
    34   17   18 1    
    35   17   46 1    
    36   17   47 1    
    37   18   19 1    
    38   18   48 1    
    39   18   49 1    
    40   19   20 1    
    41   19   50 1    
    42   19   51 1    
    43   20   21 1    
    44   20   52 1    
    45   20   53 1    
    46   21   54 1    
    47   21   55 1    
    48   22   23 1    
    49   22   24 1    
    50   22   26 1    
    51   24   25 1    
    52   24   62 2    
    53   25   57 1    
    54   26   30 1    
    55   26   27 2    
    56   27   28 1    
    57   28   29 2    
    58   28   31 1    
    59   29   30 1    
    60   29   58 1    
    61   31   59 1    
    62   31   60 1    
    63   31   61 1    
    64   32   33 3    
    65   56   62 1    
    66   62   63 1    
@<TRIPOS>SUBSTRUCTURE
     1 UNK         1 GROUP             0       ****    0 ROOT    
