@<TRIPOS>MOLECULE
ZINC59045153_4456
41   43    1
SMALL
USER_CHARGES


@<TRIPOS>ATOM
      1 C1          1.7936   55.2131   28.4413 C.3       1 UNK         0.0000 
      2 C2          2.0943   54.0480   29.3762 C.ar      1 UNK         0.0000 
      3 C3          3.3746   53.4535   29.4828 C.ar      1 UNK         0.0000 
      4 C4          3.6033   52.4974   30.4778 C.ar      1 UNK         0.0000 
      5 C5          2.5730   52.0967   31.3240 C.ar      1 UNK         0.0000 
      6 C6          1.2916   52.6124   31.1640 C.ar      1 UNK         0.0000 
      7 C7          1.0575   53.5878   30.1999 C.ar      1 UNK         0.0000 
      8 F8         -0.1860   54.0987   30.0810 F         1 UNK         0.0000 
      9 N9          4.4790   53.7549   28.6628 N.am      1 UNK         0.0000 
     10 C10         4.4890   53.7295   27.3124 C.2       1 UNK         0.0000 
     11 O11         3.4791   53.5885   26.6242 O.2       1 UNK         0.0000 
     12 C12         5.8588   53.8170   26.6269 C.3       1 UNK         0.0000 
     13 S13         6.0579   55.2212   25.4870 S.3       1 UNK         0.0000 
     14 C14         5.5191   54.5135   23.9491 C.ar      1 UNK         0.0000 
     15 N15         4.5057   53.7001   23.7944 N.2       1 UNK         0.0000 
     16 N16         4.3378   53.4842   22.4305 N.2       1 UNK         0.0000 
     17 C17         5.2378   54.2009   21.7995 C.ar      1 UNK         0.0000 
     18 N18         6.0490   54.8347   22.7198 N.pl3     1 UNK         0.0000 
     19 N19         7.1091   55.6769   22.4822 N.3       1 UNK         0.0000 
     20 C20         5.3170   54.3181   20.3029 C.ar      1 UNK         0.0000 
     21 C21         5.7563   55.4958   19.6826 C.ar      1 UNK         0.0000 
     22 C22         5.8014   55.5927   18.2948 C.ar      1 UNK         0.0000 
     23 C23         5.4061   54.5095   17.5162 C.ar      1 UNK         0.0000 
     24 C24         4.9615   53.3360   18.1172 C.ar      1 UNK         0.0000 
     25 C25         4.9132   53.2421   19.5051 C.ar      1 UNK         0.0000 
     26 Br26        5.4678   54.6358   15.6185 Br        1 UNK         0.0000 
     27 H27         2.6992   55.7114   28.1020 H         1 UNK         0.0000 
     28 H28         1.2256   54.8660   27.5793 H         1 UNK         0.0000 
     29 H29         1.1959   55.9711   28.9498 H         1 UNK         0.0000 
     30 H30         4.5814   52.0530   30.5976 H         1 UNK         0.0000 
     31 H31         2.7603   51.3715   32.1031 H         1 UNK         0.0000 
     32 H32         0.4833   52.2826   31.8041 H         1 UNK         0.0000 
     33 H33         5.3760   53.7661   29.1235 H         1 UNK         0.0000 
     34 H34         6.6475   53.8881   27.3763 H         1 UNK         0.0000 
     35 H35         6.0371   52.8969   26.0831 H         1 UNK         0.0000 
     36 H36         6.9326   56.5892   22.8699 H         1 UNK         0.0000 
     37 H37         7.9902   55.2948   22.8151 H         1 UNK         0.0000 
     38 H38         6.0385   56.3578   20.2657 H         1 UNK         0.0000 
     39 H39         6.1347   56.5064   17.8243 H         1 UNK         0.0000 
     40 H40         4.6596   52.4964   17.5092 H         1 UNK         0.0000 
     41 H41         4.5678   52.3214   19.9532 H         1 UNK         0.0000 
@<TRIPOS>BOND
     1    1    2 1    
     2    1   27 1    
     3    1   28 1    
     4    1   29 1    
     5    2    7 ar   
     6    2    3 ar   
     7    3    4 ar   
     8    3    9 1    
     9    4    5 ar   
    10    4   30 1    
    11    5    6 ar   
    12    5   31 1    
    13    6    7 ar   
    14    6   32 1    
    15    7    8 1    
    16    9   10 am   BACKBONE|DICT|INTERRES
    17    9   33 1    
    18   10   11 2    
    19   10   12 1    
    20   12   13 1    
    21   12   34 1    
    22   12   35 1    
    23   13   14 1    
    24   14   18 ar   
    25   14   15 ar   
    26   15   16 ar   
    27   16   17 ar   
    28   17   18 ar   
    29   17   20 1    
    30   18   19 1    
    31   19   36 1    
    32   19   37 1    
    33   20   25 ar   
    34   20   21 ar   
    35   21   22 ar   
    36   21   38 1    
    37   22   23 ar   
    38   22   39 1    
    39   23   24 ar   
    40   23   26 1    
    41   24   25 ar   
    42   24   40 1    
    43   25   41 1    
@<TRIPOS>SUBSTRUCTURE
     1 UNK         1 GROUP             0       ****    0 ROOT    
