@<TRIPOS>MOLECULE
ZINC66789437_1406
51   55    1
SMALL
USER_CHARGES


@<TRIPOS>ATOM
      1 C1          5.5021   54.4546   20.8342 C.ar      1 UNK         0.0000 
      2 C2          5.8980   54.8069   19.5425 C.ar      1 UNK         0.0000 
      3 C3          7.0294   55.6099   19.3749 C.ar      1 UNK         0.0000 
      4 N4          7.7534   56.0506   20.4412 N.ar      1 UNK         0.0000 
      5 C5          7.3637   55.6966   21.6892 C.ar      1 UNK         0.0000 
      6 C6          6.2401   54.8960   21.9372 C.ar      1 UNK         0.0000 
      7 N7          5.7904   54.4967   23.2067 N.am      1 UNK         0.0000 
      8 C8          6.1362   54.9676   24.4260 C.2       1 UNK         0.0000 
      9 O9          7.1023   55.6966   24.6564 O.2       1 UNK         0.0000 
     10 C10         5.2165   54.5804   25.5566 C.ar      1 UNK         0.0000 
     11 C11         5.6354   54.7600   26.8839 C.ar      1 UNK         0.0000 
     12 C12         4.7368   54.4371   27.9064 C.ar      1 UNK         0.0000 
     13 C13         4.7053   54.4985   29.3229 C.ar      1 UNK         0.0000 
     14 N14         3.5939   54.0050   29.8018 N.2       1 UNK         0.0000 
     15 N15         2.8327   53.6434   28.7494 N.pl3     1 UNK         0.0000 
     16 C16         3.4761   53.9151   27.5510 C.ar      1 UNK         0.0000 
     17 N17         3.0372   53.7282   26.3017 N.ar      1 UNK         0.0000 
     18 C18         3.9142   54.0947   25.3321 C.ar      1 UNK         0.0000 
     19 C19         1.5380   53.0039   28.9938 C.3       1 UNK         0.0000 
     20 C20         0.3717   53.6951   28.2684 C.3       1 UNK         0.0000 
     21 C21        -0.2745   52.6174   27.3843 C.3       1 UNK         0.0000 
     22 C22         0.0938   51.2970   28.0461 C.3       1 UNK         0.0000 
     23 C23         1.5214   51.5447   28.5229 C.3       1 UNK         0.0000 
     24 N24         7.3903   55.9225   18.0543 N.am      1 UNK         0.0000 
     25 C25         8.3297   56.7868   17.6180 C.2       1 UNK         0.0000 
     26 O26         9.0216   57.4982   18.3501 O.2       1 UNK         0.0000 
     27 C27         8.4838   56.8495   16.0860 C.3       1 UNK         0.0000 
     28 C28         8.8106   58.2102   15.4983 C.3       1 UNK         0.0000 
     29 C29         9.8797   57.1354   15.5631 C.3       1 UNK         0.0000 
     30 H30         4.6243   53.8371   20.9615 H         1 UNK         0.0000 
     31 H31         5.3278   54.4562   18.6933 H         1 UNK         0.0000 
     32 H32         7.9864   56.0801   22.4812 H         1 UNK         0.0000 
     33 H33         5.0139   53.8571   23.1895 H         1 UNK         0.0000 
     34 H34         6.6136   55.1543   27.1237 H         1 UNK         0.0000 
     35 H35         5.4745   54.8967   29.9703 H         1 UNK         0.0000 
     36 H36         3.5220   53.9656   24.3341 H         1 UNK         0.0000 
     37 H37         1.3481   53.0625   30.0706 H         1 UNK         0.0000 
     38 H38        -0.3528   54.0663   28.9953 H         1 UNK         0.0000 
     39 H39         0.7026   54.5556   27.6829 H         1 UNK         0.0000 
     40 H40        -1.3507   52.7462   27.2810 H         1 UNK         0.0000 
     41 H41         0.1522   52.6560   26.3804 H         1 UNK         0.0000 
     42 H42        -0.5646   51.0930   28.8930 H         1 UNK         0.0000 
     43 H43         0.0204   50.4484   27.3631 H         1 UNK         0.0000 
     44 H44         2.1939   51.3826   27.6822 H         1 UNK         0.0000 
     45 H45         1.8209   50.8762   29.3187 H         1 UNK         0.0000 
     46 H46         6.8636   55.4389   17.3442 H         1 UNK         0.0000 
     47 H47         7.8436   56.1745   15.5149 H         1 UNK         0.0000 
     48 H48         8.8850   59.0777   16.1575 H         1 UNK         0.0000 
     49 H49         8.3746   58.4693   14.5333 H         1 UNK         0.0000 
     50 H50        10.1930   56.6443   14.6412 H         1 UNK         0.0000 
     51 H51        10.7074   57.2507   16.2642 H         1 UNK         0.0000 
@<TRIPOS>BOND
     1    1    6 ar   
     2    1    2 ar   
     3    1   30 1    
     4    2    3 ar   
     5    2   31 1    
     6    3    4 ar   
     7    3   24 1    
     8    4    5 ar   
     9    5    6 ar   
    10    5   32 1    
    11    6    7 1    
    12    7    8 am   BACKBONE|DICT|INTERRES
    13    7   33 1    
    14    8    9 2    
    15    8   10 1    
    16   10   18 ar   
    17   10   11 ar   
    18   11   12 ar   
    19   11   34 1    
    20   12   16 ar   
    21   12   13 ar   
    22   13   14 ar   
    23   13   35 1    
    24   14   15 ar   
    25   15   16 ar   
    26   15   19 1    
    27   16   17 ar   
    28   17   18 ar   
    29   18   36 1    
    30   19   23 1    
    31   19   20 1    
    32   19   37 1    
    33   20   21 1    
    34   20   38 1    
    35   20   39 1    
    36   21   22 1    
    37   21   40 1    
    38   21   41 1    
    39   22   23 1    
    40   22   42 1    
    41   22   43 1    
    42   23   44 1    
    43   23   45 1    
    44   24   25 am   BACKBONE|DICT|INTERRES
    45   24   46 1    
    46   25   26 2    
    47   25   27 1    
    48   27   29 1    
    49   27   28 1    
    50   27   47 1    
    51   28   29 1    
    52   28   48 1    
    53   28   49 1    
    54   29   50 1    
    55   29   51 1    
@<TRIPOS>SUBSTRUCTURE
     1 UNK         1 GROUP             0       ****    0 ROOT    
