ZINC00995802_3722
                    3D
 Schrodinger Suite 2024-2.
 52 56  0  0  1  0            999 V2000
    1.6276   58.6068   14.2364 C   0  0  0  0  0  0
    2.8291   58.8138   14.9146 C   0  0  0  0  0  0
    3.0699   57.6806   15.6840 C   0  0  0  0  0  0
    2.0537   56.7932   15.4916 O   0  0  0  0  0  0
    1.1819   57.3533   14.6158 C   0  0  0  0  0  0
    4.1648   57.3056   16.6248 C   0  0  0  0  0  0
    5.3296   58.0762   16.6976 C   0  0  0  0  0  0
    6.2860   57.7627   17.6674 C   0  0  0  0  0  0
    5.9843   56.7358   18.5334 N   0  0  0  0  0  0
    4.8268   55.9615   18.3788 C   0  0  0  0  0  0
    3.9332   56.2197   17.4181 N   0  0  0  0  0  0
    4.8818   55.0149   19.4257 C   0  0  0  0  0  0
    5.9531   55.4381   20.2422 C   0  0  0  0  0  0
    6.6827   56.3608   19.6321 N   0  0  0  0  0  0
    6.2497   54.9701   21.5827 C   0  0  0  0  0  0
    7.3735   55.0957   22.0707 O   0  0  0  0  0  0
    5.1611   54.4968   22.2307 N   0  0  0  0  0  0
    5.0065   54.1997   23.5868 C   0  0  0  0  0  0
    3.7914   53.9235   24.2424 C   0  0  0  0  0  0
    3.9566   53.7733   25.6538 C   0  0  0  0  0  0
    5.3087   53.8082   26.0320 C   0  0  0  0  0  0
    6.3239   54.2626   24.7101 S   0  0  0  0  0  0
    5.8815   53.5116   27.3959 C   0  0  0  0  0  0
    5.4252   54.5104   28.4527 C   0  0  0  0  0  0
    3.9737   54.3180   28.9392 C   0  0  0  0  0  0
    2.8543   54.4913   27.8893 C   0  0  0  0  0  0
    2.8701   53.5066   26.6994 C   0  0  0  0  0  0
    2.5023   53.9046   23.5716 C   0  0  0  0  0  0
    1.5044   54.4443   24.0351 O   0  0  0  0  0  0
    2.4737   53.2976   22.3831 N   0  0  0  0  0  0
    7.6043   58.5266   17.7978 C   0  0  0  0  0  0
    7.8349   59.2991   16.7353 F   0  0  0  0  0  0
    7.5656   59.2968   18.8818 F   0  0  0  0  0  0
    8.6301   57.6812   17.9061 F   0  0  0  0  0  0
    1.1414   59.2907   13.5569 H   0  0  0  0  0  0
    3.4490   59.6983   14.8696 H   0  0  0  0  0  0
    0.3135   56.7622   14.3650 H   0  0  0  0  0  0
    5.4697   58.9266   16.0434 H   0  0  0  0  0  0
    4.1565   54.2420   19.6323 H   0  0  0  0  0  0
    4.3092   54.4710   21.6895 H   0  0  0  0  0  0
    6.9715   53.4758   27.3600 H   0  0  0  0  0  0
    5.5743   52.5147   27.7154 H   0  0  0  0  0  0
    5.5724   55.5193   28.0716 H   0  0  0  0  0  0
    6.1025   54.4376   29.2982 H   0  0  0  0  0  0
    3.7905   55.0322   29.7406 H   0  0  0  0  0  0
    3.8809   53.3331   29.3995 H   0  0  0  0  0  0
    2.8457   55.5142   27.5175 H   0  0  0  0  0  0
    1.9008   54.3736   28.4071 H   0  0  0  0  0  0
    2.9908   52.4974   27.0929 H   0  0  0  0  0  0
    1.8734   53.4963   26.2637 H   0  0  0  0  0  0
    1.6336   53.3535   21.8257 H   0  0  0  0  0  0
    3.2364   52.7087   22.0856 H   0  0  0  0  0  0
  1  5  2  0  0  0
  1  2  1  0  0  0
  1 35  1  0  0  0
  2  3  2  0  0  0
  2 36  1  0  0  0
  3  4  1  0  0  0
  3  6  1  0  0  0
  4  5  1  0  0  0
  5 37  1  0  0  0
  6 11  2  0  0  0
  6  7  1  0  0  0
  7  8  2  0  0  0
  7 38  1  0  0  0
  8  9  1  0  0  0
  8 31  1  0  0  0
  9 14  1  0  0  0
  9 10  1  0  0  0
 10 11  1  0  0  0
 10 12  2  0  0  0
 12 13  1  0  0  0
 12 39  1  0  0  0
 13 14  2  0  0  0
 13 15  1  0  0  0
 15 16  2  0  0  0
 15 17  1  0  0  0
 17 18  1  0  0  0
 17 40  1  0  0  0
 18 22  1  0  0  0
 18 19  2  0  0  0
 19 20  1  0  0  0
 19 28  1  0  0  0
 20 27  1  0  0  0
 20 21  2  0  0  0
 21 22  1  0  0  0
 21 23  1  0  0  0
 23 24  1  0  0  0
 23 41  1  0  0  0
 23 42  1  0  0  0
 24 25  1  0  0  0
 24 43  1  0  0  0
 24 44  1  0  0  0
 25 26  1  0  0  0
 25 45  1  0  0  0
 25 46  1  0  0  0
 26 27  1  0  0  0
 26 47  1  0  0  0
 26 48  1  0  0  0
 27 49  1  0  0  0
 27 50  1  0  0  0
 28 29  2  0  0  0
 28 30  1  0  0  0
 30 51  1  0  0  0
 30 52  1  0  0  0
 31 32  1  0  0  0
 31 33  1  0  0  0
 31 34  1  0  0  0
M  END
> <i_i_glide_confnum>
5

> <i_i_glide_lignum>
3723

> <i_i_glide_posenum>
368

> <i_i_glide_rotatable_bonds>
6

> <i_m_Source_File_Index>
1700

> <b_m_subgroup_collapsed>
0

> <r_i_docking_score>
-5.89574

> <r_i_glide_ecoul>
-2.64872

> <r_i_glide_eff_state_penalty>
0

> <r_i_glide_einternal>
5.5132

> <r_i_glide_emodel>
-60.1022

> <r_i_glide_energy>
-45.6472

> <r_i_glide_erotb>
0.339654

> <r_i_glide_esite>
-0.170398

> <r_i_glide_evdw>
-42.9985

> <r_i_glide_gscore>
-5.89574

> <r_i_glide_hbond>
0

> <r_i_glide_ligand_efficiency>
-0.173404

> <r_i_glide_ligand_efficiency_ln>
-1.30253

> <r_i_glide_ligand_efficiency_sa>
-0.561762

> <r_i_glide_lipo>
-2.49436

> <r_i_glide_metal>
0

> <r_i_glide_rewards>
-1.0234

> <s_i_glide_gridfile>
wee1_glide-grid

> <s_m_Source_File>
wee1_decoys_glide_SP.sdf

> <s_m_Source_Path>
/Users/zhangxujun/Desktop

> <s_m_entry_id>
1975

> <s_m_entry_name>
wee1_decoys_glide_SP.1700

> <s_m_subgroup_title>
wee1_decoys_glide_SP

> <s_m_subgroupid>
wee1_decoys_glide_SP


$$$$
