@<TRIPOS>MOLECULE
ZINC33821696_5498
57   59    1
SMALL
USER_CHARGES


@<TRIPOS>ATOM
      1 C1          5.8069   52.9993   27.5659 C.3       1 UNK         0.0000 
      2 C2          4.9644   54.2519   27.8351 C.3       1 UNK         0.0000 
      3 C3          3.5891   54.4117   27.0760 C.3       1 UNK         0.0000 
      4 H4          3.4597   55.4814   26.9456 H         1 UNK         0.0000 
      5 C5          2.3083   53.9411   27.9038 C.3       1 UNK         0.0000 
      6 H6          1.4424   54.1643   27.2757 H         1 UNK         0.0000 
      7 C7          2.3326   52.4455   28.2998 C.3       1 UNK         0.0000 
      8 H8          2.9960   51.8511   27.6807 H         1 UNK         0.0000 
      9 C9          2.9069   52.5573   29.7134 C.2       1 UNK         0.0000 
     10 O10         3.4740   51.6970   30.3819 O.2       1 UNK         0.0000 
     11 O11         2.7859   53.8335   30.1563 O.3       1 UNK         0.0000 
     12 C12         2.0472   54.6564   29.2596 C.3       1 UNK         0.0000 
     13 C13         2.5730   56.0963   29.3386 C.3       1 UNK         0.0000 
     14 C14         0.5767   54.6352   29.7604 C.3       1 UNK         0.0000 
     15 C15         0.9305   51.7832   28.2302 C.2       1 UNK         0.0000 
     16 O16         0.2250   51.6962   29.2402 O.2       1 UNK         0.0000 
     17 N17         0.5194   51.3747   27.0115 N.am      1 UNK         0.0000 
     18 N18        -0.7860   50.8950   26.8857 N.am      1 UNK         0.0000 
     19 C19        -1.6326   51.5614   26.0702 C.2       1 UNK         0.0000 
     20 O20        -1.2880   52.4964   25.3411 O.2       1 UNK         0.0000 
     21 C21        -3.0718   51.0943   26.0666 C.ar      1 UNK         0.0000 
     22 C22        -3.9074   51.4306   24.9913 C.ar      1 UNK         0.0000 
     23 C23        -5.2419   51.0342   24.9813 C.ar      1 UNK         0.0000 
     24 C24        -5.7510   50.2991   26.0486 C.ar      1 UNK         0.0000 
     25 C25        -4.9381   49.9611   27.1273 C.ar      1 UNK         0.0000 
     26 C26        -3.6052   50.3614   27.1401 C.ar      1 UNK         0.0000 
     27 C27         3.5458   53.9595   25.5772 C.2       1 UNK         0.0000 
     28 O28         2.5768   53.2863   25.2167 O.2       1 UNK         0.0000 
     29 C29         4.6306   54.3269   24.5857 C.ar      1 UNK         0.0000 
     30 C30         5.7101   55.1775   24.8787 C.ar      1 UNK         0.0000 
     31 C31         6.6972   55.4319   23.9285 C.ar      1 UNK         0.0000 
     32 C32         6.5873   54.8966   22.6501 C.ar      1 UNK         0.0000 
     33 C33         5.5052   54.0864   22.3234 C.ar      1 UNK         0.0000 
     34 C34         4.5408   53.8002   23.2845 C.ar      1 UNK         0.0000 
     35 Br35        7.8932   55.3163   21.3278 Br        1 UNK         0.0000 
     36 H36         6.7498   53.0474   28.1105 H         1 UNK         0.0000 
     37 H37         5.2959   52.0981   27.9018 H         1 UNK         0.0000 
     38 H38         6.0558   52.8966   26.5123 H         1 UNK         0.0000 
     39 H39         5.5810   55.1377   27.7132 H         1 UNK         0.0000 
     40 H40         4.8255   54.2808   28.9102 H         1 UNK         0.0000 
     41 H41         2.1894   56.7073   28.5217 H         1 UNK         0.0000 
     42 H42         2.3046   56.5902   30.2729 H         1 UNK         0.0000 
     43 H43         3.6512   56.0956   29.2821 H         1 UNK         0.0000 
     44 H44         0.3043   55.5544   30.2780 H         1 UNK         0.0000 
     45 H45        -0.1187   54.4957   28.9345 H         1 UNK         0.0000 
     46 H46         0.3771   53.8382   30.4772 H         1 UNK         0.0000 
     47 H47         1.1123   51.1979   26.2133 H         1 UNK         0.0000 
     48 H48        -0.8846   49.9118   27.1152 H         1 UNK         0.0000 
     49 H49        -3.5293   52.0037   24.1557 H         1 UNK         0.0000 
     50 H50        -5.8796   51.2955   24.1492 H         1 UNK         0.0000 
     51 H51        -6.7862   49.9899   26.0399 H         1 UNK         0.0000 
     52 H52        -5.3380   49.3922   27.9551 H         1 UNK         0.0000 
     53 H53        -2.9971   50.0975   27.9967 H         1 UNK         0.0000 
     54 H54         5.8042   55.6906   25.8141 H         1 UNK         0.0000 
     55 H55         7.5150   56.0958   24.1634 H         1 UNK         0.0000 
     56 H56         5.4140   53.6798   21.3258 H         1 UNK         0.0000 
     57 H57         3.7176   53.1603   22.9967 H         1 UNK         0.0000 
@<TRIPOS>BOND
     1    1    2 1    
     2    1   36 1    
     3    1   37 1    
     4    1   38 1    
     5    2    3 1    
     6    2   39 1    
     7    2   40 1    
     8    3    4 1    
     9    3    5 1    
    10    3   27 1    
    11    5    6 1    
    12    5   12 1    
    13    5    7 1    
    14    7    8 1    
    15    7    9 1    
    16    7   15 1    
    17    9   10 2    
    18    9   11 1    
    19   11   12 1    
    20   12   13 1    
    21   12   14 1    
    22   13   41 1    
    23   13   42 1    
    24   13   43 1    
    25   14   44 1    
    26   14   45 1    
    27   14   46 1    
    28   15   16 2    
    29   15   17 am   BACKBONE|DICT|INTERRES
    30   17   18 1    
    31   17   47 1    
    32   18   19 am   BACKBONE|DICT|INTERRES
    33   18   48 1    
    34   19   20 2    
    35   19   21 1    
    36   21   26 ar   
    37   21   22 ar   
    38   22   23 ar   
    39   22   49 1    
    40   23   24 ar   
    41   23   50 1    
    42   24   25 ar   
    43   24   51 1    
    44   25   26 ar   
    45   25   52 1    
    46   26   53 1    
    47   27   28 2    
    48   27   29 1    
    49   29   34 ar   
    50   29   30 ar   
    51   30   31 ar   
    52   30   54 1    
    53   31   32 ar   
    54   31   55 1    
    55   32   33 ar   
    56   32   35 1    
    57   33   34 ar   
    58   33   56 1    
    59   34   57 1    
@<TRIPOS>SUBSTRUCTURE
     1 UNK         1 GROUP             0       ****    0 ROOT    
