@<TRIPOS>MOLECULE
ZINC19631814_264
56   59    1
SMALL
USER_CHARGES


@<TRIPOS>ATOM
      1 C1         -0.1132   51.4746   23.8414 C.3       1 UNK         0.0000 
      2 C2          0.0287   52.8965   23.2818 C.3       1 UNK         0.0000 
      3 O3          1.3008   53.4406   23.6250 O.3       1 UNK         0.0000 
      4 C4          2.3661   53.2960   22.8029 C.2       1 UNK         0.0000 
      5 O5          2.3044   52.8248   21.6643 O.2       1 UNK         0.0000 
      6 C6          3.6317   53.7657   23.4026 C.2       1 UNK         0.0000 
      7 C7          3.9236   53.8981   24.7950 C.2       1 UNK         0.0000 
      8 C8          5.2664   54.2385   25.0413 C.2       1 UNK         0.0000 
      9 S9          6.1598   54.4964   23.5945 S.3       1 UNK         0.0000 
     10 C10         4.7464   54.1604   22.6314 C.2       1 UNK         0.0000 
     11 N11         4.7265   54.3203   21.2445 N.am      1 UNK         0.0000 
     12 C12         5.6413   54.8967   20.4298 C.2       1 UNK         0.0000 
     13 O13         6.7449   55.3089   20.7905 O.2       1 UNK         0.0000 
     14 C14         5.1623   55.1183   19.0731 C.2       1 UNK         0.0000 
     15 C15         5.3339   56.3565   18.5305 C.2       1 UNK         0.0000 
     16 C16         4.7681   56.7655   17.2422 C.ar      1 UNK         0.0000 
     17 C17         4.8565   58.0560   16.7156 C.ar      1 UNK         0.0000 
     18 C18         4.2227   58.3443   15.5057 C.ar      1 UNK         0.0000 
     19 C19         3.5122   57.3492   14.8265 C.ar      1 UNK         0.0000 
     20 C20         3.4231   56.0553   15.3501 C.ar      1 UNK         0.0000 
     21 C21         4.0482   55.7744   16.5716 C.ar      1 UNK         0.0000 
     22 O22         3.9349   54.5092   17.1370 O.3       1 UNK         0.0000 
     23 C23         4.4679   54.1748   18.2770 C.2       1 UNK         0.0000 
     24 N24         4.3057   52.8968   18.5635 N.pl3     1 UNK         0.0000 
     25 O25         2.7093   55.1025   14.6658 O.3       1 UNK         0.0000 
     26 C26         3.5058   54.1205   14.0138 C.3       1 UNK         0.0000 
     27 C27         5.9361   54.2880   26.4075 C.3       1 UNK         0.0000 
     28 C28         4.8499   54.3803   27.5011 C.3       1 UNK         0.0000 
     29 H29         4.4121   55.3704   27.4814 H         1 UNK         0.0000 
     30 C30         3.7539   53.3376   27.2656 C.3       1 UNK         0.0000 
     31 C31         2.9715   53.5861   25.9624 C.3       1 UNK         0.0000 
     32 C32         5.4894   54.1898   28.8814 C.3       1 UNK         0.0000 
     33 H33        -1.0951   51.0616   23.6104 H         1 UNK         0.0000 
     34 H34         0.6362   50.8055   23.4165 H         1 UNK         0.0000 
     35 H35         0.0054   51.4640   24.9253 H         1 UNK         0.0000 
     36 H36        -0.7475   53.5385   23.6965 H         1 UNK         0.0000 
     37 H37        -0.1287   52.8960   22.2015 H         1 UNK         0.0000 
     38 H38         3.8420   54.0675   20.8214 H         1 UNK         0.0000 
     39 H39         5.8550   57.1170   19.0995 H         1 UNK         0.0000 
     40 H40         5.3908   58.8412   17.2347 H         1 UNK         0.0000 
     41 H41         4.2775   59.3464   15.1032 H         1 UNK         0.0000 
     42 H42         3.0225   57.5827   13.8926 H         1 UNK         0.0000 
     43 H43         3.8320   52.2666   17.9213 H         1 UNK         0.0000 
     44 H44         2.8596   53.4539   13.4425 H         1 UNK         0.0000 
     45 H45         4.2127   54.5747   13.3166 H         1 UNK         0.0000 
     46 H46         4.0629   53.5077   14.7240 H         1 UNK         0.0000 
     47 H47         6.6222   55.1329   26.4792 H         1 UNK         0.0000 
     48 H48         6.5272   53.3802   26.5435 H         1 UNK         0.0000 
     49 H49         3.0554   53.3341   28.1041 H         1 UNK         0.0000 
     50 H50         4.2032   52.3532   27.2908 H         1 UNK         0.0000 
     51 H51         2.3560   52.7094   25.7602 H         1 UNK         0.0000 
     52 H52         2.2798   54.4151   26.1014 H         1 UNK         0.0000 
     53 H53         5.9043   53.1861   28.9759 H         1 UNK         0.0000 
     54 H54         6.3016   54.8965   29.0366 H         1 UNK         0.0000 
     55 H55         4.7629   54.3357   29.6812 H         1 UNK         0.0000 
     56 H56         4.7025   52.4668   19.3931 H         1 UNK         0.0000 
@<TRIPOS>BOND
     1    1    2 1    
     2    1   33 1    
     3    1   34 1    
     4    1   35 1    
     5    2    3 1    
     6    2   36 1    
     7    2   37 1    
     8    3    4 1    
     9    4    5 2    
    10    4    6 1    
    11    6   10 2    
    12    6    7 1    
    13    7   31 1    
    14    7    8 2    
    15    8    9 1    
    16    8   27 1    
    17    9   10 1    
    18   10   11 am   BACKBONE|DICT|INTERRES
    19   11   12 am   BACKBONE|DICT|INTERRES
    20   11   38 1    
    21   12   13 2    
    22   12   14 1    
    23   14   23 1    
    24   14   15 2    
    25   15   16 1    
    26   15   39 1    
    27   16   21 ar   
    28   16   17 ar   
    29   17   18 ar   
    30   17   40 1    
    31   18   19 ar   
    32   18   41 1    
    33   19   20 ar   
    34   19   42 1    
    35   20   21 ar   
    36   20   25 1    
    37   21   22 1    
    38   22   23 1    
    39   23   24 2    
    40   24   43 1    
    41   24   56 1    
    42   25   26 1    
    43   26   44 1    
    44   26   45 1    
    45   26   46 1    
    46   27   28 1    
    47   27   47 1    
    48   27   48 1    
    49   28   29 1    
    50   28   30 1    
    51   28   32 1    
    52   30   31 1    
    53   30   49 1    
    54   30   50 1    
    55   31   51 1    
    56   31   52 1    
    57   32   53 1    
    58   32   54 1    
    59   32   55 1    
@<TRIPOS>SUBSTRUCTURE
     1 UNK         1 GROUP             0       ****    0 ROOT    
