@<TRIPOS>MOLECULE
ZINC67133353_1510
44   47    1
SMALL
USER_CHARGES


@<TRIPOS>ATOM
      1 C1          2.7493   54.0722   23.6144 C.3       1 UNK         0.0000 
      2 C2          4.2711   54.0986   23.6043 C.ar      1 UNK         0.0000 
      3 C3          5.2268   54.2866   24.6209 C.ar      1 UNK         0.0000 
      4 N4          6.4313   54.3649   24.0880 N.2       1 UNK         0.0000 
      5 N5          6.3208   54.1616   22.7340 N.2       1 UNK         0.0000 
      6 N6          5.0294   53.9776   22.4544 N.pl3     1 UNK         0.0000 
      7 C7          4.6355   53.7453   21.1148 C.ar      1 UNK         0.0000 
      8 C8          5.1049   54.6154   20.1226 C.ar      1 UNK         0.0000 
      9 C9          4.7397   54.4558   18.7922 C.ar      1 UNK         0.0000 
     10 C10         3.9058   53.4128   18.4080 C.ar      1 UNK         0.0000 
     11 C11         3.4314   52.4914   19.3689 C.ar      1 UNK         0.0000 
     12 C12         3.8010   52.6413   20.7434 C.ar      1 UNK         0.0000 
     13 N13         3.3968   51.7298   21.6797 N.ar      1 UNK         0.0000 
     14 C14         2.6228   50.6869   21.2964 C.ar      1 UNK         0.0000 
     15 C15         2.2113   50.4826   19.9845 C.ar      1 UNK         0.0000 
     16 C16         2.6144   51.3895   19.0090 C.ar      1 UNK         0.0000 
     17 C17         4.9671   54.5181   26.0131 C.2       1 UNK         0.0000 
     18 O18         5.6611   55.2953   26.6738 O.2       1 UNK         0.0000 
     19 N19         3.9752   53.7523   26.4990 N.am      1 UNK         0.0000 
     20 N20         3.3167   54.1537   27.6561 N.am      1 UNK         0.0000 
     21 C21         3.4260   53.3570   28.7389 C.2       1 UNK         0.0000 
     22 O22         4.3003   52.4969   28.8833 O.2       1 UNK         0.0000 
     23 C23         2.3564   53.5337   29.7931 C.ar      1 UNK         0.0000 
     24 C24         1.5417   54.6769   29.8623 C.ar      1 UNK         0.0000 
     25 C25         0.5246   54.7497   30.8123 C.ar      1 UNK         0.0000 
     26 C26         0.3031   53.6834   31.6797 C.ar      1 UNK         0.0000 
     27 C27         1.1033   52.5486   31.6283 C.ar      1 UNK         0.0000 
     28 C28         2.1384   52.4929   30.7029 C.ar      1 UNK         0.0000 
     29 H29         2.3595   53.0707   23.7944 H         1 UNK         0.0000 
     30 H30         2.3380   54.7177   24.3902 H         1 UNK         0.0000 
     31 H31         2.3244   54.4239   22.6721 H         1 UNK         0.0000 
     32 H32         5.7491   55.4431   20.3840 H         1 UNK         0.0000 
     33 H33         5.1091   55.1475   18.0492 H         1 UNK         0.0000 
     34 H34         3.6340   53.2831   17.3702 H         1 UNK         0.0000 
     35 H35         2.3387   49.9923   22.0738 H         1 UNK         0.0000 
     36 H36         1.6075   49.6271   19.7215 H         1 UNK         0.0000 
     37 H37         2.3439   51.2387   17.9734 H         1 UNK         0.0000 
     38 H38         3.3910   53.1879   25.8979 H         1 UNK         0.0000 
     39 H39         2.4319   54.5765   27.4270 H         1 UNK         0.0000 
     40 H40         1.6827   55.5150   29.1948 H         1 UNK         0.0000 
     41 H41        -0.0954   55.6296   30.8815 H         1 UNK         0.0000 
     42 H42        -0.4948   53.7295   32.4084 H         1 UNK         0.0000 
     43 H43         0.9240   51.7277   32.3100 H         1 UNK         0.0000 
     44 H44         2.7721   51.6245   30.6820 H         1 UNK         0.0000 
@<TRIPOS>BOND
     1    1    2 1    
     2    1   29 1    
     3    1   30 1    
     4    1   31 1    
     5    2    6 ar   
     6    2    3 ar   
     7    3    4 ar   
     8    3   17 1    
     9    4    5 ar   
    10    5    6 ar   
    11    6    7 1    
    12    7   12 ar   
    13    7    8 ar   
    14    8    9 ar   
    15    8   32 1    
    16    9   10 ar   
    17    9   33 1    
    18   10   11 ar   
    19   10   34 1    
    20   11   16 ar   
    21   11   12 ar   
    22   12   13 ar   
    23   13   14 ar   
    24   14   15 ar   
    25   14   35 1    
    26   15   16 ar   
    27   15   36 1    
    28   16   37 1    
    29   17   18 2    
    30   17   19 am   BACKBONE|DICT|INTERRES
    31   19   20 1    
    32   19   38 1    
    33   20   21 am   BACKBONE|DICT|INTERRES
    34   20   39 1    
    35   21   22 2    
    36   21   23 1    
    37   23   28 ar   
    38   23   24 ar   
    39   24   25 ar   
    40   24   40 1    
    41   25   26 ar   
    42   25   41 1    
    43   26   27 ar   
    44   26   42 1    
    45   27   28 ar   
    46   27   43 1    
    47   28   44 1    
@<TRIPOS>SUBSTRUCTURE
     1 UNK         1 GROUP             0       ****    0 ROOT    
