@<TRIPOS>MOLECULE
ZINC33767465_5394
75   79    1
SMALL
USER_CHARGES


@<TRIPOS>ATOM
      1 C1          2.9969   52.2543   17.6737 C.3       1 UNK         0.0000 
      2 C2          3.2069   52.8496   19.0781 C.3       1 UNK         0.0000 
      3 H3          2.7059   53.8159   19.0616 H         1 UNK         0.0000 
      4 C4          4.6922   53.1330   19.3860 C.3       1 UNK         0.0000 
      5 C5          4.8353   53.8998   20.7125 C.3       1 UNK         0.0000 
      6 C6          4.1422   53.1597   21.8751 C.3       1 UNK         0.0000 
      7 C7          2.6727   52.7490   21.5791 C.3       1 UNK         0.0000 
      8 H8          2.1490   53.6895   21.4188 H         1 UNK         0.0000 
      9 C9          2.5661   51.9986   20.2159 C.3       1 UNK         0.0000 
     10 H10         1.5004   51.9676   19.9807 H         1 UNK         0.0000 
     11 C11         3.0675   50.5356   20.3029 C.3       1 UNK         0.0000 
     12 N12         2.0264   52.0707   22.7084 N.am      1 UNK         0.0000 
     13 C13         1.3372   52.6839   23.6916 C.2       1 UNK         0.0000 
     14 O14         1.1306   53.8999   23.7070 O.2       1 UNK         0.0000 
     15 C15         0.8398   51.7799   24.8489 C.3       1 UNK         0.0000 
     16 H16         1.5026   50.9185   24.8827 H         1 UNK         0.0000 
     17 C17        -0.6281   51.3509   24.7043 C.3       1 UNK         0.0000 
     18 C18        -1.6487   52.3562   24.1540 C.2       1 UNK         0.0000 
     19 C19        -2.7802   51.6592   23.9943 C.2       1 UNK         0.0000 
     20 C20        -2.4592   50.2744   24.5237 C.3       1 UNK         0.0000 
     21 H21        -3.0842   49.4667   24.1342 H         1 UNK         0.0000 
     22 O22        -1.0912   50.1723   24.0874 O.3       1 UNK         0.0000 
     23 C23        -2.2543   50.2597   26.0878 C.3       1 UNK         0.0000 
     24 H24        -2.2309   49.2193   26.4234 H         1 UNK         0.0000 
     25 C25        -0.8181   50.8348   26.1131 C.3       1 UNK         0.0000 
     26 H26        -0.1851   49.9701   26.3497 H         1 UNK         0.0000 
     27 C27        -0.2565   51.9631   26.9697 C.2       1 UNK         0.0000 
     28 O28        -0.6275   52.3162   28.0875 O.2       1 UNK         0.0000 
     29 N29         0.7638   52.4348   26.1952 N.am      1 UNK         0.0000 
     30 C30         1.6876   53.4593   26.7094 C.3       1 UNK         0.0000 
     31 C31         2.5643   53.0132   27.8990 C.3       1 UNK         0.0000 
     32 C32         3.5615   54.0969   28.3600 C.3       1 UNK         0.0000 
     33 C33         4.1486   53.7364   29.7264 C.3       1 UNK         0.0000 
     34 C34         4.6808   54.3540   27.3303 C.3       1 UNK         0.0000 
     35 C35        -3.3268   50.9837   26.9558 C.2       1 UNK         0.0000 
     36 O36        -3.7644   52.0923   26.6345 O.2       1 UNK         0.0000 
     37 N37        -3.6955   50.3419   28.0883 N.am      1 UNK         0.0000 
     38 C38        -4.6701   50.7318   29.0281 C.ar      1 UNK         0.0000 
     39 C39        -4.4940   50.2902   30.3402 C.ar      1 UNK         0.0000 
     40 C40        -5.4034   50.6494   31.3336 C.ar      1 UNK         0.0000 
     41 C41        -6.5017   51.4418   31.0079 C.ar      1 UNK         0.0000 
     42 C42        -6.7041   51.8647   29.6947 C.ar      1 UNK         0.0000 
     43 C43        -5.7931   51.5082   28.7046 C.ar      1 UNK         0.0000 
     44 Cl44       -7.6104   51.9143   32.2433 Cl        1 UNK         0.0000 
     45 H45         3.5044   51.2983   17.5567 H         1 UNK         0.0000 
     46 H46         1.9374   52.0973   17.4628 H         1 UNK         0.0000 
     47 H47         3.3910   52.9179   16.9022 H         1 UNK         0.0000 
     48 H48         5.2754   52.2098   19.3922 H         1 UNK         0.0000 
     49 H49         5.1216   53.7300   18.5812 H         1 UNK         0.0000 
     50 H50         5.8919   54.0565   20.9394 H         1 UNK         0.0000 
     51 H51         4.3998   54.8934   20.6078 H         1 UNK         0.0000 
     52 H52         4.7205   52.2607   22.0842 H         1 UNK         0.0000 
     53 H53         4.1852   53.7756   22.7719 H         1 UNK         0.0000 
     54 H54         4.1331   50.4974   20.5208 H         1 UNK         0.0000 
     55 H55         2.9054   49.9969   19.3681 H         1 UNK         0.0000 
     56 H56         2.5522   49.9748   21.0842 H         1 UNK         0.0000 
     57 H57         2.0903   51.0640   22.7175 H         1 UNK         0.0000 
     58 H58        -1.4700   53.4072   23.9913 H         1 UNK         0.0000 
     59 H59        -3.7546   51.9909   23.6728 H         1 UNK         0.0000 
     60 H60         2.3296   53.8112   25.9050 H         1 UNK         0.0000 
     61 H61         1.1101   54.3324   27.0123 H         1 UNK         0.0000 
     62 H62         1.9136   52.7626   28.7344 H         1 UNK         0.0000 
     63 H63         3.1022   52.0966   27.6558 H         1 UNK         0.0000 
     64 H64         3.0125   55.0324   28.4879 H         1 UNK         0.0000 
     65 H65         4.7085   52.8004   29.6805 H         1 UNK         0.0000 
     66 H66         4.8182   54.5176   30.0806 H         1 UNK         0.0000 
     67 H67         3.3713   53.6046   30.4775 H         1 UNK         0.0000 
     68 H68         5.2554   53.4445   27.1337 H         1 UNK         0.0000 
     69 H69         4.2844   54.7054   26.3777 H         1 UNK         0.0000 
     70 H70         5.3794   55.1139   27.6837 H         1 UNK         0.0000 
     71 H71        -3.1145   49.5503   28.3549 H         1 UNK         0.0000 
     72 H72        -3.6359   49.6937   30.6119 H         1 UNK         0.0000 
     73 H73        -5.2380   50.3330   32.3554 H         1 UNK         0.0000 
     74 H74        -7.5668   52.4652   29.4456 H         1 UNK         0.0000 
     75 H75        -5.9726   51.8320   27.6905 H         1 UNK         0.0000 
@<TRIPOS>BOND
     1    1    2 1    
     2    1   45 1    
     3    1   46 1    
     4    1   47 1    
     5    2    3 1    
     6    2    9 1    
     7    2    4 1    
     8    4    5 1    
     9    4   48 1    
    10    4   49 1    
    11    5    6 1    
    12    5   50 1    
    13    5   51 1    
    14    6    7 1    
    15    6   52 1    
    16    6   53 1    
    17    7    8 1    
    18    7    9 1    
    19    7   12 1    
    20    9   10 1    
    21    9   11 1    
    22   11   54 1    
    23   11   55 1    
    24   11   56 1    
    25   12   13 am   BACKBONE|DICT|INTERRES
    26   12   57 1    
    27   13   14 2    
    28   13   15 1    
    29   15   16 1    
    30   15   29 1    
    31   15   17 1    
    32   17   22 1    
    33   17   25 1    
    34   17   18 1    
    35   18   19 2    
    36   18   58 1    
    37   19   20 1    
    38   19   59 1    
    39   20   21 1    
    40   20   22 1    
    41   20   23 1    
    42   23   24 1    
    43   23   25 1    
    44   23   35 1    
    45   25   26 1    
    46   25   27 1    
    47   27   28 2    
    48   27   29 am   BACKBONE|DICT|INTERRES
    49   29   30 1    
    50   30   31 1    
    51   30   60 1    
    52   30   61 1    
    53   31   32 1    
    54   31   62 1    
    55   31   63 1    
    56   32   33 1    
    57   32   34 1    
    58   32   64 1    
    59   33   65 1    
    60   33   66 1    
    61   33   67 1    
    62   34   68 1    
    63   34   69 1    
    64   34   70 1    
    65   35   36 2    
    66   35   37 am   BACKBONE|DICT|INTERRES
    67   37   38 1    
    68   37   71 1    
    69   38   43 ar   
    70   38   39 ar   
    71   39   40 ar   
    72   39   72 1    
    73   40   41 ar   
    74   40   73 1    
    75   41   42 ar   
    76   41   44 1    
    77   42   43 ar   
    78   42   74 1    
    79   43   75 1    
@<TRIPOS>SUBSTRUCTURE
     1 UNK         1 GROUP             0       ****    0 ROOT    
