ZINC26817032_448
                    3D
 Schrodinger Suite 2024-2.
 60 66  0  0  1  0            999 V2000
   -3.1690   51.4610   19.2767 C   0  0  0  0  0  0
   -2.6264   50.5222   20.3393 C   0  0  0  0  0  0
   -2.8023   49.1378   20.2172 C   0  0  0  0  0  0
   -2.2552   48.2697   21.1640 C   0  0  0  0  0  0
   -1.5273   48.8042   22.2259 C   0  0  0  0  0  0
   -1.3536   50.1689   22.3707 C   0  0  0  0  0  0
   -1.9139   51.0382   21.4287 C   0  0  0  0  0  0
   -0.4562   50.4028   23.5655 C   0  0  1  0  0  0
    0.8974   51.0938   23.3100 C   0  0  2  0  0  0
    1.6268   50.7063   24.0294 H   0  0  0  0  0  0
    0.5015   52.4938   23.4807 C   0  0  1  0  0  0
   -0.2460   52.8926   22.7911 H   0  0  0  0  0  0
   -0.1816   52.4634   24.8384 C   0  0  1  0  0  0
   -0.8698   53.2987   24.9361 H   0  0  0  0  0  0
   -0.9801   51.2323   24.6834 N   0  0  0  0  0  0
    0.8194   52.4956   26.0249 C   0  0  0  0  0  0
    0.2553   52.4097   27.4249 C   0  0  0  0  0  0
   -0.5224   51.4187   28.0002 C   0  0  0  0  0  0
   -0.7366   51.6968   29.3255 N   0  0  0  0  0  0
   -1.2649   51.0797   29.9318 H   0  0  0  0  0  0
   -0.0955   52.8665   29.6649 C   0  0  0  0  0  0
    0.5362   53.3448   28.4801 C   0  0  0  0  0  0
    1.2790   54.5369   28.5465 C   0  0  0  0  0  0
    1.3443   55.2333   29.7499 C   0  0  0  0  0  0
    0.7000   54.7479   30.8818 C   0  0  0  0  0  0
   -0.0099   53.5470   30.8797 C   0  0  0  0  0  0
    1.7682   53.2069   23.0945 C   0  0  0  0  0  0
    2.1429   54.2834   23.5548 O   0  0  0  0  0  0
    2.2927   52.4353   22.0770 N   0  0  0  0  0  0
    1.6733   51.2007   22.0144 C   0  0  0  0  0  0
    1.7809   50.2999   21.1825 O   0  0  0  0  0  0
    3.3265   52.8748   21.1966 C   0  0  0  0  0  0
    4.3599   53.7129   21.6570 C   0  0  0  0  0  0
    5.3340   54.1861   20.7850 C   0  0  0  0  0  0
    5.3038   53.8129   19.4471 C   0  0  0  0  0  0
    4.3047   52.9701   18.9730 C   0  0  0  0  0  0
    3.3211   52.5044   19.8398 C   0  0  0  0  0  0
    6.2586   54.2660   18.6041 F   0  0  0  0  0  0
   -0.2783   48.9697   24.1206 C   0  0  0  0  0  0
    0.3045   48.6589   25.1555 O   0  0  0  0  0  0
   -0.8964   48.1402   23.2637 N   0  0  0  0  0  0
   -2.3713   52.1187   18.9265 H   0  0  0  0  0  0
   -3.5542   50.9218   18.4085 H   0  0  0  0  0  0
   -3.9566   52.0927   19.6803 H   0  0  0  0  0  0
   -3.3499   48.7287   19.3804 H   0  0  0  0  0  0
   -2.3907   47.2039   21.0573 H   0  0  0  0  0  0
   -1.7797   52.1044   21.5079 H   0  0  0  0  0  0
   -0.9002   50.7076   25.5452 H   0  0  0  0  0  0
    1.4105   53.4064   25.9350 H   0  0  0  0  0  0
    1.5414   51.6968   25.9267 H   0  0  0  0  0  0
   -0.9240   50.4985   27.5934 H   0  0  0  0  0  0
    1.7834   54.9216   27.6749 H   0  0  0  0  0  0
    1.8911   56.1652   29.8048 H   0  0  0  0  0  0
    0.7476   55.3161   31.7987 H   0  0  0  0  0  0
   -0.4949   53.1799   31.7735 H   0  0  0  0  0  0
    4.4233   54.0067   22.6945 H   0  0  0  0  0  0
    6.1187   54.8362   21.1445 H   0  0  0  0  0  0
    4.3023   52.6631   17.9376 H   0  0  0  0  0  0
    2.5508   51.8677   19.4314 H   0  0  0  0  0  0
   -0.9344   47.1449   23.4175 H   0  0  0  0  0  0
  1  2  1  0  0  0
  1 42  1  0  0  0
  1 43  1  0  0  0
  1 44  1  0  0  0
  2  7  2  0  0  0
  2  3  1  0  0  0
  3  4  2  0  0  0
  3 45  1  0  0  0
  4  5  1  0  0  0
  4 46  1  0  0  0
  5 41  1  0  0  0
  5  6  2  0  0  0
  6  7  1  0  0  0
  6  8  1  0  0  0
  7 47  1  0  0  0
  8 15  1  0  0  0
  8  9  1  0  0  0
  8 39  1  0  0  0
  9 10  1  0  0  0
  9 30  1  0  0  0
  9 11  1  0  0  0
 11 12  1  0  0  0
 11 13  1  0  0  0
 11 27  1  0  0  0
 13 14  1  0  0  0
 13 15  1  0  0  0
 13 16  1  0  0  0
 15 48  1  0  0  0
 16 17  1  0  0  0
 16 49  1  0  0  0
 16 50  1  0  0  0
 17 22  1  0  0  0
 17 18  2  0  0  0
 18 19  1  0  0  0
 18 51  1  0  0  0
 19 20  1  0  0  0
 19 21  1  0  0  0
 21 26  2  0  0  0
 21 22  1  0  0  0
 22 23  2  0  0  0
 23 24  1  0  0  0
 23 52  1  0  0  0
 24 25  2  0  0  0
 24 53  1  0  0  0
 25 26  1  0  0  0
 25 54  1  0  0  0
 26 55  1  0  0  0
 27 28  2  0  0  0
 27 29  1  0  0  0
 29 30  1  0  0  0
 29 32  1  0  0  0
 30 31  2  0  0  0
 32 37  2  0  0  0
 32 33  1  0  0  0
 33 34  2  0  0  0
 33 56  1  0  0  0
 34 35  1  0  0  0
 34 57  1  0  0  0
 35 36  2  0  0  0
 35 38  1  0  0  0
 36 37  1  0  0  0
 36 58  1  0  0  0
 37 59  1  0  0  0
 39 40  2  0  0  0
 39 41  1  0  0  0
 41 60  1  0  0  0
M  END
> <i_i_glide_confnum>
18

> <i_i_glide_lignum>
449

> <i_i_glide_posenum>
339

> <i_i_glide_rotatable_bonds>
3

> <i_m_Source_File_Index>
3194

> <b_m_subgroup_collapsed>
0

> <r_i_docking_score>
-4.30054

> <r_i_glide_ecoul>
-0.537262

> <r_i_glide_eff_state_penalty>
0

> <r_i_glide_einternal>
4.5912

> <r_i_glide_emodel>
-53.1579

> <r_i_glide_energy>
-43.8586

> <r_i_glide_erotb>
0.250002

> <r_i_glide_esite>
-0.098916

> <r_i_glide_evdw>
-43.3214

> <r_i_glide_gscore>
-4.30054

> <r_i_glide_hbond>
0

> <r_i_glide_ligand_efficiency>
-0.116231

> <r_i_glide_ligand_efficiency_ln>
-0.932687

> <r_i_glide_ligand_efficiency_sa>
-0.387307

> <r_i_glide_lipo>
-1.68777

> <r_i_glide_metal>
0

> <r_i_glide_rewards>
-0.517197

> <s_i_glide_gridfile>
wee1_glide-grid

> <s_m_Source_File>
wee1_decoys_glide_SP.sdf

> <s_m_Source_Path>
/Users/zhangxujun/Desktop

> <s_m_entry_id>
3469

> <s_m_entry_name>
wee1_decoys_glide_SP.3194

> <s_m_subgroup_title>
wee1_decoys_glide_SP

> <s_m_subgroupid>
wee1_decoys_glide_SP


$$$$
