@<TRIPOS>MOLECULE
ZINC35871554_5245
70   74    1
SMALL
USER_CHARGES


@<TRIPOS>ATOM
      1 C1          1.3306   52.4872   29.4804 C.3       1 UNK         0.0000 
      2 C2          1.5521   52.8389   27.9962 C.3       1 UNK         0.0000 
      3 H3          0.8945   53.6948   27.8157 H         1 UNK         0.0000 
      4 C4          2.9774   53.3217   27.6479 C.ar      1 UNK         0.0000 
      5 C5          4.0545   53.1758   28.5377 C.ar      1 UNK         0.0000 
      6 C6          5.3214   53.6463   28.1980 C.ar      1 UNK         0.0000 
      7 C7          5.5231   54.2713   26.9714 C.ar      1 UNK         0.0000 
      8 C8          4.4647   54.4384   26.0837 C.ar      1 UNK         0.0000 
      9 C9          3.1997   53.9686   26.4237 C.ar      1 UNK         0.0000 
     10 N10         1.1024   51.7103   27.1675 N.am      1 UNK         0.0000 
     11 C11         0.5241   51.8072   25.9548 C.2       1 UNK         0.0000 
     12 O12         0.2691   52.8885   25.4247 O.2       1 UNK         0.0000 
     13 C13         0.1850   50.4919   25.2093 C.3       1 UNK         0.0000 
     14 H14         0.8796   49.7244   25.5587 H         1 UNK         0.0000 
     15 C15        -1.2471   50.0967   25.5813 C.3       1 UNK         0.0000 
     16 C16        -1.6725   48.8682   24.7931 C.ar      1 UNK         0.0000 
     17 C17        -2.6566   48.0300   25.3267 C.ar      1 UNK         0.0000 
     18 C18        -3.1878   46.9637   24.6018 C.ar      1 UNK         0.0000 
     19 C19        -2.7042   46.7236   23.3170 C.ar      1 UNK         0.0000 
     20 C20        -1.6881   47.5158   22.7892 C.ar      1 UNK         0.0000 
     21 C21        -1.1486   48.6026   23.5017 C.ar      1 UNK         0.0000 
     22 N22        -0.0327   49.3224   23.0159 N.pl3     1 UNK         0.0000 
     23 C23         0.2924   50.6272   23.6548 C.3       1 UNK         0.0000 
     24 H24        -0.5342   51.2583   23.3178 H         1 UNK         0.0000 
     25 C25         1.6472   51.2540   23.2154 C.3       1 UNK         0.0000 
     26 N26         1.8509   51.2605   21.6875 N.4       1 UNK         0.0000 
     27 C27         1.7082   49.7966   21.2295 C.3       1 UNK         0.0000 
     28 C28         0.2859   49.3196   21.5716 C.3       1 UNK         0.0000 
     29 C29         3.2246   51.8742   21.2610 C.3       1 UNK         0.0000 
     30 C30         3.2060   52.1442   19.7323 C.3       1 UNK         0.0000 
     31 C31         4.4565   52.8969   19.2356 C.3       1 UNK         0.0000 
     32 C32         4.7054   54.1963   20.0120 C.3       1 UNK         0.0000 
     33 C33         4.7727   53.9425   21.5250 C.3       1 UNK         0.0000 
     34 C34         3.5344   53.1886   22.0432 C.3       1 UNK         0.0000 
     35 C35        -4.2905   46.1025   25.2142 C.3       1 UNK         0.0000 
     36 F36        -4.8935   45.3402   24.2998 F         1 UNK         0.0000 
     37 F37        -3.7482   45.2967   26.1252 F         1 UNK         0.0000 
     38 F38        -5.2154   46.8631   25.8010 F         1 UNK         0.0000 
     39 H39         1.5890   53.3236   30.1305 H         1 UNK         0.0000 
     40 H40         0.2846   52.2409   29.6737 H         1 UNK         0.0000 
     41 H41         1.9237   51.6246   29.7841 H         1 UNK         0.0000 
     42 H42         3.9316   52.6929   29.4957 H         1 UNK         0.0000 
     43 H43         6.1494   53.5259   28.8814 H         1 UNK         0.0000 
     44 H44         6.5067   54.6325   26.7111 H         1 UNK         0.0000 
     45 H45         4.6233   54.9291   25.1356 H         1 UNK         0.0000 
     46 H46         2.3917   54.1148   25.7261 H         1 UNK         0.0000 
     47 H47         1.2664   50.7902   27.5463 H         1 UNK         0.0000 
     48 H48        -1.3445   49.9131   26.6539 H         1 UNK         0.0000 
     49 H49        -1.9465   50.8913   25.3108 H         1 UNK         0.0000 
     50 H50        -3.0310   48.2315   26.3228 H         1 UNK         0.0000 
     51 H51        -3.0972   45.9127   22.7211 H         1 UNK         0.0000 
     52 H52        -1.3332   47.2434   21.8100 H         1 UNK         0.0000 
     53 H53         1.6385   52.3078   23.4818 H         1 UNK         0.0000 
     54 H54         2.4963   50.7288   23.6516 H         1 UNK         0.0000 
     55 H55         2.4935   49.2015   21.7026 H         1 UNK         0.0000 
     56 H56         1.8351   49.7715   20.1476 H         1 UNK         0.0000 
     57 H57         0.2234   48.3187   21.1526 H         1 UNK         0.0000 
     58 H58        -0.4422   49.9598   21.0708 H         1 UNK         0.0000 
     59 H59         4.0317   51.1666   21.4663 H         1 UNK         0.0000 
     60 H60         3.0661   51.2326   19.1524 H         1 UNK         0.0000 
     61 H61         2.3323   52.7550   19.4952 H         1 UNK         0.0000 
     62 H62         5.3293   52.2507   19.3326 H         1 UNK         0.0000 
     63 H63         4.3646   53.1056   18.1691 H         1 UNK         0.0000 
     64 H64         5.6273   54.6670   19.6683 H         1 UNK         0.0000 
     65 H65         3.9019   54.8970   19.7924 H         1 UNK         0.0000 
     66 H66         5.6666   53.3651   21.7606 H         1 UNK         0.0000 
     67 H67         4.8780   54.8899   22.0538 H         1 UNK         0.0000 
     68 H68         2.6767   53.8581   21.9503 H         1 UNK         0.0000 
     69 H69         3.6377   53.0129   23.1138 H         1 UNK         0.0000 
     70 H70         1.1187   51.8064   21.2537 H         1 UNK         0.0000 
@<TRIPOS>BOND
     1    1    2 1    
     2    1   39 1    
     3    1   40 1    
     4    1   41 1    
     5    2    3 1    
     6    2    4 1    
     7    2   10 1    
     8    4    9 ar   
     9    4    5 ar   
    10    5    6 ar   
    11    5   42 1    
    12    6    7 ar   
    13    6   43 1    
    14    7    8 ar   
    15    7   44 1    
    16    8    9 ar   
    17    8   45 1    
    18    9   46 1    
    19   10   11 am   BACKBONE|DICT|INTERRES
    20   10   47 1    
    21   11   12 2    
    22   11   13 1    
    23   13   14 1    
    24   13   23 1    
    25   13   15 1    
    26   15   16 1    
    27   15   48 1    
    28   15   49 1    
    29   16   21 ar   
    30   16   17 ar   
    31   17   18 ar   
    32   17   50 1    
    33   18   19 ar   
    34   18   35 1    
    35   19   20 ar   
    36   19   51 1    
    37   20   21 ar   
    38   20   52 1    
    39   21   22 1    
    40   22   28 1    
    41   22   23 1    
    42   23   24 1    
    43   23   25 1    
    44   25   26 1    
    45   25   53 1    
    46   25   54 1    
    47   26   27 1    
    48   26   29 1    
    49   26   70 1    
    50   27   28 1    
    51   27   55 1    
    52   27   56 1    
    53   28   57 1    
    54   28   58 1    
    55   29   34 1    
    56   29   30 1    
    57   29   59 1    
    58   30   31 1    
    59   30   60 1    
    60   30   61 1    
    61   31   32 1    
    62   31   62 1    
    63   31   63 1    
    64   32   33 1    
    65   32   64 1    
    66   32   65 1    
    67   33   34 1    
    68   33   66 1    
    69   33   67 1    
    70   34   68 1    
    71   34   69 1    
    72   35   36 1    
    73   35   37 1    
    74   35   38 1    
@<TRIPOS>SUBSTRUCTURE
     1 UNK         1 GROUP             0       ****    0 ROOT    
