@<TRIPOS>MOLECULE
ZINC36844753_5509
45   47    1
SMALL
USER_CHARGES


@<TRIPOS>ATOM
      1 C1          1.8830   51.7822   28.8810 C.ar      1 UNK         0.0000 
      2 C2          0.6937   52.2809   29.4083 C.ar      1 UNK         0.0000 
      3 C3          0.6007   53.6261   29.7603 C.ar      1 UNK         0.0000 
      4 C4          1.6930   54.4753   29.5770 C.ar      1 UNK         0.0000 
      5 C5          2.8952   53.9858   29.0495 C.ar      1 UNK         0.0000 
      6 C6          2.9815   52.6254   28.7116 C.ar      1 UNK         0.0000 
      7 O7          3.9223   54.8967   28.8779 O.3       1 UNK         0.0000 
      8 C8          5.2209   54.5068   28.4036 C.3       1 UNK         0.0000 
      9 C9          5.2925   54.3774   26.8677 C.2       1 UNK         0.0000 
     10 O10         6.4006   54.2616   26.3423 O.2       1 UNK         0.0000 
     11 N11         4.1187   54.3578   26.1997 N.am      1 UNK         0.0000 
     12 C12         3.8760   54.0800   24.8438 C.ar      1 UNK         0.0000 
     13 C13         4.8189   54.2439   23.8170 C.ar      1 UNK         0.0000 
     14 C14         4.4997   53.8813   22.5071 C.ar      1 UNK         0.0000 
     15 C15         3.2498   53.3360   22.2129 C.ar      1 UNK         0.0000 
     16 C16         2.3051   53.1630   23.2294 C.ar      1 UNK         0.0000 
     17 C17         2.6149   53.5590   24.5347 C.ar      1 UNK         0.0000 
     18 S18         0.7130   52.4027   22.8917 S.o2      1 UNK         0.0000 
     19 O19        -0.2140   53.2209   23.6835 O.2       1 UNK         0.0000 
     20 O20         0.5564   52.4977   21.4371 O.2       1 UNK         0.0000 
     21 N21         1.1375   50.8064   23.4934 N.2       1 UNK         0.0000 
     22 C22         0.2729   50.1847   24.1770 C.2       1 UNK         0.0000 
     23 C23        -1.1132   50.5995   24.6702 C.3       1 UNK         0.0000 
     24 C24        -1.7031   49.3148   25.2474 C.3       1 UNK         0.0000 
     25 C25        -0.4899   48.5171   25.6811 C.3       1 UNK         0.0000 
     26 N26         0.4387   48.8970   24.6373 N.pl3     1 UNK         0.0000 
     27 I27         1.5044   56.4968   30.0985 I         1 UNK         0.0000 
     28 H28         1.9522   50.7413   28.6007 H         1 UNK         0.0000 
     29 H29        -0.1549   51.6247   29.5460 H         1 UNK         0.0000 
     30 H30        -0.3215   54.0099   30.1712 H         1 UNK         0.0000 
     31 H31         3.8857   52.2078   28.2961 H         1 UNK         0.0000 
     32 H32         5.9044   55.2968   28.7087 H         1 UNK         0.0000 
     33 H33         5.5718   53.5912   28.8810 H         1 UNK         0.0000 
     34 H34         3.2963   54.4311   26.7803 H         1 UNK         0.0000 
     35 H35         5.7971   54.6546   24.0143 H         1 UNK         0.0000 
     36 H36         5.2268   54.0122   21.7192 H         1 UNK         0.0000 
     37 H37         3.0211   53.0461   21.1968 H         1 UNK         0.0000 
     38 H38         1.8812   53.4117   25.3153 H         1 UNK         0.0000 
     39 H39        -1.0197   51.3644   25.4422 H         1 UNK         0.0000 
     40 H40        -1.7324   50.9898   23.8624 H         1 UNK         0.0000 
     41 H41        -2.3890   49.4756   26.0809 H         1 UNK         0.0000 
     42 H42        -2.2601   48.7708   24.4815 H         1 UNK         0.0000 
     43 H43        -0.6672   47.4423   25.6816 H         1 UNK         0.0000 
     44 H44        -0.0944   48.8571   26.6400 H         1 UNK         0.0000 
     45 H45         1.2951   48.3530   24.6500 H         1 UNK         0.0000 
@<TRIPOS>BOND
     1    1    6 ar   
     2    1    2 ar   
     3    1   28 1    
     4    2    3 ar   
     5    2   29 1    
     6    3    4 ar   
     7    3   30 1    
     8    4    5 ar   
     9    4   27 1    
    10    5    6 ar   
    11    5    7 1    
    12    6   31 1    
    13    7    8 1    
    14    8    9 1    
    15    8   32 1    
    16    8   33 1    
    17    9   10 2    
    18    9   11 am   BACKBONE|DICT|INTERRES
    19   11   12 1    
    20   11   34 1    
    21   12   17 ar   
    22   12   13 ar   
    23   13   14 ar   
    24   13   35 1    
    25   14   15 ar   
    26   14   36 1    
    27   15   16 ar   
    28   15   37 1    
    29   16   17 ar   
    30   16   18 1    
    31   17   38 1    
    32   18   19 2    
    33   18   20 2    
    34   18   21 1    
    35   21   22 2    
    36   22   26 1    
    37   22   23 1    
    38   23   24 1    
    39   23   39 1    
    40   23   40 1    
    41   24   25 1    
    42   24   41 1    
    43   24   42 1    
    44   25   26 1    
    45   25   43 1    
    46   25   44 1    
    47   26   45 1    
@<TRIPOS>SUBSTRUCTURE
     1 UNK         1 GROUP             0       ****    0 ROOT    
