@<TRIPOS>MOLECULE
ZINC39425997_4400
56   59    1
SMALL
USER_CHARGES


@<TRIPOS>ATOM
      1 C1          6.0781   53.2528   28.0138 C.3       1 UNK         0.0000 
      2 C2          5.0359   54.3590   27.8075 C.3       1 UNK         0.0000 
      3 C3          4.3654   54.2477   26.4245 C.3       1 UNK         0.0000 
      4 S4          3.8900   54.5150   29.2229 S.3       1 UNK         0.0000 
      5 C5          2.6835   53.3197   28.7863 C.2       1 UNK         0.0000 
      6 N6          2.8590   52.0287   28.8913 N.2       1 UNK         0.0000 
      7 N7          1.7549   51.2968   28.4817 N.2       1 UNK         0.0000 
      8 C8          0.7586   52.0581   28.0966 C.2       1 UNK         0.0000 
      9 S9          1.1084   53.7598   28.1877 S.3       1 UNK         0.0000 
     10 N10        -0.5133   51.5948   27.7813 N.pl3     1 UNK         0.0000 
     11 C11        -0.7837   51.1546   26.4701 C.2       1 UNK         0.0000 
     12 C12        -1.9620   50.5203   26.1819 C.2       1 UNK         0.0000 
     13 C13        -3.1355   50.4932   27.1965 C.3       1 UNK         0.0000 
     14 H14        -3.4970   49.4615   27.2187 H         1 UNK         0.0000 
     15 C15        -2.6775   50.8967   28.5912 C.2       1 UNK         0.0000 
     16 C16        -1.4418   51.4025   28.8223 C.2       1 UNK         0.0000 
     17 N17        -0.9892   51.6967   30.0959 N.pl3     1 UNK         0.0000 
     18 C18        -3.6169   50.6508   29.6449 C.1       1 UNK         0.0000 
     19 N19        -4.4356   50.4967   30.4505 N.1       1 UNK         0.0000 
     20 C20        -4.3532   51.2983   26.7455 C.ar      1 UNK         0.0000 
     21 C21        -5.6597   50.8851   27.0361 C.ar      1 UNK         0.0000 
     22 C22        -6.7492   51.6171   26.5562 C.ar      1 UNK         0.0000 
     23 C23        -6.5374   52.7531   25.7715 C.ar      1 UNK         0.0000 
     24 C24        -5.2331   53.1612   25.4944 C.ar      1 UNK         0.0000 
     25 C25        -4.1554   52.4620   26.0042 C.ar      1 UNK         0.0000 
     26 Cl26       -4.8954   54.4967   24.4817 Cl        1 UNK         0.0000 
     27 C27        -2.2268   49.9088   24.8520 C.2       1 UNK         0.0000 
     28 O28        -3.3425   49.5219   24.5052 O.2       1 UNK         0.0000 
     29 C29        -1.0805   49.9154   23.8316 C.3       1 UNK         0.0000 
     30 C30         0.3255   50.0193   24.4663 C.3       1 UNK         0.0000 
     31 C31         0.3194   51.2699   25.3906 C.3       1 UNK         0.0000 
     32 C32         1.3292   50.2500   23.3167 C.3       1 UNK         0.0000 
     33 C33         0.6435   48.7386   25.2827 C.3       1 UNK         0.0000 
     34 H34         6.7452   53.1606   27.1561 H         1 UNK         0.0000 
     35 H35         6.7020   53.4615   28.8817 H         1 UNK         0.0000 
     36 H36         5.5989   52.2880   28.1695 H         1 UNK         0.0000 
     37 H37         5.5888   55.2972   27.7999 H         1 UNK         0.0000 
     38 H38         5.1031   54.3102   25.6237 H         1 UNK         0.0000 
     39 H39         3.8420   53.2989   26.3019 H         1 UNK         0.0000 
     40 H40         3.6476   55.0530   26.2675 H         1 UNK         0.0000 
     41 H41        -1.5048   51.4129   30.9253 H         1 UNK         0.0000 
     42 H42        -0.0507   52.0329   30.2454 H         1 UNK         0.0000 
     43 H43        -5.8308   49.9926   27.6213 H         1 UNK         0.0000 
     44 H44        -7.7553   51.2905   26.7745 H         1 UNK         0.0000 
     45 H45        -7.3768   53.3022   25.3706 H         1 UNK         0.0000 
     46 H46        -3.1568   52.8053   25.7768 H         1 UNK         0.0000 
     47 H47        -1.2493   50.8036   23.2222 H         1 UNK         0.0000 
     48 H48        -1.1814   49.0525   23.1730 H         1 UNK         0.0000 
     49 H49         0.1577   52.1973   24.8392 H         1 UNK         0.0000 
     50 H50         1.3182   51.2968   25.8123 H         1 UNK         0.0000 
     51 H51         1.3203   49.4177   22.6117 H         1 UNK         0.0000 
     52 H52         1.1090   51.1578   22.7536 H         1 UNK         0.0000 
     53 H53         2.3489   50.3360   23.6866 H         1 UNK         0.0000 
     54 H54         0.7044   47.8638   24.6358 H         1 UNK         0.0000 
     55 H55         1.5956   48.8315   25.8014 H         1 UNK         0.0000 
     56 H56        -0.0964   48.5080   26.0501 H         1 UNK         0.0000 
@<TRIPOS>BOND
     1    1    2 1    
     2    1   34 1    
     3    1   35 1    
     4    1   36 1    
     5    2    3 1    
     6    2    4 1    
     7    2   37 1    
     8    3   38 1    
     9    3   39 1    
    10    3   40 1    
    11    4    5 1    
    12    5    9 1    
    13    5    6 2    
    14    6    7 1    
    15    7    8 2    
    16    8    9 1    
    17    8   10 1    
    18   10   16 1    
    19   10   11 1    
    20   11   31 1    
    21   11   12 2    
    22   12   13 1    
    23   12   27 1    
    24   13   14 1    
    25   13   15 1    
    26   13   20 1    
    27   15   16 2    
    28   15   18 1    
    29   16   17 1    
    30   17   41 1    
    31   17   42 1    
    32   18   19 3    
    33   20   25 ar   
    34   20   21 ar   
    35   21   22 ar   
    36   21   43 1    
    37   22   23 ar   
    38   22   44 1    
    39   23   24 ar   
    40   23   45 1    
    41   24   25 ar   
    42   24   26 1    
    43   25   46 1    
    44   27   28 2    
    45   27   29 1    
    46   29   30 1    
    47   29   47 1    
    48   29   48 1    
    49   30   31 1    
    50   30   32 1    
    51   30   33 1    
    52   31   49 1    
    53   31   50 1    
    54   32   51 1    
    55   32   52 1    
    56   32   53 1    
    57   33   54 1    
    58   33   55 1    
    59   33   56 1    
@<TRIPOS>SUBSTRUCTURE
     1 UNK         1 GROUP             0       ****    0 ROOT    
