@<TRIPOS>MOLECULE
ZINC24141440_3974
64   67    1
SMALL
USER_CHARGES


@<TRIPOS>ATOM
      1 C1          7.0321   53.5672   28.2848 C.3       1 UNK         0.0000 
      2 C2          6.3323   54.8372   27.8008 C.3       1 UNK         0.0000 
      3 C3          5.2503   54.5175   26.8082 C.2       1 UNK         0.0000 
      4 C4          5.3192   54.4932   25.4072 C.2       1 UNK         0.0000 
      5 C5          4.0843   54.0936   24.8455 C.ar      1 UNK         0.0000 
      6 C6          3.1095   53.8552   25.8009 C.ar      1 UNK         0.0000 
      7 S7          3.6707   54.0953   27.4006 S.3       1 UNK         0.0000 
      8 N8          1.8359   53.4704   25.5528 N.2       1 UNK         0.0000 
      9 C9          1.4772   53.3349   24.3253 C.ar      1 UNK         0.0000 
     10 N10         2.4069   53.4923   23.2911 N.pl3     1 UNK         0.0000 
     11 C11         3.7432   53.8747   23.4393 C.ar      1 UNK         0.0000 
     12 O12         4.5257   54.0046   22.4933 O.2       1 UNK         0.0000 
     13 C13         1.9784   53.2971   21.8901 C.3       1 UNK         0.0000 
     14 C14         2.1387   51.9162   21.2614 C.ar      1 UNK         0.0000 
     15 C15         2.1373   51.8415   19.8674 C.ar      1 UNK         0.0000 
     16 C16         2.2084   50.6073   19.2337 C.ar      1 UNK         0.0000 
     17 C17         2.2767   49.4415   19.9927 C.ar      1 UNK         0.0000 
     18 C18         2.3042   49.5104   21.3877 C.ar      1 UNK         0.0000 
     19 C19         2.2496   50.7487   22.0239 C.ar      1 UNK         0.0000 
     20 C20         2.3099   48.1002   19.2869 C.3       1 UNK         0.0000 
     21 S21        -0.2632   52.8961   24.0190 S.3       1 UNK         0.0000 
     22 C22        -0.7302   52.1048   25.6010 C.3       1 UNK         0.0000 
     23 C23        -1.9217   51.1343   25.5137 C.2       1 UNK         0.0000 
     24 O24        -2.9627   51.4755   26.0782 O.2       1 UNK         0.0000 
     25 N25        -1.7455   49.8907   24.9848 N.am      1 UNK         0.0000 
     26 C26        -0.6680   49.6092   24.0057 C.3       1 UNK         0.0000 
     27 C27         0.0232   48.2936   24.4008 C.3       1 UNK         0.0000 
     28 C28        -0.9699   47.1289   24.5358 C.3       1 UNK         0.0000 
     29 C29        -1.9816   47.5650   25.6026 C.3       1 UNK         0.0000 
     30 H30        -1.3859   47.7842   26.4817 H         1 UNK         0.0000 
     31 C31        -2.7703   48.8320   25.1855 C.3       1 UNK         0.0000 
     32 C32        -2.8895   46.3996   26.0403 C.2       1 UNK         0.0000 
     33 O33        -3.5131   45.7221   25.2259 O.2       1 UNK         0.0000 
     34 N34        -2.8946   46.0967   27.3375 N.am      1 UNK         0.0000 
     35 C35         6.5983   54.7540   24.6258 C.3       1 UNK         0.0000 
     36 H36         7.7951   53.7940   29.0298 H         1 UNK         0.0000 
     37 H37         6.3047   52.8969   28.7404 H         1 UNK         0.0000 
     38 H38         7.5047   53.0306   27.4610 H         1 UNK         0.0000 
     39 H39         7.0653   55.5189   27.3732 H         1 UNK         0.0000 
     40 H40         5.9043   55.3498   28.6622 H         1 UNK         0.0000 
     41 H41         0.9490   53.6214   21.7466 H         1 UNK         0.0000 
     42 H42         2.5538   53.9835   21.2718 H         1 UNK         0.0000 
     43 H43         2.0684   52.7401   19.2720 H         1 UNK         0.0000 
     44 H44         2.2139   50.5558   18.1537 H         1 UNK         0.0000 
     45 H45         2.3820   48.6106   21.9805 H         1 UNK         0.0000 
     46 H46         2.2808   50.7851   23.1028 H         1 UNK         0.0000 
     47 H47         3.3041   47.9087   18.8799 H         1 UNK         0.0000 
     48 H48         2.0228   47.2941   19.9596 H         1 UNK         0.0000 
     49 H49         1.6067   48.0941   18.4543 H         1 UNK         0.0000 
     50 H50        -0.9409   52.8862   26.3333 H         1 UNK         0.0000 
     51 H51         0.1096   51.5438   26.0131 H         1 UNK         0.0000 
     52 H52         0.1219   50.3535   23.9852 H         1 UNK         0.0000 
     53 H53        -1.1134   49.5137   23.0134 H         1 UNK         0.0000 
     54 H54         0.5772   48.4343   25.3314 H         1 UNK         0.0000 
     55 H55         0.7836   48.0786   23.6614 H         1 UNK         0.0000 
     56 H56        -0.3959   46.2708   24.8817 H         1 UNK         0.0000 
     57 H57        -1.4305   46.9500   23.5619 H         1 UNK         0.0000 
     58 H58        -3.3416   48.6559   24.2727 H         1 UNK         0.0000 
     59 H59        -3.4464   49.0838   26.0053 H         1 UNK         0.0000 
     60 H60        -3.3113   45.2411   27.6829 H         1 UNK         0.0000 
     61 H61        -2.4169   46.7299   27.9793 H         1 UNK         0.0000 
     62 H62         7.5008   54.6542   25.2280 H         1 UNK         0.0000 
     63 H63         6.7273   54.0376   23.8140 H         1 UNK         0.0000 
     64 H64         6.5978   55.7420   24.1661 H         1 UNK         0.0000 
@<TRIPOS>BOND
     1    1    2 1    
     2    1   36 1    
     3    1   37 1    
     4    1   38 1    
     5    2    3 1    
     6    2   39 1    
     7    2   40 1    
     8    3    7 1    
     9    3    4 2    
    10    4    5 1    
    11    4   35 1    
    12    5   11 ar   
    13    5    6 ar   
    14    6    7 1    
    15    6    8 ar   
    16    8    9 ar   
    17    9   10 ar   
    18    9   21 1    
    19   10   11 ar   
    20   10   13 1    
    21   11   12 2    
    22   13   14 1    
    23   13   41 1    
    24   13   42 1    
    25   14   19 ar   
    26   14   15 ar   
    27   15   16 ar   
    28   15   43 1    
    29   16   17 ar   
    30   16   44 1    
    31   17   18 ar   
    32   17   20 1    
    33   18   19 ar   
    34   18   45 1    
    35   19   46 1    
    36   20   47 1    
    37   20   48 1    
    38   20   49 1    
    39   21   22 1    
    40   22   23 1    
    41   22   50 1    
    42   22   51 1    
    43   23   24 2    
    44   23   25 am   BACKBONE|DICT|INTERRES
    45   25   31 1    
    46   25   26 1    
    47   26   27 1    
    48   26   52 1    
    49   26   53 1    
    50   27   28 1    
    51   27   54 1    
    52   27   55 1    
    53   28   29 1    
    54   28   56 1    
    55   28   57 1    
    56   29   30 1    
    57   29   31 1    
    58   29   32 1    
    59   31   58 1    
    60   31   59 1    
    61   32   33 2    
    62   32   34 am   BACKBONE|DICT|INTERRES
    63   34   60 1    
    64   34   61 1    
    65   35   62 1    
    66   35   63 1    
    67   35   64 1    
@<TRIPOS>SUBSTRUCTURE
     1 UNK         1 GROUP             0       ****    0 ROOT    
