@<TRIPOS>MOLECULE
ZINC35270152_2474
42   45    1
SMALL
USER_CHARGES


@<TRIPOS>ATOM
      1 C1         -6.2123   51.5208   25.4679 C.2       1 UNK         0.0000 
      2 C2         -5.3589   52.0186   24.4816 C.2       1 UNK         0.0000 
      3 C3         -4.5240   50.9716   24.1104 C.2       1 UNK         0.0000 
      4 O4         -4.8647   49.8490   24.7963 O.3       1 UNK         0.0000 
      5 C5         -5.8783   50.1868   25.6333 C.2       1 UNK         0.0000 
      6 C6         -3.4066   50.8395   23.1149 C.3       1 UNK         0.0000 
      7 H7         -3.7244   50.3783   22.1798 H         1 UNK         0.0000 
      8 O8         -2.8946   52.0964   22.7099 O.3       1 UNK         0.0000 
      9 C9         -2.1462   52.7733   23.7260 C.3       1 UNK         0.0000 
     10 C10        -1.0355   51.8561   24.2394 C.3       1 UNK         0.0000 
     11 H11        -0.3729   51.6216   23.4021 H         1 UNK         0.0000 
     12 C12        -1.6888   50.5501   24.7139 C.3       1 UNK         0.0000 
     13 H13        -2.3844   50.7495   25.5325 H         1 UNK         0.0000 
     14 O14        -2.3733   49.9982   23.5825 O.3       1 UNK         0.0000 
     15 C15        -0.6060   49.5995   25.2442 C.3       1 UNK         0.0000 
     16 H16         0.0637   49.3356   24.4235 H         1 UNK         0.0000 
     17 C17         0.2250   50.3395   26.3272 C.3       1 UNK         0.0000 
     18 H18         1.0972   49.7364   26.5821 H         1 UNK         0.0000 
     19 C19         0.7391   51.6994   25.7783 C.3       1 UNK         0.0000 
     20 H20         1.4107   51.5347   24.9310 H         1 UNK         0.0000 
     21 O21        -0.3251   52.4910   25.3018 O.3       1 UNK         0.0000 
     22 O22         1.3957   52.3768   26.8225 O.3       1 UNK         0.0000 
     23 C23         2.4961   53.1669   26.5471 C.ar      1 UNK         0.0000 
     24 C24         2.7041   53.7861   25.3045 C.ar      1 UNK         0.0000 
     25 C25         3.8797   54.4942   25.0505 C.ar      1 UNK         0.0000 
     26 C26         4.8535   54.6135   26.0420 C.ar      1 UNK         0.0000 
     27 C27         4.6466   54.0265   27.2893 C.ar      1 UNK         0.0000 
     28 C28         3.4777   53.3028   27.5419 C.ar      1 UNK         0.0000 
     29 Br29        3.2585   52.4665   29.2431 Br        1 UNK         0.0000 
     30 Br30        6.4681   55.5574   25.6812 Br        1 UNK         0.0000 
     31 O31        -0.4981   50.5079   27.5311 O.3       1 UNK         0.0000 
     32 O32        -1.1615   48.3629   25.6816 O.3       1 UNK         0.0000 
     33 H33        -6.9860   52.0634   25.9917 H         1 UNK         0.0000 
     34 H34        -5.3434   53.0208   24.0820 H         1 UNK         0.0000 
     35 H35        -6.2537   49.3970   26.2677 H         1 UNK         0.0000 
     36 H36        -1.7169   53.6739   23.2909 H         1 UNK         0.0000 
     37 H37        -2.7992   53.1112   24.5318 H         1 UNK         0.0000 
     38 H38         1.9633   53.7116   24.5228 H         1 UNK         0.0000 
     39 H39         4.0373   54.9367   24.0799 H         1 UNK         0.0000 
     40 H40         5.4020   54.1168   28.0578 H         1 UNK         0.0000 
     41 H41        -0.8611   49.6453   27.8309 H         1 UNK         0.0000 
     42 H42        -1.2964   48.3630   26.6442 H         1 UNK         0.0000 
@<TRIPOS>BOND
     1    1    5 2    
     2    1    2 1    
     3    1   33 1    
     4    2    3 2    
     5    2   34 1    
     6    3    4 1    
     7    3    6 1    
     8    4    5 1    
     9    5   35 1    
    10    6    7 1    
    11    6   14 1    
    12    6    8 1    
    13    8    9 1    
    14    9   10 1    
    15    9   36 1    
    16    9   37 1    
    17   10   11 1    
    18   10   21 1    
    19   10   12 1    
    20   12   13 1    
    21   12   14 1    
    22   12   15 1    
    23   15   16 1    
    24   15   17 1    
    25   15   32 1    
    26   17   18 1    
    27   17   19 1    
    28   17   31 1    
    29   19   20 1    
    30   19   21 1    
    31   19   22 1    
    32   22   23 1    
    33   23   28 ar   
    34   23   24 ar   
    35   24   25 ar   
    36   24   38 1    
    37   25   26 ar   
    38   25   39 1    
    39   26   27 ar   
    40   26   30 1    
    41   27   28 ar   
    42   27   40 1    
    43   28   29 1    
    44   31   41 1    
    45   32   42 1    
@<TRIPOS>SUBSTRUCTURE
     1 UNK         1 GROUP             0       ****    0 ROOT    
