@<TRIPOS>MOLECULE
ZINC16474294_5585
60   63    1
SMALL
USER_CHARGES


@<TRIPOS>ATOM
      1 C1          2.2352   50.2014   19.1572 C.3       1 UNK         0.0000 
      2 C2          2.4255   51.1366   20.3382 C.ar      1 UNK         0.0000 
      3 C3          3.6279   51.8237   20.4855 C.ar      1 UNK         0.0000 
      4 C4          3.8249   52.6625   21.5795 C.ar      1 UNK         0.0000 
      5 C5          2.8203   52.8348   22.5484 C.ar      1 UNK         0.0000 
      6 C6          1.6042   52.1496   22.3892 C.ar      1 UNK         0.0000 
      7 C7          1.4162   51.3059   21.2875 C.ar      1 UNK         0.0000 
      8 S8          0.2701   52.3127   23.5901 S.o2      1 UNK         0.0000 
      9 O9         -0.9468   51.7699   22.9743 O.2       1 UNK         0.0000 
     10 O10         0.2595   53.6966   24.0759 O.2       1 UNK         0.0000 
     11 N11         0.6916   51.2415   24.9766 N.pl3     1 UNK         0.0000 
     12 C12         1.0104   49.8320   24.7807 C.3       1 UNK         0.0000 
     13 C13        -0.0924   49.0067   24.1084 C.2       1 UNK         0.0000 
     14 O14        -0.1046   48.8992   22.8823 O.2       1 UNK         0.0000 
     15 N15        -0.9825   48.4339   24.9443 N.am      1 UNK         0.0000 
     16 C16        -2.1049   47.6534   24.6343 C.ar      1 UNK         0.0000 
     17 C17        -2.7358   47.6297   23.3674 C.ar      1 UNK         0.0000 
     18 C18        -3.8572   46.8206   23.1392 C.ar      1 UNK         0.0000 
     19 C19        -4.3309   46.0638   24.2035 C.ar      1 UNK         0.0000 
     20 C20        -3.7348   46.0965   25.4324 C.ar      1 UNK         0.0000 
     21 C21        -2.6172   46.8801   25.6864 C.ar      1 UNK         0.0000 
     22 O22        -4.3619   45.2173   26.2567 O.3       1 UNK         0.0000 
     23 C23        -5.5273   44.8384   25.5770 C.3       1 UNK         0.0000 
     24 O24        -5.3497   45.1644   24.2243 O.3       1 UNK         0.0000 
     25 C25         0.6854   51.7611   26.2889 C.ar      1 UNK         0.0000 
     26 C26        -0.1263   51.1825   27.2696 C.ar      1 UNK         0.0000 
     27 C27        -0.1584   51.6979   28.5639 C.ar      1 UNK         0.0000 
     28 C28         0.6223   52.8043   28.9073 C.ar      1 UNK         0.0000 
     29 C29         1.4505   53.3915   27.9349 C.ar      1 UNK         0.0000 
     30 C30         1.4772   52.8609   26.6398 C.ar      1 UNK         0.0000 
     31 C31         2.3178   54.6007   28.2565 C.3       1 UNK         0.0000 
     32 C32         0.5467   53.3498   30.3274 C.3       1 UNK         0.0000 
     33 O33         2.9834   53.6293   23.6670 O.3       1 UNK         0.0000 
     34 C34         4.2456   54.2310   23.9276 C.3       1 UNK         0.0000 
     35 H35         1.3595   49.5619   19.2748 H         1 UNK         0.0000 
     36 H36         2.1452   50.7685   18.2299 H         1 UNK         0.0000 
     37 H37         3.1040   49.5494   19.0490 H         1 UNK         0.0000 
     38 H38         4.4105   51.7071   19.7481 H         1 UNK         0.0000 
     39 H39         4.7732   53.1702   21.6561 H         1 UNK         0.0000 
     40 H40         0.4851   50.7708   21.1682 H         1 UNK         0.0000 
     41 H41         1.2837   49.2966   25.6936 H         1 UNK         0.0000 
     42 H42         1.9034   49.7294   24.1607 H         1 UNK         0.0000 
     43 H43        -0.8094   48.5329   25.9362 H         1 UNK         0.0000 
     44 H44        -2.3773   48.2375   22.5510 H         1 UNK         0.0000 
     45 H45        -4.3285   46.7933   22.1680 H         1 UNK         0.0000 
     46 H46        -2.1526   46.8876   26.6642 H         1 UNK         0.0000 
     47 H47        -5.7284   43.7741   25.7057 H         1 UNK         0.0000 
     48 H48        -6.3744   45.4014   25.9756 H         1 UNK         0.0000 
     49 H49        -0.7513   50.3329   27.0360 H         1 UNK         0.0000 
     50 H50        -0.8006   51.2295   29.2975 H         1 UNK         0.0000 
     51 H51         2.1121   53.3142   25.8962 H         1 UNK         0.0000 
     52 H52         1.6934   55.4534   28.5256 H         1 UNK         0.0000 
     53 H53         2.9694   54.3861   29.1032 H         1 UNK         0.0000 
     54 H54         2.9505   54.8903   27.4162 H         1 UNK         0.0000 
     55 H55         1.5212   53.2852   30.8104 H         1 UNK         0.0000 
     56 H56         0.2527   54.3998   30.3145 H         1 UNK         0.0000 
     57 H57        -0.1730   52.8065   30.9427 H         1 UNK         0.0000 
     58 H58         4.1800   54.8259   24.8389 H         1 UNK         0.0000 
     59 H59         5.0233   53.4801   24.0758 H         1 UNK         0.0000 
     60 H60         4.5441   54.8967   23.1186 H         1 UNK         0.0000 
@<TRIPOS>BOND
     1    1    2 1    
     2    1   35 1    
     3    1   36 1    
     4    1   37 1    
     5    2    7 ar   
     6    2    3 ar   
     7    3    4 ar   
     8    3   38 1    
     9    4    5 ar   
    10    4   39 1    
    11    5    6 ar   
    12    5   33 1    
    13    6    7 ar   
    14    6    8 1    
    15    7   40 1    
    16    8    9 2    
    17    8   10 2    
    18    8   11 1    
    19   11   12 1    
    20   11   25 1    
    21   12   13 1    
    22   12   41 1    
    23   12   42 1    
    24   13   14 2    
    25   13   15 am   BACKBONE|DICT|INTERRES
    26   15   16 1    
    27   15   43 1    
    28   16   21 ar   
    29   16   17 ar   
    30   17   18 ar   
    31   17   44 1    
    32   18   19 ar   
    33   18   45 1    
    34   19   24 1    
    35   19   20 ar   
    36   20   21 ar   
    37   20   22 1    
    38   21   46 1    
    39   22   23 1    
    40   23   24 1    
    41   23   47 1    
    42   23   48 1    
    43   25   30 ar   
    44   25   26 ar   
    45   26   27 ar   
    46   26   49 1    
    47   27   28 ar   
    48   27   50 1    
    49   28   29 ar   
    50   28   32 1    
    51   29   30 ar   
    52   29   31 1    
    53   30   51 1    
    54   31   52 1    
    55   31   53 1    
    56   31   54 1    
    57   32   55 1    
    58   32   56 1    
    59   32   57 1    
    60   33   34 1    
    61   34   58 1    
    62   34   59 1    
    63   34   60 1    
@<TRIPOS>SUBSTRUCTURE
     1 UNK         1 GROUP             0       ****    0 ROOT    
