@<TRIPOS>MOLECULE
ZINC36630030_5602
52   55    1
SMALL
USER_CHARGES


@<TRIPOS>ATOM
      1 C1          5.8696   58.9236   15.6844 C.3       1 UNK         0.0000 
      2 C2          6.2403   57.4664   15.9827 C.3       1 UNK         0.0000 
      3 C3          5.0574   56.4933   15.7883 C.3       1 UNK         0.0000 
      4 H4          4.5417   56.7913   14.8732 H         1 UNK         0.0000 
      5 C5          3.9834   56.5185   16.9020 C.3       1 UNK         0.0000 
      6 C6          2.8141   55.5748   16.5239 C.3       1 UNK         0.0000 
      7 C7          3.2754   54.1651   16.0735 C.3       1 UNK         0.0000 
      8 C8          4.4524   54.2194   15.0718 C.3       1 UNK         0.0000 
      9 N9          5.5491   55.0965   15.5612 N.pl3     1 UNK         0.0000 
     10 S10         6.8107   54.3412   16.5978 S.o2      1 UNK         0.0000 
     11 O11         8.0032   55.1959   16.5701 O.2       1 UNK         0.0000 
     12 O12         6.9305   52.9340   16.1992 O.2       1 UNK         0.0000 
     13 C13         6.2401   54.3413   18.2997 C.ar      1 UNK         0.0000 
     14 C14         5.4380   53.2967   18.7532 C.ar      1 UNK         0.0000 
     15 C15         5.0343   53.2491   20.0820 C.ar      1 UNK         0.0000 
     16 C16         5.4538   54.2356   20.9807 C.ar      1 UNK         0.0000 
     17 C17         6.2484   55.2969   20.5160 C.ar      1 UNK         0.0000 
     18 C18         6.6443   55.3452   19.1819 C.ar      1 UNK         0.0000 
     19 C19         5.0558   54.1328   22.4306 C.2       1 UNK         0.0000 
     20 O20         3.9465   53.6962   22.7425 O.2       1 UNK         0.0000 
     21 N21         6.0077   54.5284   23.3019 N.am      1 UNK         0.0000 
     22 C22         5.8741   54.6046   24.6726 C.2       1 UNK         0.0000 
     23 N23         6.7043   55.1638   25.5125 N.2       1 UNK         0.0000 
     24 N24         6.2045   54.8961   26.7822 N.2       1 UNK         0.0000 
     25 C25         5.0926   54.2231   26.5990 C.2       1 UNK         0.0000 
     26 O26         4.8271   54.0022   25.2886 O.3       1 UNK         0.0000 
     27 C27         4.2297   53.6305   27.6032 C.2       1 UNK         0.0000 
     28 C28         4.6863   53.2889   28.8818 C.2       1 UNK         0.0000 
     29 C29         3.7241   52.6847   29.6781 C.2       1 UNK         0.0000 
     30 S30         2.2066   52.5502   28.8565 S.3       1 UNK         0.0000 
     31 C31         2.8828   53.2964   27.4415 C.2       1 UNK         0.0000 
     32 Cl32        1.8896   53.5199   26.0545 Cl        1 UNK         0.0000 
     33 Cl33        3.9039   52.0965   31.2825 Cl        1 UNK         0.0000 
     34 H34         6.7284   59.5813   15.8251 H         1 UNK         0.0000 
     35 H35         5.5231   59.0507   14.6581 H         1 UNK         0.0000 
     36 H36         5.0831   59.2836   16.3487 H         1 UNK         0.0000 
     37 H37         6.6223   57.4048   17.0011 H         1 UNK         0.0000 
     38 H38         7.0620   57.1994   15.3162 H         1 UNK         0.0000 
     39 H39         3.5868   57.5265   17.0308 H         1 UNK         0.0000 
     40 H40         4.3911   56.2018   17.8589 H         1 UNK         0.0000 
     41 H41         2.2488   56.0313   15.7099 H         1 UNK         0.0000 
     42 H42         2.1148   55.4895   17.3555 H         1 UNK         0.0000 
     43 H43         2.4378   53.6323   15.6216 H         1 UNK         0.0000 
     44 H44         3.5488   53.5713   16.9411 H         1 UNK         0.0000 
     45 H45         4.0786   54.6527   14.1428 H         1 UNK         0.0000 
     46 H46         4.8487   53.2376   14.8116 H         1 UNK         0.0000 
     47 H47         5.1471   52.4968   18.0844 H         1 UNK         0.0000 
     48 H48         4.4200   52.4205   20.4088 H         1 UNK         0.0000 
     49 H49         6.5731   56.0852   21.1796 H         1 UNK         0.0000 
     50 H50         7.2786   56.1509   18.8424 H         1 UNK         0.0000 
     51 H51         6.8905   54.8398   22.9279 H         1 UNK         0.0000 
     52 H52         5.7009   53.4613   29.2082 H         1 UNK         0.0000 
@<TRIPOS>BOND
     1    1    2 1    
     2    1   34 1    
     3    1   35 1    
     4    1   36 1    
     5    2    3 1    
     6    2   37 1    
     7    2   38 1    
     8    3    4 1    
     9    3    9 1    
    10    3    5 1    
    11    5    6 1    
    12    5   39 1    
    13    5   40 1    
    14    6    7 1    
    15    6   41 1    
    16    6   42 1    
    17    7    8 1    
    18    7   43 1    
    19    7   44 1    
    20    8    9 1    
    21    8   45 1    
    22    8   46 1    
    23    9   10 1    
    24   10   11 2    
    25   10   12 2    
    26   10   13 1    
    27   13   18 ar   
    28   13   14 ar   
    29   14   15 ar   
    30   14   47 1    
    31   15   16 ar   
    32   15   48 1    
    33   16   17 ar   
    34   16   19 1    
    35   17   18 ar   
    36   17   49 1    
    37   18   50 1    
    38   19   20 2    
    39   19   21 am   BACKBONE|DICT|INTERRES
    40   21   22 am   BACKBONE|DICT|INTERRES
    41   21   51 1    
    42   22   26 1    
    43   22   23 2    
    44   23   24 1    
    45   24   25 2    
    46   25   26 1    
    47   25   27 1    
    48   27   31 2    
    49   27   28 1    
    50   28   29 2    
    51   28   52 1    
    52   29   30 1    
    53   29   33 1    
    54   30   31 1    
    55   31   32 1    
@<TRIPOS>SUBSTRUCTURE
     1 UNK         1 GROUP             0       ****    0 ROOT    
