ZINC49486318_4861
                    3D
 Schrodinger Suite 2024-2.
 52 55  0  0  1  0            999 V2000
    0.5259   49.6113   21.5011 C   0  0  0  0  0  0
    0.9106   50.4579   20.4622 C   0  0  0  0  0  0
    2.2515   50.7682   20.6621 C   0  0  0  0  0  0
    2.7016   50.1145   21.7665 O   0  0  0  0  0  0
    1.6498   49.4386   22.2929 C   0  0  0  0  0  0
    3.2597   51.6667   19.9574 C   0  0  1  0  0  0
    4.1341   51.0812   19.6832 H   0  0  0  0  0  0
    2.7667   52.3298   18.6566 C   0  0  0  0  0  0
    2.3038   51.3444   17.6513 N   0  0  0  0  0  0
    1.7761   51.9838   16.1059 S   0  0  0  0  0  0
    1.2403   50.8831   15.2991 O   0  0  0  0  0  0
    2.8091   52.8927   15.5979 O   0  0  0  0  0  0
    0.3698   53.0027   16.6145 C   0  0  0  0  0  0
   -0.9117   52.5407   16.8844 C   0  0  0  0  0  0
   -1.7846   53.5729   17.2545 C   0  0  0  0  0  0
   -1.1646   54.8169   17.2803 C   0  0  0  0  0  0
    0.5134   54.7154   16.8493 S   0  0  0  0  0  0
   -1.9310   56.5018   17.7106 Br  0  0  0  0  0  0
    3.7749   52.8006   20.8996 N   0  3  0  0  0  0
    2.7696   53.2895   21.9674 C   0  0  0  0  0  0
    3.3863   54.4642   22.7431 C   0  0  0  0  0  0
    4.6407   54.0965   23.4174 N   0  0  0  0  0  0
    5.6312   53.5302   22.4852 C   0  0  0  0  0  0
    5.1043   52.3976   21.5655 C   0  0  0  0  0  0
    4.8533   54.2255   24.7881 C   0  0  0  0  0  0
    3.7908   54.0598   25.6881 C   0  0  0  0  0  0
    3.9984   54.1422   27.0616 C   0  0  0  0  0  0
    5.2714   54.4055   27.5495 C   0  0  0  0  0  0
    6.3392   54.5811   26.6763 C   0  0  0  0  0  0
    6.1325   54.4962   25.2993 C   0  0  0  0  0  0
    5.4738   54.4948   28.8818 F   0  0  0  0  0  0
   -0.4563   49.1851   21.6645 H   0  0  0  0  0  0
    0.2827   50.8215   19.6597 H   0  0  0  0  0  0
    1.8456   48.8972   23.2049 H   0  0  0  0  0  0
    3.5749   52.9109   18.2108 H   0  0  0  0  0  0
    1.9499   53.0188   18.8736 H   0  0  0  0  0  0
    2.9960   50.5934   17.5073 H   0  0  0  0  0  0
   -1.2030   51.5025   16.7993 H   0  0  0  0  0  0
   -2.8281   53.4187   17.4857 H   0  0  0  0  0  0
    1.8827   53.6109   21.4269 H   0  0  0  0  0  0
    2.5130   52.4644   22.6317 H   0  0  0  0  0  0
    3.6256   55.2911   22.0753 H   0  0  0  0  0  0
    2.6576   54.8698   23.4434 H   0  0  0  0  0  0
    6.5268   53.1846   23.0004 H   0  0  0  0  0  0
    5.9372   54.3816   21.8745 H   0  0  0  0  0  0
    4.9382   51.4539   22.0817 H   0  0  0  0  0  0
    5.7850   52.2446   20.7260 H   0  0  0  0  0  0
    2.7948   53.8305   25.3379 H   0  0  0  0  0  0
    3.1784   54.0018   27.7473 H   0  0  0  0  0  0
    7.3231   54.7802   27.0781 H   0  0  0  0  0  0
    6.9726   54.6393   24.6340 H   0  0  0  0  0  0
    3.9761   53.5996   20.3150 H   0  0  0  0  0  0
  1  5  2  0  0  0
  1  2  1  0  0  0
  1 32  1  0  0  0
  2  3  2  0  0  0
  2 33  1  0  0  0
  3  4  1  0  0  0
  3  6  1  0  0  0
  4  5  1  0  0  0
  5 34  1  0  0  0
  6  7  1  0  0  0
  6  8  1  0  0  0
  6 19  1  0  0  0
  8  9  1  0  0  0
  8 35  1  0  0  0
  8 36  1  0  0  0
  9 10  1  0  0  0
  9 37  1  0  0  0
 10 11  2  0  0  0
 10 12  2  0  0  0
 10 13  1  0  0  0
 13 17  1  0  0  0
 13 14  2  0  0  0
 14 15  1  0  0  0
 14 38  1  0  0  0
 15 16  2  0  0  0
 15 39  1  0  0  0
 16 17  1  0  0  0
 16 18  1  0  0  0
 19 24  1  0  0  0
 19 20  1  0  0  0
 19 52  1  0  0  0
 20 21  1  0  0  0
 20 40  1  0  0  0
 20 41  1  0  0  0
 21 22  1  0  0  0
 21 42  1  0  0  0
 21 43  1  0  0  0
 22 23  1  0  0  0
 22 25  1  0  0  0
 23 24  1  0  0  0
 23 44  1  0  0  0
 23 45  1  0  0  0
 24 46  1  0  0  0
 24 47  1  0  0  0
 25 30  2  0  0  0
 25 26  1  0  0  0
 26 27  2  0  0  0
 26 48  1  0  0  0
 27 28  1  0  0  0
 27 49  1  0  0  0
 28 29  2  0  0  0
 28 31  1  0  0  0
 29 30  1  0  0  0
 29 50  1  0  0  0
 30 51  1  0  0  0
M  CHG  1  19   1
M  END
> <i_i_glide_confnum>
118

> <i_i_glide_lignum>
4862

> <i_i_glide_posenum>
85

> <i_i_glide_rotatable_bonds>
7

> <i_m_Source_File_Index>
20

> <b_m_subgroup_collapsed>
0

> <r_i_docking_score>
-4.23374

> <r_i_glide_ecoul>
-1.21239

> <r_i_glide_eff_state_penalty>
0

> <r_i_glide_einternal>
11.5926

> <r_i_glide_emodel>
-43.5831

> <r_i_glide_energy>
-37.752

> <r_i_glide_erotb>
0.463395

> <r_i_glide_esite>
-0.168941

> <r_i_glide_evdw>
-36.5396

> <r_i_glide_gscore>
-4.23374

> <r_i_glide_hbond>
-0.16

> <r_i_glide_ligand_efficiency>
-0.141125

> <r_i_glide_ligand_efficiency_ln>
-0.961952

> <r_i_glide_ligand_efficiency_sa>
-0.438507

> <r_i_glide_lipo>
-2.11955

> <r_i_glide_metal>
0

> <r_i_glide_rewards>
-0.239809

> <s_i_glide_gridfile>
wee1_glide-grid

> <s_m_Source_File>
wee1_decoys_glide_SP.sdf

> <s_m_Source_Path>
/Users/zhangxujun/Desktop

> <s_m_entry_id>
295

> <s_m_entry_name>
wee1_decoys_glide_SP.20

> <s_m_subgroup_title>
wee1_decoys_glide_SP

> <s_m_subgroupid>
wee1_decoys_glide_SP


$$$$
