@<TRIPOS>MOLECULE
ZINC25582130_5154
61   64    1
SMALL
USER_CHARGES


@<TRIPOS>ATOM
      1 C1          6.8626   54.9821   24.4043 C.3       1 UNK         0.0000 
      2 C2          6.0392   54.5299   25.5943 C.ar      1 UNK         0.0000 
      3 C3          6.6779   54.1296   26.7701 C.ar      1 UNK         0.0000 
      4 C4          5.9259   53.6976   27.8549 C.ar      1 UNK         0.0000 
      5 C5          4.5347   53.6731   27.7674 C.ar      1 UNK         0.0000 
      6 C6          3.8895   54.0967   26.6036 C.ar      1 UNK         0.0000 
      7 C7          4.6455   54.5135   25.5123 C.ar      1 UNK         0.0000 
      8 S8          3.6218   53.1727   29.2169 S.o2      1 UNK         0.0000 
      9 O9          3.6261   54.3538   30.0817 O.2       1 UNK         0.0000 
     10 O10         4.2017   51.9077   29.6816 O.2       1 UNK         0.0000 
     11 N11         1.9469   52.8618   28.7368 N.pl3     1 UNK         0.0000 
     12 C12         0.9193   53.8886   28.9360 C.3       1 UNK         0.0000 
     13 C13        -0.3165   53.2095   29.5378 C.3       1 UNK         0.0000 
     14 C14        -0.8528   52.0312   28.6668 C.3       1 UNK         0.0000 
     15 C15         0.2968   51.0961   28.2128 C.3       1 UNK         0.0000 
     16 C16         1.5948   51.8040   27.7713 C.3       1 UNK         0.0000 
     17 N17        -1.9631   51.2967   29.2816 N.am      1 UNK         0.0000 
     18 C18        -3.0894   50.8967   28.6608 C.2       1 UNK         0.0000 
     19 O19        -3.3313   51.1397   27.4760 O.2       1 UNK         0.0000 
     20 C20        -4.1454   50.1741   29.5356 C.3       1 UNK         0.0000 
     21 H21        -3.6767   49.9249   30.4909 H         1 UNK         0.0000 
     22 C22        -5.3785   51.0239   29.8095 C.ar      1 UNK         0.0000 
     23 C23        -5.7505   51.2875   31.1339 C.ar      1 UNK         0.0000 
     24 C24        -6.8958   52.0295   31.4119 C.ar      1 UNK         0.0000 
     25 C25        -7.6649   52.5281   30.3640 C.ar      1 UNK         0.0000 
     26 C26        -7.3068   52.2786   29.0415 C.ar      1 UNK         0.0000 
     27 C27        -6.1717   51.5208   28.7653 C.ar      1 UNK         0.0000 
     28 N28        -4.4956   48.8746   28.9381 N.am      1 UNK         0.0000 
     29 C29        -5.3880   47.9775   29.3982 C.2       1 UNK         0.0000 
     30 O30        -6.1004   48.1440   30.3891 O.2       1 UNK         0.0000 
     31 C31        -5.4821   46.7907   28.5984 C.2       1 UNK         0.0000 
     32 C32        -4.4536   46.0867   27.9708 C.2       1 UNK         0.0000 
     33 C33        -4.8959   44.8974   27.3788 C.2       1 UNK         0.0000 
     34 C34        -6.2548   44.6815   27.5536 C.2       1 UNK         0.0000 
     35 S35        -6.9991   45.9417   28.4817 S.3       1 UNK         0.0000 
     36 H36         7.5044   54.1673   24.0679 H         1 UNK         0.0000 
     37 H37         6.2420   55.2945   23.5638 H         1 UNK         0.0000 
     38 H38         7.5042   55.8191   24.6791 H         1 UNK         0.0000 
     39 H39         7.7520   54.1482   26.8625 H         1 UNK         0.0000 
     40 H40         6.4233   53.3944   28.7658 H         1 UNK         0.0000 
     41 H41         2.8131   54.1120   26.5339 H         1 UNK         0.0000 
     42 H42         4.1453   54.8310   24.6088 H         1 UNK         0.0000 
     43 H43         0.6856   54.3461   27.9744 H         1 UNK         0.0000 
     44 H44         1.2923   54.6768   29.5898 H         1 UNK         0.0000 
     45 H45        -1.0454   53.9924   29.6818 H         1 UNK         0.0000 
     46 H46        -0.0584   52.8404   30.5327 H         1 UNK         0.0000 
     47 H47        -1.2050   52.5057   27.7470 H         1 UNK         0.0000 
     48 H48         0.5616   50.4967   29.0784 H         1 UNK         0.0000 
     49 H49        -0.0456   50.4106   27.4356 H         1 UNK         0.0000 
     50 H50         1.4337   52.2656   26.7964 H         1 UNK         0.0000 
     51 H51         2.4205   51.1052   27.6824 H         1 UNK         0.0000 
     52 H52        -1.8227   50.9886   30.2358 H         1 UNK         0.0000 
     53 H53        -5.1618   50.8968   31.9538 H         1 UNK         0.0000 
     54 H54        -7.1891   52.2091   32.4361 H         1 UNK         0.0000 
     55 H55        -8.5544   53.1018   30.5804 H         1 UNK         0.0000 
     56 H56        -7.9149   52.6569   28.2325 H         1 UNK         0.0000 
     57 H57        -5.9117   51.3111   27.7377 H         1 UNK         0.0000 
     58 H58        -3.8498   48.5702   28.2216 H         1 UNK         0.0000 
     59 H59        -3.4174   46.4011   27.9691 H         1 UNK         0.0000 
     60 H60        -4.2360   44.2048   26.8782 H         1 UNK         0.0000 
     61 H61        -6.8411   43.8403   27.2122 H         1 UNK         0.0000 
@<TRIPOS>BOND
     1    1    2 1    
     2    1   36 1    
     3    1   37 1    
     4    1   38 1    
     5    2    7 ar   
     6    2    3 ar   
     7    3    4 ar   
     8    3   39 1    
     9    4    5 ar   
    10    4   40 1    
    11    5    6 ar   
    12    5    8 1    
    13    6    7 ar   
    14    6   41 1    
    15    7   42 1    
    16    8    9 2    
    17    8   10 2    
    18    8   11 1    
    19   11   16 1    
    20   11   12 1    
    21   12   13 1    
    22   12   43 1    
    23   12   44 1    
    24   13   14 1    
    25   13   45 1    
    26   13   46 1    
    27   14   15 1    
    28   14   17 1    
    29   14   47 1    
    30   15   16 1    
    31   15   48 1    
    32   15   49 1    
    33   16   50 1    
    34   16   51 1    
    35   17   18 am   BACKBONE|DICT|INTERRES
    36   17   52 1    
    37   18   19 2    
    38   18   20 1    
    39   20   21 1    
    40   20   22 1    
    41   20   28 1    
    42   22   27 ar   
    43   22   23 ar   
    44   23   24 ar   
    45   23   53 1    
    46   24   25 ar   
    47   24   54 1    
    48   25   26 ar   
    49   25   55 1    
    50   26   27 ar   
    51   26   56 1    
    52   27   57 1    
    53   28   29 am   BACKBONE|DICT|INTERRES
    54   28   58 1    
    55   29   30 2    
    56   29   31 1    
    57   31   35 1    
    58   31   32 2    
    59   32   33 1    
    60   32   59 1    
    61   33   34 2    
    62   33   60 1    
    63   34   35 1    
    64   34   61 1    
@<TRIPOS>SUBSTRUCTURE
     1 UNK         1 GROUP             0       ****    0 ROOT    
