@<TRIPOS>MOLECULE
ZINC09460737_2901
51   54    1
SMALL
USER_CHARGES


@<TRIPOS>ATOM
      1 C1          2.7097   50.4890   20.6329 C.ar      1 UNK         0.0000 
      2 C2          2.3567   49.6423   21.6817 C.ar      1 UNK         0.0000 
      3 C3          1.5546   50.1147   22.7149 C.ar      1 UNK         0.0000 
      4 C4          1.0863   51.4310   22.6894 C.ar      1 UNK         0.0000 
      5 C5          1.4411   52.2744   21.6282 C.ar      1 UNK         0.0000 
      6 C6          2.2589   51.8050   20.6052 C.ar      1 UNK         0.0000 
      7 C7          0.1052   51.8896   23.7610 C.3       1 UNK         0.0000 
      8 C8          0.3541   53.2946   24.3422 C.3       1 UNK         0.0000 
      9 C9          1.2984   53.3133   25.5117 C.2       1 UNK         0.0000 
     10 C10         1.6387   53.0960   27.9749 C.3       1 UNK         0.0000 
     11 C11         3.1092   53.5102   27.6107 C.ar      1 UNK         0.0000 
     12 C12         4.1097   53.6486   28.6723 C.ar      1 UNK         0.0000 
     13 O13         3.9045   53.5816   29.8818 O.2       1 UNK         0.0000 
     14 N14         5.3581   53.9007   28.2194 N.pl3     1 UNK         0.0000 
     15 H15         6.0681   53.9602   28.9335 H         1 UNK         0.0000 
     16 C16         5.8100   54.0983   26.9538 C.ar      1 UNK         0.0000 
     17 O17         7.0261   54.2335   26.8216 O.2       1 UNK         0.0000 
     18 N18         4.8328   54.1189   25.9621 N.pl3     1 UNK         0.0000 
     19 C19         3.5081   53.7903   26.3321 C.ar      1 UNK         0.0000 
     20 N20         2.5380   53.7701   25.3533 N.pl3     1 UNK         0.0000 
     21 C21         5.2436   54.3737   24.5859 C.ar      1 UNK         0.0000 
     22 C22         4.6710   53.6967   23.4862 C.ar      1 UNK         0.0000 
     23 C23         5.0826   53.9285   22.1775 C.ar      1 UNK         0.0000 
     24 C24         6.1161   54.8178   21.9313 C.ar      1 UNK         0.0000 
     25 C25         6.7334   55.4657   22.9879 C.ar      1 UNK         0.0000 
     26 C26         6.2838   55.2840   24.2915 C.ar      1 UNK         0.0000 
     27 F27         6.5347   55.0391   20.6654 F         1 UNK         0.0000 
     28 C28         0.9209   54.2755   28.7131 C.3       1 UNK         0.0000 
     29 F29         1.1052   55.4370   28.0818 F         1 UNK         0.0000 
     30 F30        -0.3973   54.0863   28.7873 F         1 UNK         0.0000 
     31 F31         1.3332   54.4464   29.9677 F         1 UNK         0.0000 
     32 C32         1.5684   51.7184   28.7121 C.3       1 UNK         0.0000 
     33 F33         1.9820   51.7499   29.9777 F         1 UNK         0.0000 
     34 F34         0.3177   51.2549   28.7587 F         1 UNK         0.0000 
     35 F35         2.3035   50.8045   28.0851 F         1 UNK         0.0000 
     36 H36         3.3319   50.1227   19.8266 H         1 UNK         0.0000 
     37 H37         2.7086   48.6208   21.6947 H         1 UNK         0.0000 
     38 H38         1.2812   49.4438   23.5173 H         1 UNK         0.0000 
     39 H39         1.0698   53.2859   21.5602 H         1 UNK         0.0000 
     40 H40         2.5256   52.4511   19.7807 H         1 UNK         0.0000 
     41 H41        -0.8811   51.8671   23.2954 H         1 UNK         0.0000 
     42 H42         0.0613   51.1657   24.5761 H         1 UNK         0.0000 
     43 H43         0.6973   54.0065   23.5910 H         1 UNK         0.0000 
     44 H44        -0.6054   53.6928   24.6689 H         1 UNK         0.0000 
     45 H45         2.7855   54.0867   24.4264 H         1 UNK         0.0000 
     46 H46         3.9305   52.9212   23.5997 H         1 UNK         0.0000 
     47 H47         4.6256   53.3953   21.3565 H         1 UNK         0.0000 
     48 H48         7.5722   56.1124   22.7909 H         1 UNK         0.0000 
     49 H49         6.7730   55.8573   25.0641 H         1 UNK         0.0000 
     50 N50         0.8904   52.8971   26.7112 N.pl3     1 UNK         0.0000 
     51 H51        -0.0559   52.5440   26.7734 H         1 UNK         0.0000 
@<TRIPOS>BOND
     1    1    6 ar   
     2    1    2 ar   
     3    1   36 1    
     4    2    3 ar   
     5    2   37 1    
     6    3    4 ar   
     7    3   38 1    
     8    4    5 ar   
     9    4    7 1    
    10    5    6 ar   
    11    5   39 1    
    12    6   40 1    
    13    7    8 1    
    14    7   41 1    
    15    7   42 1    
    16    8    9 1    
    17    8   43 1    
    18    8   44 1    
    19    9   20 1    
    20    9   50 2    
    21   10   11 1    
    22   10   28 1    
    23   10   32 1    
    24   10   50 1    
    25   11   19 ar   
    26   11   12 ar   
    27   12   13 2    
    28   12   14 ar   
    29   14   15 1    
    30   14   16 ar   
    31   16   17 2    
    32   16   18 ar   
    33   18   19 ar   
    34   18   21 1    
    35   19   20 1    
    36   20   45 1    
    37   21   26 ar   
    38   21   22 ar   
    39   22   23 ar   
    40   22   46 1    
    41   23   24 ar   
    42   23   47 1    
    43   24   25 ar   
    44   24   27 1    
    45   25   26 ar   
    46   25   48 1    
    47   26   49 1    
    48   28   29 1    
    49   28   30 1    
    50   28   31 1    
    51   32   33 1    
    52   32   34 1    
    53   32   35 1    
    54   50   51 1    
@<TRIPOS>SUBSTRUCTURE
     1 UNK         1 GROUP             0       ****    0 ROOT    
