@<TRIPOS>MOLECULE
ZINC09307054_2787
52   56    1
SMALL
USER_CHARGES


@<TRIPOS>ATOM
      1 C1          1.5054   52.7432   28.7779 C.3       1 UNK         0.0000 
      2 C2          1.9845   53.1726   27.3841 C.3       1 UNK         0.0000 
      3 C3          1.1188   52.5705   26.2574 C.3       1 UNK         0.0000 
      4 C4          1.5651   52.8783   24.8348 C.ar      1 UNK         0.0000 
      5 C5          1.0023   52.3636   23.6452 C.ar      1 UNK         0.0000 
      6 C6          1.7764   52.9200   22.6538 C.ar      1 UNK         0.0000 
      7 N7          2.7097   53.7105   23.2438 N.pl3     1 UNK         0.0000 
      8 H8          3.4064   54.2571   22.7578 H         1 UNK         0.0000 
      9 N9          2.5794   53.6961   24.5786 N.2       1 UNK         0.0000 
     10 O10         1.6539   52.7715   21.2986 O.3       1 UNK         0.0000 
     11 C11         0.5478   52.0641   20.9240 C.2       1 UNK         0.0000 
     12 C12        -0.3487   51.4633   21.7516 C.2       1 UNK         0.0000 
     13 C13        -0.1598   51.4291   23.2885 C.3       1 UNK         0.0000 
     14 C14        -1.3860   51.7285   24.0984 C.ar      1 UNK         0.0000 
     15 C15        -2.2156   52.8536   24.1394 C.ar      1 UNK         0.0000 
     16 C16        -3.2883   52.8853   25.0371 C.ar      1 UNK         0.0000 
     17 C17        -3.5123   51.8027   25.8949 C.ar      1 UNK         0.0000 
     18 C18        -2.6801   50.6819   25.8506 C.ar      1 UNK         0.0000 
     19 C19        -1.6251   50.6517   24.9350 C.ar      1 UNK         0.0000 
     20 N20        -0.6845   49.6452   24.6898 N.am      1 UNK         0.0000 
     21 C21         0.1938   49.9879   23.7130 C.2       1 UNK         0.0000 
     22 O22         1.0976   49.3004   23.2316 O.2       1 UNK         0.0000 
     23 C23        -0.6809   48.3009   25.2841 C.3       1 UNK         0.0000 
     24 C24        -1.8577   47.4438   24.8271 C.ar      1 UNK         0.0000 
     25 C25        -2.7286   46.8954   25.7741 C.ar      1 UNK         0.0000 
     26 C26        -3.8570   46.1825   25.3642 C.ar      1 UNK         0.0000 
     27 C27        -4.1057   45.9981   24.0012 C.ar      1 UNK         0.0000 
     28 C28        -3.2213   46.5103   23.0525 C.ar      1 UNK         0.0000 
     29 C29        -2.1000   47.2334   23.4624 C.ar      1 UNK         0.0000 
     30 F30        -3.4528   46.3085   21.7359 F         1 UNK         0.0000 
     31 C31        -1.4867   50.8029   21.1902 C.1       1 UNK         0.0000 
     32 N32        -2.4182   50.3030   20.7189 N.1       1 UNK         0.0000 
     33 N33         0.4917   52.0995   19.5557 N.pl3     1 UNK         0.0000 
     34 H34         2.1377   53.1647   29.5595 H         1 UNK         0.0000 
     35 H35         1.5265   51.6576   28.8854 H         1 UNK         0.0000 
     36 H36         0.4829   53.0713   28.9670 H         1 UNK         0.0000 
     37 H37         1.9741   54.2619   27.3203 H         1 UNK         0.0000 
     38 H38         3.0268   52.8667   27.2562 H         1 UNK         0.0000 
     39 H39         1.1018   51.4878   26.3862 H         1 UNK         0.0000 
     40 H40         0.0868   52.8971   26.3959 H         1 UNK         0.0000 
     41 H41        -2.0364   53.6979   23.4907 H         1 UNK         0.0000 
     42 H42        -3.9352   53.7491   25.0749 H         1 UNK         0.0000 
     43 H43        -4.3358   51.8315   26.5976 H         1 UNK         0.0000 
     44 H44        -2.8579   49.8514   26.5216 H         1 UNK         0.0000 
     45 H45         0.2409   47.7651   25.0475 H         1 UNK         0.0000 
     46 H46        -0.7034   48.4045   26.3717 H         1 UNK         0.0000 
     47 H47        -2.5497   47.0477   26.8309 H         1 UNK         0.0000 
     48 H48        -4.5405   45.7895   26.1035 H         1 UNK         0.0000 
     49 H49        -4.9863   45.4590   23.6803 H         1 UNK         0.0000 
     50 H50        -1.4333   47.6444   22.7187 H         1 UNK         0.0000 
     51 H51        -0.1802   51.5478   19.0400 H         1 UNK         0.0000 
     52 H52         1.1206   52.7017   19.0384 H         1 UNK         0.0000 
@<TRIPOS>BOND
     1    1    2 1    
     2    1   34 1    
     3    1   35 1    
     4    1   36 1    
     5    2    3 1    
     6    2   37 1    
     7    2   38 1    
     8    3    4 1    
     9    3   39 1    
    10    3   40 1    
    11    4    9 ar   
    12    4    5 ar   
    13    5   13 1    
    14    5    6 ar   
    15    6    7 ar   
    16    6   10 1    
    17    7    8 1    
    18    7    9 ar   
    19   10   11 1    
    20   11   12 2    
    21   11   33 1    
    22   12   13 1    
    23   12   31 1    
    24   13   21 1    
    25   13   14 1    
    26   14   19 ar   
    27   14   15 ar   
    28   15   16 ar   
    29   15   41 1    
    30   16   17 ar   
    31   16   42 1    
    32   17   18 ar   
    33   17   43 1    
    34   18   19 ar   
    35   18   44 1    
    36   19   20 1    
    37   20   21 am   BACKBONE|DICT|INTERRES
    38   20   23 1    
    39   21   22 2    
    40   23   24 1    
    41   23   45 1    
    42   23   46 1    
    43   24   29 ar   
    44   24   25 ar   
    45   25   26 ar   
    46   25   47 1    
    47   26   27 ar   
    48   26   48 1    
    49   27   28 ar   
    50   27   49 1    
    51   28   29 ar   
    52   28   30 1    
    53   29   50 1    
    54   31   32 3    
    55   33   51 1    
    56   33   52 1    
@<TRIPOS>SUBSTRUCTURE
     1 UNK         1 GROUP             0       ****    0 ROOT    
