ZINC20477457_5235
                    3D
 Schrodinger Suite 2024-2.
 55 58  0  0  1  0            999 V2000
    1.1065   53.8318   23.2997 C   0  0  0  0  0  0
    2.1296   54.0970   24.2498 O   0  0  0  0  0  0
    3.4426   54.2012   23.8243 C   0  0  0  0  0  0
    3.8383   54.0799   22.4821 C   0  0  0  0  0  0
    5.1781   54.2273   22.1061 C   0  0  0  0  0  0
    6.1402   54.4639   23.0923 C   0  0  0  0  0  0
    5.7656   54.5750   24.4312 C   0  0  0  0  0  0
    4.4212   54.4565   24.7987 C   0  0  0  0  0  0
    4.0686   54.6006   26.1204 O   0  0  0  0  0  0
    3.6925   53.3934   26.7828 C   0  0  0  0  0  0
    2.7265   53.6850   27.9230 C   0  0  0  0  0  0
    2.7941   54.8837   28.6413 C   0  0  0  0  0  0
    1.9028   55.1316   29.6826 C   0  0  0  0  0  0
    0.9490   54.1756   30.0318 C   0  0  0  0  0  0
    0.8668   52.9766   29.3128 C   0  0  0  0  0  0
    1.7576   52.7366   28.2660 C   0  0  0  0  0  0
   -0.3239   51.7786   29.6846 Cl  0  0  0  0  0  0
   -0.0955   54.4964   31.3673 Cl  0  0  0  0  0  0
    7.1009   54.8971   25.7502 Br  0  0  0  0  0  0
    5.6016   54.0927   20.6483 C   0  0  0  0  0  0
    4.7043   54.7890   19.7324 N   0  0  0  0  0  0
    5.0563   54.6471   18.3225 C   0  0  2  0  0  0
    6.0902   54.9909   18.2481 H   0  0  0  0  0  0
    4.1955   55.5979   17.4351 C   0  0  0  0  0  0
    3.4863   54.7791   16.3214 N   0  3  1  0  0  0
    4.5574   54.1215   15.4096 C   0  0  0  0  0  0
    5.4624   53.2115   16.2808 C   0  0  0  0  0  0
    4.9789   53.1987   17.7510 C   0  0  2  0  0  0
    3.5100   52.7051   17.7663 C   0  0  0  0  0  0
    2.6004   53.6781   16.9707 C   0  0  0  0  0  0
    0.1363   53.8561   23.7964 H   0  0  0  0  0  0
    1.1046   54.5859   22.5120 H   0  0  0  0  0  0
    1.2283   52.8445   22.8499 H   0  0  0  0  0  0
    3.1070   53.8767   21.7161 H   0  0  0  0  0  0
    7.1837   54.5647   22.8275 H   0  0  0  0  0  0
    3.2083   52.6951   26.0989 H   0  0  0  0  0  0
    4.5821   52.8988   27.1763 H   0  0  0  0  0  0
    3.5390   55.6249   28.3993 H   0  0  0  0  0  0
    1.9605   56.0627   30.2285 H   0  0  0  0  0  0
    1.6897   51.8071   27.7168 H   0  0  0  0  0  0
    5.6125   53.0257   20.4260 H   0  0  0  0  0  0
    6.6092   54.4963   20.5248 H   0  0  0  0  0  0
    3.7486   54.4892   19.8769 H   0  0  0  0  0  0
    4.8037   56.3605   16.9436 H   0  0  0  0  0  0
    3.4162   56.1221   17.9914 H   0  0  0  0  0  0
    5.1117   54.9322   14.9323 H   0  0  0  0  0  0
    4.0189   53.5622   14.6415 H   0  0  0  0  0  0
    5.4559   52.1940   15.8823 H   0  0  0  0  0  0
    6.4983   53.5472   16.2240 H   0  0  0  0  0  0
    5.6073   52.5089   18.3188 H   0  0  0  0  0  0
    3.1514   52.6072   18.7910 H   0  0  0  0  0  0
    3.4507   51.6996   17.3414 H   0  0  0  0  0  0
    1.8814   54.1930   17.6114 H   0  0  0  0  0  0
    2.0610   53.1793   16.1643 H   0  0  0  0  0  0
    2.9053   55.3984   15.7709 H   0  0  0  0  0  0
  1  2  1  0  0  0
  1 31  1  0  0  0
  1 32  1  0  0  0
  1 33  1  0  0  0
  2  3  1  0  0  0
  3  8  2  0  0  0
  3  4  1  0  0  0
  4  5  2  0  0  0
  4 34  1  0  0  0
  5  6  1  0  0  0
  5 20  1  0  0  0
  6  7  2  0  0  0
  6 35  1  0  0  0
  7  8  1  0  0  0
  7 19  1  0  0  0
  8  9  1  0  0  0
  9 10  1  0  0  0
 10 11  1  0  0  0
 10 36  1  0  0  0
 10 37  1  0  0  0
 11 16  2  0  0  0
 11 12  1  0  0  0
 12 13  2  0  0  0
 12 38  1  0  0  0
 13 14  1  0  0  0
 13 39  1  0  0  0
 14 15  2  0  0  0
 14 18  1  0  0  0
 15 16  1  0  0  0
 15 17  1  0  0  0
 16 40  1  0  0  0
 20 21  1  0  0  0
 20 41  1  0  0  0
 20 42  1  0  0  0
 21 22  1  0  0  0
 21 43  1  0  0  0
 22 23  1  0  0  0
 22 28  1  0  0  0
 22 24  1  0  0  0
 24 25  1  0  0  0
 24 44  1  0  0  0
 24 45  1  0  0  0
 25 30  1  0  0  0
 25 26  1  0  0  0
 25 55  1  0  0  0
 26 27  1  0  0  0
 26 46  1  0  0  0
 26 47  1  0  0  0
 27 28  1  0  0  0
 27 48  1  0  0  0
 27 49  1  0  0  0
 28 29  1  0  0  0
 28 50  1  0  0  0
 29 30  1  0  0  0
 29 51  1  0  0  0
 29 52  1  0  0  0
 30 53  1  0  0  0
 30 54  1  0  0  0
M  CHG  1  25   1
M  END
> <i_i_glide_confnum>
121

> <i_i_glide_lignum>
5236

> <i_i_glide_posenum>
93

> <i_i_glide_rotatable_bonds>
7

> <i_m_Source_File_Index>
3249

> <b_m_subgroup_collapsed>
0

> <r_i_docking_score>
-5.40585

> <r_i_glide_ecoul>
-5.12709

> <r_i_glide_eff_state_penalty>
0

> <r_i_glide_einternal>
4.04069

> <r_i_glide_emodel>
-61.5283

> <r_i_glide_energy>
-45.0005

> <r_i_glide_erotb>
0.487738

> <r_i_glide_esite>
0

> <r_i_glide_evdw>
-39.8734

> <r_i_glide_gscore>
-5.40585

> <r_i_glide_hbond>
0

> <r_i_glide_ligand_efficiency>
-0.186409

> <r_i_glide_ligand_efficiency_ln>
-1.2378

> <r_i_glide_ligand_efficiency_sa>
-0.572707

> <r_i_glide_lipo>
-3.07252

> <r_i_glide_metal>
0

> <r_i_glide_rewards>
-0.0583333

> <s_i_glide_gridfile>
wee1_glide-grid

> <s_m_Source_File>
wee1_decoys_glide_SP.sdf

> <s_m_Source_Path>
/Users/zhangxujun/Desktop

> <s_m_entry_id>
3524

> <s_m_entry_name>
wee1_decoys_glide_SP.3249

> <s_m_subgroup_title>
wee1_decoys_glide_SP

> <s_m_subgroupid>
wee1_decoys_glide_SP


$$$$
