@<TRIPOS>MOLECULE
ZINC00673855_5215
42   45    1
SMALL
USER_CHARGES


@<TRIPOS>ATOM
      1 C1          7.9796   55.6975   20.3541 C.ar      1 UNK         0.0000 
      2 C2          7.3699   55.4619   21.5863 C.ar      1 UNK         0.0000 
      3 C3          6.1085   54.8549   21.6469 C.ar      1 UNK         0.0000 
      4 C4          5.4541   54.5259   20.4550 C.ar      1 UNK         0.0000 
      5 C5          6.0508   54.7934   19.2224 C.ar      1 UNK         0.0000 
      6 C6          7.3173   55.3732   19.1715 C.ar      1 UNK         0.0000 
      7 Cl7         5.2275   54.3933   17.7607 Cl        1 UNK         0.0000 
      8 N8          5.4523   54.4966   22.8347 N.am      1 UNK         0.0000 
      9 C9          5.7260   54.8250   24.1160 C.2       1 UNK         0.0000 
     10 O10         6.7047   55.4590   24.5094 O.2       1 UNK         0.0000 
     11 C11         4.7214   54.3640   25.0432 C.ar      1 UNK         0.0000 
     12 C12         3.3329   54.1871   24.7956 C.ar      1 UNK         0.0000 
     13 C13         2.8208   53.6961   25.9773 C.ar      1 UNK         0.0000 
     14 N14         3.8779   53.6348   26.8580 N.pl3     1 UNK         0.0000 
     15 N15         5.0060   54.0880   26.2993 N.2       1 UNK         0.0000 
     16 C16         3.8298   53.1885   28.2505 C.3       1 UNK         0.0000 
     17 H17         4.6609   52.4974   28.3958 H         1 UNK         0.0000 
     18 C18         2.4928   52.4219   28.4494 C.3       1 UNK         0.0000 
     19 C19         1.2889   53.1207   27.7725 C.3       1 UNK         0.0000 
     20 H20         1.2065   54.1397   28.1546 H         1 UNK         0.0000 
     21 N21         1.5742   53.2226   26.3375 N.pl3     1 UNK         0.0000 
     22 C22        -0.0230   52.4118   28.0774 C.2       1 UNK         0.0000 
     23 C23        -0.4959   51.9714   29.3177 C.2       1 UNK         0.0000 
     24 C24        -1.7149   51.2993   29.2725 C.2       1 UNK         0.0000 
     25 C25        -2.2656   51.2964   28.0058 C.2       1 UNK         0.0000 
     26 S26        -1.2174   52.0368   26.8518 S.3       1 UNK         0.0000 
     27 C27         4.0194   54.3345   29.2570 C.3       1 UNK         0.0000 
     28 F28         3.9040   53.8448   30.4817 F         1 UNK         0.0000 
     29 F29         5.2214   54.8960   29.1645 F         1 UNK         0.0000 
     30 F30         3.1050   55.2966   29.1312 F         1 UNK         0.0000 
     31 Br31        2.3224   54.4966   23.2054 Br        1 UNK         0.0000 
     32 H32         8.9686   56.1319   20.3145 H         1 UNK         0.0000 
     33 H33         7.9046   55.7279   22.4813 H         1 UNK         0.0000 
     34 H34         4.4786   54.0600   20.4700 H         1 UNK         0.0000 
     35 H35         7.7861   55.5682   18.2165 H         1 UNK         0.0000 
     36 H36         4.5937   53.9809   22.7029 H         1 UNK         0.0000 
     37 H37         2.5939   51.4000   28.0809 H         1 UNK         0.0000 
     38 H38         2.2974   52.2910   29.5140 H         1 UNK         0.0000 
     39 H39         0.7634   53.4257   25.7712 H         1 UNK         0.0000 
     40 H40         0.0538   52.0939   30.2397 H         1 UNK         0.0000 
     41 H41        -2.1860   50.8556   30.1390 H         1 UNK         0.0000 
     42 H42        -3.1921   50.8368   27.6947 H         1 UNK         0.0000 
@<TRIPOS>BOND
     1    1    6 ar   
     2    1    2 ar   
     3    1   32 1    
     4    2    3 ar   
     5    2   33 1    
     6    3    4 ar   
     7    3    8 1    
     8    4    5 ar   
     9    4   34 1    
    10    5    6 ar   
    11    5    7 1    
    12    6   35 1    
    13    8    9 am   BACKBONE|DICT|INTERRES
    14    8   36 1    
    15    9   10 2    
    16    9   11 1    
    17   11   15 ar   
    18   11   12 ar   
    19   12   13 ar   
    20   12   31 1    
    21   13   21 1    
    22   13   14 ar   
    23   14   15 ar   
    24   14   16 1    
    25   16   17 1    
    26   16   18 1    
    27   16   27 1    
    28   18   19 1    
    29   18   37 1    
    30   18   38 1    
    31   19   20 1    
    32   19   21 1    
    33   19   22 1    
    34   21   39 1    
    35   22   26 1    
    36   22   23 2    
    37   23   24 1    
    38   23   40 1    
    39   24   25 2    
    40   24   41 1    
    41   25   26 1    
    42   25   42 1    
    43   27   28 1    
    44   27   29 1    
    45   27   30 1    
@<TRIPOS>SUBSTRUCTURE
     1 UNK         1 GROUP             0       ****    0 ROOT    
