ZINC01762768_5768
                    3D
 Schrodinger Suite 2024-2.
 66 70  0  0  1  0            999 V2000
    1.8232   56.4657   29.3932 C   0  0  0  0  0  0
    2.6607   55.1866   29.2819 C   0  0  0  0  0  0
    2.0761   54.1556   30.0817 O   0  0  0  0  0  0
    1.0977   53.3176   29.5710 C   0  0  0  0  0  0
    0.9560   53.0370   28.2015 C   0  0  0  0  0  0
   -0.0058   52.1305   27.7263 C   0  0  0  0  0  0
   -0.8367   51.5020   28.6555 C   0  0  0  0  0  0
   -0.7129   51.7604   30.0168 C   0  0  0  0  0  0
    0.2424   52.6635   30.4752 C   0  0  0  0  0  0
    0.3044   52.8994   31.8266 O   0  0  0  0  0  0
   -0.1497   51.8104   26.3004 C   0  0  0  0  0  0
    0.4483   52.4564   25.3831 N   0  0  0  0  0  0
    0.1903   52.0052   24.1419 N   0  0  0  0  0  0
    0.6308   52.6522   23.0455 C   0  0  0  0  0  0
    1.2881   53.6966   23.0823 O   0  0  0  0  0  0
    0.2208   52.0684   21.6861 C   0  0  0  0  0  0
    1.4710   50.9657   20.9444 S   0  0  0  0  0  0
    2.6500   52.2017   20.3473 C   0  0  0  0  0  0
    3.4931   52.5962   21.2326 N   0  0  0  0  0  0
    4.3930   53.5362   20.8602 C   0  0  0  0  0  0
    4.5270   54.0629   19.5816 C   0  0  0  0  0  0
    5.6225   54.9422   19.4776 C   0  0  0  0  0  0
    6.2815   55.0937   20.7116 C   0  0  0  0  0  0
    5.5046   54.2038   21.9901 S   0  0  0  0  0  0
    7.5861   55.8506   20.9198 C   0  0  0  0  0  0
    7.9087   56.6873   19.6625 C   0  0  0  0  0  0
    7.6370   55.9358   18.3519 C   0  0  0  0  0  0
    6.1423   55.5898   18.1944 C   0  0  0  0  0  0
    3.5736   53.6543   18.5498 C   0  0  0  0  0  0
    3.5520   54.0902   17.3921 O   0  0  0  0  0  0
    2.6606   52.7185   19.0414 N   0  0  0  0  0  0
    1.6721   52.2940   18.1239 C   0  0  0  0  0  0
    0.4060   52.8901   18.1128 C   0  0  0  0  0  0
   -0.5610   52.4579   17.2098 C   0  0  0  0  0  0
   -0.2612   51.4300   16.3122 C   0  0  0  0  0  0
    1.0135   50.8596   16.2962 C   0  0  0  0  0  0
    1.9780   51.2978   17.1964 C   0  0  0  0  0  0
   -1.3128   50.9549   15.3279 C   0  0  0  0  0  0
    2.3041   57.2967   28.8804 H   0  0  0  0  0  0
    1.6888   56.7600   30.4358 H   0  0  0  0  0  0
    0.8344   56.3300   28.9507 H   0  0  0  0  0  0
    2.8372   54.9220   28.2427 H   0  0  0  0  0  0
    3.6548   55.3747   29.6811 H   0  0  0  0  0  0
    1.6133   53.4896   27.4780 H   0  0  0  0  0  0
   -1.5827   50.7852   28.3372 H   0  0  0  0  0  0
   -1.3537   51.2428   30.7187 H   0  0  0  0  0  0
   -0.3802   52.4206   32.3323 H   0  0  0  0  0  0
   -0.8222   50.9790   26.0915 H   0  0  0  0  0  0
   -0.3747   51.1723   24.0849 H   0  0  0  0  0  0
   -0.7198   51.5266   21.7729 H   0  0  0  0  0  0
    0.0371   52.8953   21.0040 H   0  0  0  0  0  0
    7.5457   56.4967   21.7961 H   0  0  0  0  0  0
    8.3941   55.1373   21.0832 H   0  0  0  0  0  0
    7.3167   57.6032   19.6779 H   0  0  0  0  0  0
    8.9584   56.9830   19.6803 H   0  0  0  0  0  0
    7.9599   56.5382   17.5013 H   0  0  0  0  0  0
    8.2314   55.0226   18.3192 H   0  0  0  0  0  0
    6.0173   54.9344   17.3339 H   0  0  0  0  0  0
    5.5630   56.4903   17.9744 H   0  0  0  0  0  0
    0.1921   53.6956   18.7958 H   0  0  0  0  0  0
   -1.5350   52.9232   17.2077 H   0  0  0  0  0  0
    1.2637   50.0820   15.5893 H   0  0  0  0  0  0
    2.9779   50.8970   17.1724 H   0  0  0  0  0  0
   -1.8859   50.1300   15.7528 H   0  0  0  0  0  0
   -2.0003   51.7595   15.0601 H   0  0  0  0  0  0
   -0.8533   50.6183   14.3982 H   0  0  0  0  0  0
  1  2  1  0  0  0
  1 39  1  0  0  0
  1 40  1  0  0  0
  1 41  1  0  0  0
  2  3  1  0  0  0
  2 42  1  0  0  0
  2 43  1  0  0  0
  3  4  1  0  0  0
  4  9  2  0  0  0
  4  5  1  0  0  0
  5  6  2  0  0  0
  5 44  1  0  0  0
  6  7  1  0  0  0
  6 11  1  0  0  0
  7  8  2  0  0  0
  7 45  1  0  0  0
  8  9  1  0  0  0
  8 46  1  0  0  0
  9 10  1  0  0  0
 10 47  1  0  0  0
 11 12  2  0  0  0
 11 48  1  0  0  0
 12 13  1  0  0  0
 13 14  1  0  0  0
 13 49  1  0  0  0
 14 15  2  0  0  0
 14 16  1  0  0  0
 16 17  1  0  0  0
 16 50  1  0  0  0
 16 51  1  0  0  0
 17 18  1  0  0  0
 18 31  1  0  0  0
 18 19  2  0  0  0
 19 20  1  0  0  0
 20 24  1  0  0  0
 20 21  2  0  0  0
 21 22  1  0  0  0
 21 29  1  0  0  0
 22 28  1  0  0  0
 22 23  2  0  0  0
 23 24  1  0  0  0
 23 25  1  0  0  0
 25 26  1  0  0  0
 25 52  1  0  0  0
 25 53  1  0  0  0
 26 27  1  0  0  0
 26 54  1  0  0  0
 26 55  1  0  0  0
 27 28  1  0  0  0
 27 56  1  0  0  0
 27 57  1  0  0  0
 28 58  1  0  0  0
 28 59  1  0  0  0
 29 30  2  0  0  0
 29 31  1  0  0  0
 31 32  1  0  0  0
 32 37  2  0  0  0
 32 33  1  0  0  0
 33 34  2  0  0  0
 33 60  1  0  0  0
 34 35  1  0  0  0
 34 61  1  0  0  0
 35 36  2  0  0  0
 35 38  1  0  0  0
 36 37  1  0  0  0
 36 62  1  0  0  0
 37 63  1  0  0  0
 38 64  1  0  0  0
 38 65  1  0  0  0
 38 66  1  0  0  0
M  END
> <i_i_glide_confnum>
103

> <i_i_glide_lignum>
5769

> <i_i_glide_posenum>
317

> <i_i_glide_rotatable_bonds>
10

> <i_m_Source_File_Index>
4032

> <b_m_subgroup_collapsed>
0

> <r_i_docking_score>
-5.27165

> <r_i_glide_ecoul>
-10.0781

> <r_i_glide_eff_state_penalty>
0

> <r_i_glide_einternal>
11.5571

> <r_i_glide_emodel>
-64.7455

> <r_i_glide_energy>
-52.2121

> <r_i_glide_erotb>
0.550692

> <r_i_glide_esite>
-0.0436316

> <r_i_glide_evdw>
-42.134

> <r_i_glide_gscore>
-5.27165

> <r_i_glide_hbond>
-0.293743

> <r_i_glide_ligand_efficiency>
-0.138728

> <r_i_glide_ligand_efficiency_ln>
-1.13672

> <r_i_glide_ligand_efficiency_sa>
-0.466399

> <r_i_glide_lipo>
-1.7068

> <r_i_glide_metal>
0

> <r_i_glide_rewards>
-0.159756

> <s_i_glide_gridfile>
wee1_glide-grid

> <s_m_Source_File>
wee1_decoys_glide_SP.sdf

> <s_m_Source_Path>
/Users/zhangxujun/Desktop

> <s_m_entry_id>
4307

> <s_m_entry_name>
wee1_decoys_glide_SP.4032

> <s_m_subgroup_title>
wee1_decoys_glide_SP

> <s_m_subgroupid>
wee1_decoys_glide_SP


$$$$
