@<TRIPOS>MOLECULE
ZINC20876398_5236
46   48    1
SMALL
USER_CHARGES


@<TRIPOS>ATOM
      1 C1          7.0860   54.5752   24.4296 C.3       1 UNK         0.0000 
      2 O2          5.7316   54.4669   24.8408 O.3       1 UNK         0.0000 
      3 C3          4.7685   54.1025   23.9167 C.ar      1 UNK         0.0000 
      4 C4          5.0494   53.7603   22.5806 C.ar      1 UNK         0.0000 
      5 C5          4.0235   53.4255   21.6890 C.ar      1 UNK         0.0000 
      6 C6          2.7042   53.4174   22.1489 C.ar      1 UNK         0.0000 
      7 C7          2.4099   53.7484   23.4715 C.ar      1 UNK         0.0000 
      8 C8          3.4363   54.0992   24.3550 C.ar      1 UNK         0.0000 
      9 O9          3.1256   54.4443   25.6542 O.3       1 UNK         0.0000 
     10 C10         3.1278   53.3411   26.5549 C.3       1 UNK         0.0000 
     11 C11         2.3027   53.6158   27.8089 C.ar      1 UNK         0.0000 
     12 C12         1.5910   52.5700   28.4081 C.ar      1 UNK         0.0000 
     13 C13         0.8470   52.7938   29.5654 C.ar      1 UNK         0.0000 
     14 C14         0.8091   54.0632   30.1418 C.ar      1 UNK         0.0000 
     15 C15         1.5157   55.1182   29.5482 C.ar      1 UNK         0.0000 
     16 C16         2.2602   54.8873   28.3883 C.ar      1 UNK         0.0000 
     17 Cl17        1.5034   56.7089   30.2304 Cl        1 UNK         0.0000 
     18 Cl18       -0.0925   54.2886   31.5980 Cl        1 UNK         0.0000 
     19 Br19        0.6008   53.6968   24.0694 Br        1 UNK         0.0000 
     20 C20         4.3493   53.1021   20.2332 C.3       1 UNK         0.0000 
     21 N21         3.9033   51.6971   19.7913 N.4       1 UNK         0.0000 
     22 C22         2.5317   51.6271   19.1043 C.3       1 UNK         0.0000 
     23 C23         1.9381   50.2951   19.4780 C.2       1 UNK         0.0000 
     24 C24         1.8856   49.0540   18.8602 C.2       1 UNK         0.0000 
     25 C25         1.1936   48.2019   19.7221 C.2       1 UNK         0.0000 
     26 C26         0.8600   48.9610   20.8311 C.2       1 UNK         0.0000 
     27 O27         1.3175   50.2299   20.6832 O.3       1 UNK         0.0000 
     28 H28         7.6788   54.8961   25.2809 H         1 UNK         0.0000 
     29 H29         7.4861   53.6197   24.0890 H         1 UNK         0.0000 
     30 H30         7.2040   55.3194   23.6404 H         1 UNK         0.0000 
     31 H31         6.0661   53.7696   22.2189 H         1 UNK         0.0000 
     32 H32         1.8937   53.1673   21.4820 H         1 UNK         0.0000 
     33 H33         2.6759   52.4921   26.0527 H         1 UNK         0.0000 
     34 H34         4.1480   53.0748   26.8342 H         1 UNK         0.0000 
     35 H35         1.6107   51.5777   27.9800 H         1 UNK         0.0000 
     36 H36         0.2992   51.9780   30.0192 H         1 UNK         0.0000 
     37 H37         2.8111   55.6966   27.9375 H         1 UNK         0.0000 
     38 H38         5.4261   53.0940   20.0555 H         1 UNK         0.0000 
     39 H39         3.8938   53.8159   19.5412 H         1 UNK         0.0000 
     40 H40         3.8730   51.1110   20.6112 H         1 UNK         0.0000 
     41 H41         2.7642   51.7182   18.0405 H         1 UNK         0.0000 
     42 H42         1.9325   52.4816   19.4172 H         1 UNK         0.0000 
     43 H43         2.3032   48.8054   17.8916 H         1 UNK         0.0000 
     44 H44         0.9678   47.1584   19.5548 H         1 UNK         0.0000 
     45 H45         0.3319   48.7512   21.7495 H         1 UNK         0.0000 
     46 H46         4.5773   51.2676   19.1411 H         1 UNK         0.0000 
@<TRIPOS>BOND
     1    1    2 1    
     2    1   28 1    
     3    1   29 1    
     4    1   30 1    
     5    2    3 1    
     6    3    8 ar   
     7    3    4 ar   
     8    4    5 ar   
     9    4   31 1    
    10    5    6 ar   
    11    5   20 1    
    12    6    7 ar   
    13    6   32 1    
    14    7    8 ar   
    15    7   19 1    
    16    8    9 1    
    17    9   10 1    
    18   10   11 1    
    19   10   33 1    
    20   10   34 1    
    21   11   16 ar   
    22   11   12 ar   
    23   12   13 ar   
    24   12   35 1    
    25   13   14 ar   
    26   13   36 1    
    27   14   15 ar   
    28   14   18 1    
    29   15   16 ar   
    30   15   17 1    
    31   16   37 1    
    32   20   21 1    
    33   20   38 1    
    34   20   39 1    
    35   21   22 1    
    36   21   40 1    
    37   21   46 1    
    38   22   23 1    
    39   22   41 1    
    40   22   42 1    
    41   23   27 1    
    42   23   24 2    
    43   24   25 1    
    44   24   43 1    
    45   25   26 2    
    46   25   44 1    
    47   26   27 1    
    48   26   45 1    
@<TRIPOS>SUBSTRUCTURE
     1 UNK         1 GROUP             0       ****    0 ROOT    
