@<TRIPOS>MOLECULE
ZINC35337840_167
59   62    1
SMALL
USER_CHARGES


@<TRIPOS>ATOM
      1 C1          2.9242   52.5141   29.2210 C.3       1 UNK         0.0000 
      2 C2          1.8623   52.3603   28.1465 C.ar      1 UNK         0.0000 
      3 C3          0.6686   51.6965   28.4348 C.ar      1 UNK         0.0000 
      4 C4         -0.3079   51.5587   27.4516 C.ar      1 UNK         0.0000 
      5 C5         -0.0966   52.1074   26.1845 C.ar      1 UNK         0.0000 
      6 C6          1.1042   52.7586   25.8886 C.ar      1 UNK         0.0000 
      7 C7          2.0771   52.8968   26.8748 C.ar      1 UNK         0.0000 
      8 S8         -1.3932   52.0378   24.9495 S.o2      1 UNK         0.0000 
      9 O9         -1.2486   53.2078   24.0750 O.2       1 UNK         0.0000 
     10 O10        -2.6544   51.7711   25.6476 O.2       1 UNK         0.0000 
     11 N11        -1.0524   50.5912   23.9896 N.pl3     1 UNK         0.0000 
     12 C12         0.0471   50.5109   23.1275 C.ar      1 UNK         0.0000 
     13 C13         0.9118   49.4238   23.2433 C.ar      1 UNK         0.0000 
     14 C14         1.9998   49.2968   22.3806 C.ar      1 UNK         0.0000 
     15 C15         2.2351   50.2486   21.3980 C.ar      1 UNK         0.0000 
     16 C16         1.3857   51.3501   21.2799 C.ar      1 UNK         0.0000 
     17 C17         0.2841   51.4691   22.1348 C.ar      1 UNK         0.0000 
     18 C18         1.6940   52.4441   20.2583 C.3       1 UNK         0.0000 
     19 H19         1.0787   53.2967   20.5436 H         1 UNK         0.0000 
     20 C20         1.3125   52.0661   18.8132 C.2       1 UNK         0.0000 
     21 C21         2.2281   52.0707   17.8124 C.2       1 UNK         0.0000 
     22 N22         3.5023   52.4966   18.0911 N.pl3     1 UNK         0.0000 
     23 C23         3.9213   52.9875   19.2587 C.2       1 UNK         0.0000 
     24 N24         3.1042   52.9261   20.3293 N.pl3     1 UNK         0.0000 
     25 C25         3.4257   53.5415   21.6385 C.3       1 UNK         0.0000 
     26 C26         4.9412   53.7262   21.8345 C.3       1 UNK         0.0000 
     27 C27         5.6087   54.5637   20.7395 C.3       1 UNK         0.0000 
     28 S28         5.5004   53.6981   19.1606 S.3       1 UNK         0.0000 
     29 C29         1.9985   51.7563   16.3352 C.3       1 UNK         0.0000 
     30 C30        -0.0757   51.6954   18.5993 C.2       1 UNK         0.0000 
     31 O31        -1.0099   52.4451   18.8889 O.2       1 UNK         0.0000 
     32 N32        -0.2463   50.4572   18.1074 N.am      1 UNK         0.0000 
     33 C33        -1.5439   49.8573   17.8315 C.3       1 UNK         0.0000 
     34 H34         2.4848   52.4896   30.2191 H         1 UNK         0.0000 
     35 H35         3.6670   51.7197   29.1415 H         1 UNK         0.0000 
     36 H36         3.4348   53.4733   29.1263 H         1 UNK         0.0000 
     37 H37         0.4890   51.2863   29.4174 H         1 UNK         0.0000 
     38 H38        -1.2304   51.0437   27.6867 H         1 UNK         0.0000 
     39 H39         1.2699   53.1828   24.9084 H         1 UNK         0.0000 
     40 H40         2.9991   53.4128   26.6486 H         1 UNK         0.0000 
     41 H41        -1.3289   49.7351   24.4473 H         1 UNK         0.0000 
     42 H42         0.7540   48.6756   24.0072 H         1 UNK         0.0000 
     43 H43         2.6813   48.4699   22.4811 H         1 UNK         0.0000 
     44 H44         3.0885   50.1386   20.7426 H         1 UNK         0.0000 
     45 H45        -0.3860   52.3055   22.0116 H         1 UNK         0.0000 
     46 H46         3.0237   52.9267   22.4438 H         1 UNK         0.0000 
     47 H47         2.9109   54.5018   21.6817 H         1 UNK         0.0000 
     48 H48         5.4239   52.7476   21.9014 H         1 UNK         0.0000 
     49 H49         5.1157   54.2045   22.8006 H         1 UNK         0.0000 
     50 H50         6.6610   54.7602   20.9527 H         1 UNK         0.0000 
     51 H51         5.1102   55.5243   20.6169 H         1 UNK         0.0000 
     52 H52         2.3257   50.7398   16.1146 H         1 UNK         0.0000 
     53 H53         0.9498   51.8336   16.0511 H         1 UNK         0.0000 
     54 H54         2.5473   52.4413   15.6870 H         1 UNK         0.0000 
     55 H55         0.5738   49.8998   17.9185 H         1 UNK         0.0000 
     56 H56        -1.4234   48.9806   17.1935 H         1 UNK         0.0000 
     57 H57        -2.0234   49.5440   18.7611 H         1 UNK         0.0000 
     58 H58        -2.2053   50.5606   17.3213 H         1 UNK         0.0000 
     59 H59         4.2092   52.3957   17.3741 H         1 UNK         0.0000 
@<TRIPOS>BOND
     1    1    2 1    
     2    1   34 1    
     3    1   35 1    
     4    1   36 1    
     5    2    7 ar   
     6    2    3 ar   
     7    3    4 ar   
     8    3   37 1    
     9    4    5 ar   
    10    4   38 1    
    11    5    6 ar   
    12    5    8 1    
    13    6    7 ar   
    14    6   39 1    
    15    7   40 1    
    16    8    9 2    
    17    8   10 2    
    18    8   11 1    
    19   11   12 1    
    20   11   41 1    
    21   12   17 ar   
    22   12   13 ar   
    23   13   14 ar   
    24   13   42 1    
    25   14   15 ar   
    26   14   43 1    
    27   15   16 ar   
    28   15   44 1    
    29   16   17 ar   
    30   16   18 1    
    31   17   45 1    
    32   18   19 1    
    33   18   24 1    
    34   18   20 1    
    35   20   21 2    
    36   20   30 1    
    37   21   22 1    
    38   21   29 1    
    39   22   23 2    
    40   22   59 1    
    41   23   28 1    
    42   23   24 1    
    43   24   25 1    
    44   25   26 1    
    45   25   46 1    
    46   25   47 1    
    47   26   27 1    
    48   26   48 1    
    49   26   49 1    
    50   27   28 1    
    51   27   50 1    
    52   27   51 1    
    53   29   52 1    
    54   29   53 1    
    55   29   54 1    
    56   30   31 2    
    57   30   32 am   BACKBONE|DICT|INTERRES
    58   32   33 1    
    59   32   55 1    
    60   33   56 1    
    61   33   57 1    
    62   33   58 1    
@<TRIPOS>SUBSTRUCTURE
     1 UNK         1 GROUP             0       ****    0 ROOT    
