@<TRIPOS>MOLECULE
ZINC14535699_3714
58   61    1
SMALL
USER_CHARGES


@<TRIPOS>ATOM
      1 C1          9.5105   56.2138   18.2613 C.3       1 UNK         0.0000 
      2 N2          8.5211   55.3144   18.8803 N.pl3     1 UNK         0.0000 
      3 S3          6.9139   55.9818   19.0927 S.o2      1 UNK         0.0000 
      4 O4          6.2068   55.8394   17.8169 O.2       1 UNK         0.0000 
      5 O5          7.0542   57.2960   19.7322 O.2       1 UNK         0.0000 
      6 C6          6.1414   54.8969   20.2818 C.ar      1 UNK         0.0000 
      7 C7          6.3813   55.0873   21.6467 C.ar      1 UNK         0.0000 
      8 C8          5.7878   54.2439   22.5921 C.ar      1 UNK         0.0000 
      9 C9          4.9921   53.1868   22.1324 C.ar      1 UNK         0.0000 
     10 C10         4.7042   53.0078   20.7774 C.ar      1 UNK         0.0000 
     11 C11         5.3039   53.8625   19.8505 C.ar      1 UNK         0.0000 
     12 N12         3.7809   52.0471   20.3188 N.pl3     1 UNK         0.0000 
     13 C13         2.9815   51.1711   21.1930 C.3       1 UNK         0.0000 
     14 C14         2.0228   51.8569   22.1966 C.ar      1 UNK         0.0000 
     15 C15         1.9171   53.2479   22.3093 C.ar      1 UNK         0.0000 
     16 C16         1.1347   53.8467   23.2816 C.ar      1 UNK         0.0000 
     17 C17         0.3759   53.0804   24.1498 C.ar      1 UNK         0.0000 
     18 C18         0.4051   51.6769   24.0631 C.ar      1 UNK         0.0000 
     19 C19         1.2299   51.0442   23.0755 C.ar      1 UNK         0.0000 
     20 N20         1.2600   49.6845   22.9665 N.ar      1 UNK         0.0000 
     21 C21         0.5000   48.9438   23.8127 C.ar      1 UNK         0.0000 
     22 C22        -0.3021   49.4847   24.8095 C.ar      1 UNK         0.0000 
     23 C23        -0.3581   50.8665   24.9381 C.ar      1 UNK         0.0000 
     24 C24         5.9643   54.4974   24.0720 C.2       1 UNK         0.0000 
     25 O25         6.9581   55.0830   24.5035 O.2       1 UNK         0.0000 
     26 N26         4.9228   54.1091   24.8390 N.am      1 UNK         0.0000 
     27 C27         4.7937   54.2172   26.2294 C.ar      1 UNK         0.0000 
     28 C28         5.8833   54.1613   27.1103 C.ar      1 UNK         0.0000 
     29 C29         5.6742   54.2792   28.4812 C.ar      1 UNK         0.0000 
     30 C30         4.3859   54.4601   28.9859 C.ar      1 UNK         0.0000 
     31 C31         3.2981   54.4967   28.1140 C.ar      1 UNK         0.0000 
     32 C32         3.5007   54.3560   26.7407 C.ar      1 UNK         0.0000 
     33 S33         1.6616   54.7327   28.7343 S.3       1 UNK         0.0000 
     34 C34         1.7085   56.2887   29.6656 C.3       1 UNK         0.0000 
     35 H35        10.4361   55.6649   18.0820 H         1 UNK         0.0000 
     36 H36         9.1372   56.5921   17.3084 H         1 UNK         0.0000 
     37 H37         9.7366   57.0373   18.9408 H         1 UNK         0.0000 
     38 H38         8.4726   54.4433   18.3451 H         1 UNK         0.0000 
     39 H39         7.0215   55.8983   21.9684 H         1 UNK         0.0000 
     40 H40         4.5326   52.5258   22.8425 H         1 UNK         0.0000 
     41 H41         5.1031   53.7360   18.7961 H         1 UNK         0.0000 
     42 H42         3.9193   51.7198   19.3674 H         1 UNK         0.0000 
     43 H43         2.3884   50.5186   20.5508 H         1 UNK         0.0000 
     44 H44         3.6505   50.5106   21.7459 H         1 UNK         0.0000 
     45 H45         2.4597   53.9052   21.6520 H         1 UNK         0.0000 
     46 H46         1.1029   54.9213   23.3434 H         1 UNK         0.0000 
     47 H47        -0.2549   53.5536   24.8820 H         1 UNK         0.0000 
     48 H48         0.5652   47.8739   23.7036 H         1 UNK         0.0000 
     49 H49        -0.8658   48.8465   25.4766 H         1 UNK         0.0000 
     50 H50        -0.9734   51.3218   25.7005 H         1 UNK         0.0000 
     51 H51         4.1106   53.7614   24.3537 H         1 UNK         0.0000 
     52 H52         6.8902   54.0158   26.7487 H         1 UNK         0.0000 
     53 H53         6.5176   54.2458   29.1531 H         1 UNK         0.0000 
     54 H54         4.2405   54.5624   30.0503 H         1 UNK         0.0000 
     55 H55         2.6513   54.3817   26.0740 H         1 UNK         0.0000 
     56 H56         0.7045   56.5798   29.9674 H         1 UNK         0.0000 
     57 H57         2.3040   56.1765   30.5697 H         1 UNK         0.0000 
     58 H58         2.1334   57.0869   29.0567 H         1 UNK         0.0000 
@<TRIPOS>BOND
     1    1    2 1    
     2    1   35 1    
     3    1   36 1    
     4    1   37 1    
     5    2    3 1    
     6    2   38 1    
     7    3    4 2    
     8    3    5 2    
     9    3    6 1    
    10    6   11 ar   
    11    6    7 ar   
    12    7    8 ar   
    13    7   39 1    
    14    8    9 ar   
    15    8   24 1    
    16    9   10 ar   
    17    9   40 1    
    18   10   11 ar   
    19   10   12 1    
    20   11   41 1    
    21   12   13 1    
    22   12   42 1    
    23   13   14 1    
    24   13   43 1    
    25   13   44 1    
    26   14   19 ar   
    27   14   15 ar   
    28   15   16 ar   
    29   15   45 1    
    30   16   17 ar   
    31   16   46 1    
    32   17   18 ar   
    33   17   47 1    
    34   18   23 ar   
    35   18   19 ar   
    36   19   20 ar   
    37   20   21 ar   
    38   21   22 ar   
    39   21   48 1    
    40   22   23 ar   
    41   22   49 1    
    42   23   50 1    
    43   24   25 2    
    44   24   26 am   BACKBONE|DICT|INTERRES
    45   26   27 1    
    46   26   51 1    
    47   27   32 ar   
    48   27   28 ar   
    49   28   29 ar   
    50   28   52 1    
    51   29   30 ar   
    52   29   53 1    
    53   30   31 ar   
    54   30   54 1    
    55   31   32 ar   
    56   31   33 1    
    57   32   55 1    
    58   33   34 1    
    59   34   56 1    
    60   34   57 1    
    61   34   58 1    
@<TRIPOS>SUBSTRUCTURE
     1 UNK         1 GROUP             0       ****    0 ROOT    
