@<TRIPOS>MOLECULE
ZINC45534277_6198
60   61    1
SMALL
USER_CHARGES


@<TRIPOS>ATOM
      1 C1          1.8764   51.7125   24.3062 C.3       1 UNK         0.0000 
      2 C2          1.9419   52.7159   23.1469 C.3       1 UNK         0.0000 
      3 C3          1.1301   53.9743   23.5373 C.3       1 UNK         0.0000 
      4 C4          3.3914   52.8936   22.5414 C.3       1 UNK         0.0000 
      5 H5          3.7412   51.8857   22.3181 H         1 UNK         0.0000 
      6 C6          3.4878   53.7002   21.2325 C.3       1 UNK         0.0000 
      7 N7          3.5097   52.8909   20.0041 N.am      1 UNK         0.0000 
      8 C8          2.4755   52.2262   19.4571 C.2       1 UNK         0.0000 
      9 O9          1.3577   52.1405   19.9696 O.2       1 UNK         0.0000 
     10 N10         2.8123   51.6967   18.2675 N.am      1 UNK         0.0000 
     11 N11         1.9044   50.8880   17.5455 N.3       1 UNK         0.0000 
     12 C12         1.3481   51.5350   16.3526 C.3       1 UNK         0.0000 
     13 C13         0.5718   52.8333   16.7254 C.3       1 UNK         0.0000 
     14 C14        -0.3366   53.2423   15.5566 C.3       1 UNK         0.0000 
     15 S15        -0.9601   51.6190   14.8687 S.o2      1 UNK         0.0000 
     16 O16        -2.2920   51.3231   15.4055 O.2       1 UNK         0.0000 
     17 O17        -0.7154   51.5903   13.4238 O.2       1 UNK         0.0000 
     18 C18         0.3060   50.5612   15.7628 C.3       1 UNK         0.0000 
     19 C19         2.4757   51.8062   15.3269 C.3       1 UNK         0.0000 
     20 N20         4.4381   53.4153   23.5670 N.4       1 UNK         0.0000 
     21 C21         4.1825   54.8233   24.0950 C.3       1 UNK         0.0000 
     22 C22         4.2558   54.8648   25.6193 C.3       1 UNK         0.0000 
     23 C23         5.7038   54.9730   26.1136 C.3       1 UNK         0.0000 
     24 C24         6.5950   53.7934   25.6960 C.3       1 UNK         0.0000 
     25 C25         6.9774   53.6967   24.1860 C.3       1 UNK         0.0000 
     26 C26         5.9222   53.1992   23.1438 C.3       1 UNK         0.0000 
     27 H27         2.3837   52.0967   25.1894 H         1 UNK         0.0000 
     28 H28         0.8436   51.5135   24.5968 H         1 UNK         0.0000 
     29 H29         2.3044   50.7492   24.0304 H         1 UNK         0.0000 
     30 H30         1.3563   52.2426   22.3628 H         1 UNK         0.0000 
     31 H31         1.4602   54.4059   24.4817 H         1 UNK         0.0000 
     32 H32         1.1528   54.7519   22.7768 H         1 UNK         0.0000 
     33 H33         0.0798   53.7168   23.6817 H         1 UNK         0.0000 
     34 H34         2.7044   54.4293   21.2817 H         1 UNK         0.0000 
     35 H35         4.3632   54.3426   21.1860 H         1 UNK         0.0000 
     36 H36         4.3925   52.8439   19.5160 H         1 UNK         0.0000 
     37 H37         3.7791   51.4861   18.0412 H         1 UNK         0.0000 
     38 H38         2.4222   50.0513   17.2817 H         1 UNK         0.0000 
     39 H39        -0.0495   52.6515   17.6050 H         1 UNK         0.0000 
     40 H40         1.2482   53.6473   16.9922 H         1 UNK         0.0000 
     41 H41        -1.1646   53.9187   15.7622 H         1 UNK         0.0000 
     42 H42         0.2834   53.6982   14.7853 H         1 UNK         0.0000 
     43 H43         0.6628   49.7497   15.1307 H         1 UNK         0.0000 
     44 H44        -0.2526   50.1065   16.5818 H         1 UNK         0.0000 
     45 H45         2.0866   52.1539   14.3699 H         1 UNK         0.0000 
     46 H46         3.1819   52.5537   15.6895 H         1 UNK         0.0000 
     47 H47         3.0533   50.9016   15.1283 H         1 UNK         0.0000 
     48 H48         5.0360   55.2967   23.6546 H         1 UNK         0.0000 
     49 H49         3.2870   55.2475   23.6529 H         1 UNK         0.0000 
     50 H50         3.7846   53.9765   26.0428 H         1 UNK         0.0000 
     51 H51         3.6684   55.6968   25.9960 H         1 UNK         0.0000 
     52 H52         5.6944   55.0415   27.2035 H         1 UNK         0.0000 
     53 H53         6.1488   55.9071   25.7661 H         1 UNK         0.0000 
     54 H54         7.5044   53.8689   26.2876 H         1 UNK         0.0000 
     55 H55         6.1114   52.8967   26.0602 H         1 UNK         0.0000 
     56 H56         7.3387   54.6756   23.8670 H         1 UNK         0.0000 
     57 H57         7.8584   53.0589   24.0864 H         1 UNK         0.0000 
     58 H58         6.0771   53.7347   22.2095 H         1 UNK         0.0000 
     59 H59         5.9923   52.1427   22.8817 H         1 UNK         0.0000 
     60 H60         4.3119   52.8223   24.3763 H         1 UNK         0.0000 
@<TRIPOS>BOND
     1    1    2 1    
     2    1   27 1    
     3    1   28 1    
     4    1   29 1    
     5    2    3 1    
     6    2    4 1    
     7    2   30 1    
     8    3   31 1    
     9    3   32 1    
    10    3   33 1    
    11    4    5 1    
    12    4    6 1    
    13    4   20 1    
    14    6    7 1    
    15    6   34 1    
    16    6   35 1    
    17    7    8 am   BACKBONE|DICT|INTERRES
    18    7   36 1    
    19    8    9 2    
    20    8   10 am   BACKBONE|DICT|INTERRES
    21   10   11 1    
    22   10   37 1    
    23   11   12 1    
    24   11   38 1    
    25   12   18 1    
    26   12   13 1    
    27   12   19 1    
    28   13   14 1    
    29   13   39 1    
    30   13   40 1    
    31   14   15 1    
    32   14   41 1    
    33   14   42 1    
    34   15   16 2    
    35   15   17 2    
    36   15   18 1    
    37   18   43 1    
    38   18   44 1    
    39   19   45 1    
    40   19   46 1    
    41   19   47 1    
    42   20   26 1    
    43   20   21 1    
    44   20   60 1    
    45   21   22 1    
    46   21   48 1    
    47   21   49 1    
    48   22   23 1    
    49   22   50 1    
    50   22   51 1    
    51   23   24 1    
    52   23   52 1    
    53   23   53 1    
    54   24   25 1    
    55   24   54 1    
    56   24   55 1    
    57   25   26 1    
    58   25   56 1    
    59   25   57 1    
    60   26   58 1    
    61   26   59 1    
@<TRIPOS>SUBSTRUCTURE
     1 UNK         1 GROUP             0       ****    0 ROOT    
