ZINC12659089_2952
                    3D
 Schrodinger Suite 2024-2.
 58 60  0  0  1  0            999 V2000
   -1.0545   48.3158   24.0249 C   0  0  0  0  0  0
   -0.1687   49.5696   24.0452 C   0  0  0  0  0  0
    0.5481   49.7135   25.4023 C   0  0  0  0  0  0
    0.7505   49.4303   22.9586 O   0  0  0  0  0  0
    1.5405   50.4859   22.5406 C   0  0  0  0  0  0
    2.4774   50.1940   21.5512 C   0  0  0  0  0  0
    3.3436   51.1759   21.0792 C   0  0  0  0  0  0
    3.2939   52.4683   21.6037 C   0  0  0  0  0  0
    2.3204   52.7838   22.5598 C   0  0  0  0  0  0
    1.4483   51.7998   23.0258 C   0  0  0  0  0  0
    4.2913   53.4524   21.1247 C   0  0  0  0  0  0
    5.0592   54.2925   21.8766 C   0  0  0  0  0  0
    5.9845   55.2575   21.2446 C   0  0  0  0  0  0
    6.7634   55.9451   21.9078 O   0  0  0  0  0  0
    5.9240   55.3881   19.8971 N   0  0  0  0  0  0
    6.7238   56.2612   19.1483 C   0  0  0  0  0  0
    6.0981   57.2001   18.3305 C   0  0  0  0  0  0
    6.8686   58.1049   17.6029 C   0  0  0  0  0  0
    8.2704   58.0632   17.6769 C   0  0  0  0  0  0
    8.8839   57.1013   18.4800 C   0  0  0  0  0  0
    8.1201   56.1982   19.2123 C   0  0  0  0  0  0
    9.1110   58.9252   16.9999 O   0  0  0  0  0  0
    8.5447   59.9016   16.1316 C   0  0  0  0  0  0
    4.9389   54.2614   23.2522 N   0  0  0  0  0  0
    5.9158   54.0969   24.1775 C   0  0  0  0  0  0
    7.1043   53.9247   23.8921 O   0  0  0  0  0  0
    5.4810   54.1102   25.6322 C   0  0  0  0  0  0
    6.4537   54.1007   26.6461 C   0  0  0  0  0  0
    6.0946   54.0956   27.9919 C   0  0  0  0  0  0
    4.7512   54.0948   28.3538 C   0  0  0  0  0  0
    3.7671   54.0986   27.3685 C   0  0  0  0  0  0
    4.1256   54.1082   26.0193 C   0  0  0  0  0  0
    1.9319   54.0948   27.8678 Br  0  0  0  0  0  0
   -1.7947   48.3401   24.8260 H   0  0  0  0  0  0
   -1.5883   48.2309   23.0775 H   0  0  0  0  0  0
   -0.4571   47.4125   24.1532 H   0  0  0  0  0  0
   -0.8179   50.4319   23.8750 H   0  0  0  0  0  0
   -0.1643   49.7030   26.2277 H   0  0  0  0  0  0
    1.2505   48.8954   25.5652 H   0  0  0  0  0  0
    1.1011   50.6466   25.4772 H   0  0  0  0  0  0
    2.5465   49.1913   21.1566 H   0  0  0  0  0  0
    4.0690   50.9195   20.3179 H   0  0  0  0  0  0
    2.2296   53.7914   22.9380 H   0  0  0  0  0  0
    0.7142   52.0735   23.7659 H   0  0  0  0  0  0
    4.3673   53.4620   20.0466 H   0  0  0  0  0  0
    5.1724   54.9355   19.4022 H   0  0  0  0  0  0
    5.0201   57.2533   18.2740 H   0  0  0  0  0  0
    6.3587   58.8409   16.9998 H   0  0  0  0  0  0
    9.9620   57.0581   18.5430 H   0  0  0  0  0  0
    8.6129   55.4688   19.8405 H   0  0  0  0  0  0
    9.3454   60.4813   15.6709 H   0  0  0  0  0  0
    7.9050   60.5976   16.6760 H   0  0  0  0  0  0
    7.9671   59.4404   15.3291 H   0  0  0  0  0  0
    4.0185   54.0228   23.5849 H   0  0  0  0  0  0
    7.5045   54.0945   26.3982 H   0  0  0  0  0  0
    6.8613   54.0961   28.7549 H   0  0  0  0  0  0
    4.4725   54.0931   29.3962 H   0  0  0  0  0  0
    3.3276   54.1024   25.2910 H   0  0  0  0  0  0
  1  2  1  0  0  0
  1 34  1  0  0  0
  1 35  1  0  0  0
  1 36  1  0  0  0
  2  3  1  0  0  0
  2  4  1  0  0  0
  2 37  1  0  0  0
  3 38  1  0  0  0
  3 39  1  0  0  0
  3 40  1  0  0  0
  4  5  1  0  0  0
  5 10  2  0  0  0
  5  6  1  0  0  0
  6  7  2  0  0  0
  6 41  1  0  0  0
  7  8  1  0  0  0
  7 42  1  0  0  0
  8  9  2  0  0  0
  8 11  1  0  0  0
  9 10  1  0  0  0
  9 43  1  0  0  0
 10 44  1  0  0  0
 11 12  2  0  0  0
 11 45  1  0  0  0
 12 13  1  0  0  0
 12 24  1  0  0  0
 13 14  2  0  0  0
 13 15  1  0  0  0
 15 16  1  0  0  0
 15 46  1  0  0  0
 16 21  2  0  0  0
 16 17  1  0  0  0
 17 18  2  0  0  0
 17 47  1  0  0  0
 18 19  1  0  0  0
 18 48  1  0  0  0
 19 20  2  0  0  0
 19 22  1  0  0  0
 20 21  1  0  0  0
 20 49  1  0  0  0
 21 50  1  0  0  0
 22 23  1  0  0  0
 23 51  1  0  0  0
 23 52  1  0  0  0
 23 53  1  0  0  0
 24 25  1  0  0  0
 24 54  1  0  0  0
 25 26  2  0  0  0
 25 27  1  0  0  0
 27 32  2  0  0  0
 27 28  1  0  0  0
 28 29  2  0  0  0
 28 55  1  0  0  0
 29 30  1  0  0  0
 29 56  1  0  0  0
 30 31  2  0  0  0
 30 57  1  0  0  0
 31 32  1  0  0  0
 31 33  1  0  0  0
 32 58  1  0  0  0
M  END
> <i_i_glide_confnum>
100

> <i_i_glide_lignum>
2953

> <i_i_glide_posenum>
246

> <i_i_glide_rotatable_bonds>
10

> <i_m_Source_File_Index>
5290

> <b_m_subgroup_collapsed>
0

> <r_i_docking_score>
-5.15684

> <r_i_glide_ecoul>
-2.86011

> <r_i_glide_eff_state_penalty>
0

> <r_i_glide_einternal>
7.37955

> <r_i_glide_emodel>
-62.3022

> <r_i_glide_energy>
-51.3585

> <r_i_glide_erotb>
0.552479

> <r_i_glide_esite>
0

> <r_i_glide_evdw>
-48.4984

> <r_i_glide_gscore>
-5.15684

> <r_i_glide_hbond>
0

> <r_i_glide_ligand_efficiency>
-0.156268

> <r_i_glide_ligand_efficiency_ln>
-1.14685

> <r_i_glide_ligand_efficiency_sa>
-0.501234

> <r_i_glide_lipo>
-2.81663

> <r_i_glide_metal>
0

> <r_i_glide_rewards>
-0.0387522

> <s_i_glide_gridfile>
wee1_glide-grid

> <s_m_Source_File>
wee1_decoys_glide_SP.sdf

> <s_m_Source_Path>
/Users/zhangxujun/Desktop

> <s_m_entry_id>
5565

> <s_m_entry_name>
wee1_decoys_glide_SP.5290

> <s_m_subgroup_title>
wee1_decoys_glide_SP

> <s_m_subgroupid>
wee1_decoys_glide_SP


$$$$
