ZINC09013063_3101
                    3D
 Schrodinger Suite 2024-2.
 67 69  0  0  1  0            999 V2000
   -0.1100   49.1795   20.3775 C   0  0  0  0  0  0
    0.8637   50.2870   20.7341 C   0  0  0  0  0  0
    2.1224   50.3252   20.1319 C   0  0  0  0  0  0
    3.0291   51.3208   20.4817 C   0  0  0  0  0  0
    2.6799   52.2775   21.4456 C   0  0  0  0  0  0
    1.4102   52.2533   22.0243 C   0  0  0  0  0  0
    0.5072   51.2511   21.6790 C   0  0  0  0  0  0
    3.5577   53.2897   21.8672 N   0  0  0  0  0  0
    4.8842   53.1532   22.0817 C   0  0  0  0  0  0
    5.5042   52.1114   21.8772 O   0  0  0  0  0  0
    5.6174   54.3317   22.7341 C   0  0  0  0  0  0
    5.1227   54.4690   24.1077 N   0  0  0  0  0  0
    5.8784   54.5196   25.2198 C   0  0  0  0  0  0
    7.1044   54.4982   25.1881 O   0  0  0  0  0  0
    5.1694   54.5989   26.5914 C   0  0  0  0  0  0
    3.6361   54.7714   26.4999 C   0  0  0  0  0  0
    3.0167   54.8748   27.9098 C   0  0  0  0  0  0
    3.4074   53.6565   28.6334 N   0  0  0  0  0  0
    4.8560   53.5662   28.9127 C   0  0  0  0  0  0
    5.5974   53.4626   27.5525 C   0  0  0  0  0  0
    2.5624   52.6385   28.9541 C   0  0  0  0  0  0
    2.9458   51.6967   29.6546 O   0  0  0  0  0  0
    1.0971   52.6251   28.4211 C   0  0  2  0  0  0
    0.9404   53.3756   27.6497 H   0  0  0  0  0  0
    0.1286   52.8577   29.5775 C   0  0  0  0  0  0
    0.8626   51.3013   27.7878 N   0  0  0  0  0  0
    0.3044   51.1828   26.1204 S   0  0  0  0  0  0
    1.0398   52.1817   25.3346 O   0  0  0  0  0  0
    0.3245   49.7667   25.7462 O   0  0  0  0  0  0
   -1.4170   51.6670   26.1215 C   0  0  0  0  0  0
   -1.9053   52.4966   25.1110 C   0  0  0  0  0  0
   -3.2518   52.8514   25.0955 C   0  0  0  0  0  0
   -4.1109   52.3631   26.0818 C   0  0  0  0  0  0
   -3.6228   51.5220   27.0839 C   0  0  0  0  0  0
   -2.2759   51.1708   27.1030 C   0  0  0  0  0  0
   -5.5772   52.7548   26.0737 C   0  0  0  0  0  0
   -0.7511   48.9341   21.2248 H   0  0  0  0  0  0
    0.4218   48.2645   20.1130 H   0  0  0  0  0  0
   -0.7359   49.4762   19.5360 H   0  0  0  0  0  0
    2.4070   49.5885   19.3937 H   0  0  0  0  0  0
    3.9949   51.3377   19.9971 H   0  0  0  0  0  0
    1.1277   52.9883   22.7636 H   0  0  0  0  0  0
   -0.4633   51.2206   22.1523 H   0  0  0  0  0  0
    3.1233   54.1628   22.1204 H   0  0  0  0  0  0
    6.6920   54.1404   22.7181 H   0  0  0  0  0  0
    5.4595   55.2400   22.1529 H   0  0  0  0  0  0
    4.1210   54.4548   24.2210 H   0  0  0  0  0  0
    5.6047   55.5040   27.0162 H   0  0  0  0  0  0
    3.4326   55.6968   25.9740 H   0  0  0  0  0  0
    3.1548   53.9231   26.0069 H   0  0  0  0  0  0
    3.4749   55.6966   28.4596 H   0  0  0  0  0  0
    1.9577   55.1252   27.9554 H   0  0  0  0  0  0
    5.1467   54.4848   29.4253 H   0  0  0  0  0  0
    5.1042   52.7593   29.6036 H   0  0  0  0  0  0
    5.3178   52.4966   27.1384 H   0  0  0  0  0  0
    6.6664   53.4933   27.7694 H   0  0  0  0  0  0
    0.2786   53.8487   30.0085 H   0  0  0  0  0  0
   -0.8957   52.7970   29.2129 H   0  0  0  0  0  0
    0.2559   52.1071   30.3607 H   0  0  0  0  0  0
    0.5862   50.5342   28.4075 H   0  0  0  0  0  0
   -1.2455   52.8685   24.3403 H   0  0  0  0  0  0
   -3.6247   53.4993   24.3155 H   0  0  0  0  0  0
   -4.2824   51.1307   27.8450 H   0  0  0  0  0  0
   -1.9083   50.5029   27.8703 H   0  0  0  0  0  0
   -5.7428   53.6827   25.5240 H   0  0  0  0  0  0
   -6.1805   51.9635   25.6272 H   0  0  0  0  0  0
   -5.9338   52.9225   27.0909 H   0  0  0  0  0  0
  1  2  1  0  0  0
  1 37  1  0  0  0
  1 38  1  0  0  0
  1 39  1  0  0  0
  2  7  2  0  0  0
  2  3  1  0  0  0
  3  4  2  0  0  0
  3 40  1  0  0  0
  4  5  1  0  0  0
  4 41  1  0  0  0
  5  6  2  0  0  0
  5  8  1  0  0  0
  6  7  1  0  0  0
  6 42  1  0  0  0
  7 43  1  0  0  0
  8  9  1  0  0  0
  8 44  1  0  0  0
  9 10  2  0  0  0
  9 11  1  0  0  0
 11 12  1  0  0  0
 11 45  1  0  0  0
 11 46  1  0  0  0
 12 13  1  0  0  0
 12 47  1  0  0  0
 13 14  2  0  0  0
 13 15  1  0  0  0
 15 20  1  0  0  0
 15 16  1  0  0  0
 15 48  1  0  0  0
 16 17  1  0  0  0
 16 49  1  0  0  0
 16 50  1  0  0  0
 17 18  1  0  0  0
 17 51  1  0  0  0
 17 52  1  0  0  0
 18 19  1  0  0  0
 18 21  1  0  0  0
 19 20  1  0  0  0
 19 53  1  0  0  0
 19 54  1  0  0  0
 20 55  1  0  0  0
 20 56  1  0  0  0
 21 22  2  0  0  0
 21 23  1  0  0  0
 23 24  1  0  0  0
 23 25  1  0  0  0
 23 26  1  0  0  0
 25 57  1  0  0  0
 25 58  1  0  0  0
 25 59  1  0  0  0
 26 27  1  0  0  0
 26 60  1  0  0  0
 27 28  2  0  0  0
 27 29  2  0  0  0
 27 30  1  0  0  0
 30 35  2  0  0  0
 30 31  1  0  0  0
 31 32  2  0  0  0
 31 61  1  0  0  0
 32 33  1  0  0  0
 32 62  1  0  0  0
 33 34  2  0  0  0
 33 36  1  0  0  0
 34 35  1  0  0  0
 34 63  1  0  0  0
 35 64  1  0  0  0
 36 65  1  0  0  0
 36 66  1  0  0  0
 36 67  1  0  0  0
M  END
> <i_i_glide_confnum>
283

> <i_i_glide_lignum>
3102

> <i_i_glide_posenum>
191

> <i_i_glide_rotatable_bonds>
11

> <i_m_Source_File_Index>
353

> <b_m_subgroup_collapsed>
0

> <r_i_docking_score>
-5.27512

> <r_i_glide_ecoul>
-4.92351

> <r_i_glide_eff_state_penalty>
0

> <r_i_glide_einternal>
23.742

> <r_i_glide_emodel>
-55.3763

> <r_i_glide_energy>
-52.4044

> <r_i_glide_erotb>
0.896323

> <r_i_glide_esite>
-0.0714701

> <r_i_glide_evdw>
-47.4809

> <r_i_glide_gscore>
-5.27512

> <r_i_glide_hbond>
-0.475175

> <r_i_glide_ligand_efficiency>
-0.150718

> <r_i_glide_ligand_efficiency_ln>
-1.15801

> <r_i_glide_ligand_efficiency_sa>
-0.493007

> <r_i_glide_lipo>
-1.95489

> <r_i_glide_metal>
0

> <r_i_glide_rewards>
-0.557337

> <s_i_glide_gridfile>
wee1_glide-grid

> <s_m_Source_File>
wee1_decoys_glide_SP.sdf

> <s_m_Source_Path>
/Users/zhangxujun/Desktop

> <s_m_entry_id>
628

> <s_m_entry_name>
wee1_decoys_glide_SP.353

> <s_m_subgroup_title>
wee1_decoys_glide_SP

> <s_m_subgroupid>
wee1_decoys_glide_SP


$$$$
