@<TRIPOS>MOLECULE
ZINC22122249_1710
37   38    1
SMALL
USER_CHARGES


@<TRIPOS>ATOM
      1 C1          3.3887   54.1974   22.6780 C.3       1 UNK         0.0000 
      2 C2          2.5194   53.5759   23.7701 C.ar      1 UNK         0.0000 
      3 C3          2.8182   53.8090   25.1219 C.ar      1 UNK         0.0000 
      4 C4          1.9720   53.2883   26.0949 C.ar      1 UNK         0.0000 
      5 N5          0.9125   52.5006   25.8163 N.ar      1 UNK         0.0000 
      6 C6          0.6644   52.1970   24.5184 C.ar      1 UNK         0.0000 
      7 C7          1.4286   52.7280   23.4550 C.ar      1 UNK         0.0000 
      8 C8          1.1153   52.3787   22.0671 C.1       1 UNK         0.0000 
      9 N9          0.8642   52.0971   20.9731 N.1       1 UNK         0.0000 
     10 S10        -0.6749   51.0506   24.2575 S.3       1 UNK         0.0000 
     11 C11        -0.1475   49.4617   24.9824 C.3       1 UNK         0.0000 
     12 C12         0.2148   49.5442   26.4802 C.3       1 UNK         0.0000 
     13 C13        -1.1518   48.3347   24.6527 C.2       1 UNK         0.0000 
     14 O14        -1.2250   47.9356   23.4868 O.2       1 UNK         0.0000 
     15 N15        -1.8788   47.8404   25.6817 N.am      1 UNK         0.0000 
     16 C16        -2.6441   46.7376   25.6950 C.2       1 UNK         0.0000 
     17 O17        -3.0556   46.0968   24.7295 O.2       1 UNK         0.0000 
     18 N18        -2.8964   46.3734   26.9446 N.am      1 UNK         0.0000 
     19 C19         2.3780   53.7328   27.4786 C.3       1 UNK         0.0000 
     20 C20         3.8049   54.2381   27.2664 C.3       1 UNK         0.0000 
     21 C21         3.9092   54.6289   25.7877 C.3       1 UNK         0.0000 
     22 H22         3.7670   53.4278   22.0038 H         1 UNK         0.0000 
     23 H23         2.8013   54.8961   22.0819 H         1 UNK         0.0000 
     24 H24         4.2496   54.7299   23.0798 H         1 UNK         0.0000 
     25 H25         0.7661   49.1852   24.4526 H         1 UNK         0.0000 
     26 H26         0.4186   48.5523   26.8817 H         1 UNK         0.0000 
     27 H27         1.1044   50.1310   26.6584 H         1 UNK         0.0000 
     28 H28        -0.5811   50.0126   27.0600 H         1 UNK         0.0000 
     29 H29        -1.6951   48.2308   26.6025 H         1 UNK         0.0000 
     30 H30        -2.5384   46.9602   27.6990 H         1 UNK         0.0000 
     31 H31        -3.3754   45.5136   27.1629 H         1 UNK         0.0000 
     32 H32         2.3506   52.9275   28.2135 H         1 UNK         0.0000 
     33 H33         1.7269   54.5323   27.8344 H         1 UNK         0.0000 
     34 H34         4.5071   53.4265   27.4700 H         1 UNK         0.0000 
     35 H35         4.0668   55.0551   27.9401 H         1 UNK         0.0000 
     36 H36         3.7249   55.6967   25.6811 H         1 UNK         0.0000 
     37 H37         4.9077   54.4182   25.4007 H         1 UNK         0.0000 
@<TRIPOS>BOND
     1    1    2 1    
     2    1   22 1    
     3    1   23 1    
     4    1   24 1    
     5    2    7 ar   
     6    2    3 ar   
     7    3   21 1    
     8    3    4 ar   
     9    4    5 ar   
    10    4   19 1    
    11    5    6 ar   
    12    6    7 ar   
    13    6   10 1    
    14    7    8 1    
    15    8    9 3    
    16   10   11 1    
    17   11   12 1    
    18   11   13 1    
    19   11   25 1    
    20   12   26 1    
    21   12   27 1    
    22   12   28 1    
    23   13   14 2    
    24   13   15 am   BACKBONE|DICT|INTERRES
    25   15   16 am   BACKBONE|DICT|INTERRES
    26   15   29 1    
    27   16   17 2    
    28   16   18 am   BACKBONE|DICT|INTERRES
    29   18   30 1    
    30   18   31 1    
    31   19   20 1    
    32   19   32 1    
    33   19   33 1    
    34   20   21 1    
    35   20   34 1    
    36   20   35 1    
    37   21   36 1    
    38   21   37 1    
@<TRIPOS>SUBSTRUCTURE
     1 UNK         1 GROUP             0       ****    0 ROOT    
