@<TRIPOS>MOLECULE
ZINC39677661_2209
71   75    1
SMALL
USER_CHARGES


@<TRIPOS>ATOM
      1 C1         -0.1065   50.5962   24.5501 C.3       1 UNK         0.0000 
      2 C2         -1.0178   51.4764   25.4646 C.3       1 UNK         0.0000 
      3 C3         -2.1933   50.5863   25.9999 C.3       1 UNK         0.0000 
      4 C4         -3.2152   50.1737   24.9119 C.3       1 UNK         0.0000 
      5 C5         -3.7259   51.3762   24.0928 C.3       1 UNK         0.0000 
      6 C6         -2.5758   52.2474   23.5494 C.3       1 UNK         0.0000 
      7 C7         -1.6114   52.6770   24.6739 C.3       1 UNK         0.0000 
      8 C8         -0.2253   52.0368   26.7088 C.2       1 UNK         0.0000 
      9 O9         -0.8772   52.4766   27.6579 O.2       1 UNK         0.0000 
     10 N10         1.1327   52.0578   26.7558 N.am      1 UNK         0.0000 
     11 C11         1.9044   52.5671   25.6085 C.3       1 UNK         0.0000 
     12 C12         3.1592   53.1961   26.2636 C.3       1 UNK         0.0000 
     13 H13         3.9569   52.4966   26.4147 H         1 UNK         0.0000 
     14 C14         2.7377   53.5964   27.6816 C.3       1 UNK         0.0000 
     15 C15         1.8234   52.3975   28.0129 C.3       1 UNK         0.0000 
     16 C16         1.9718   54.9255   27.7354 C.3       1 UNK         0.0000 
     17 C17         1.4203   55.2594   29.1234 C.3       1 UNK         0.0000 
     18 N18         2.6205   55.2955   30.0811 N.4       1 UNK         0.0000 
     19 C19         3.4709   54.0007   30.0806 C.3       1 UNK         0.0000 
     20 C20         3.9440   53.7596   28.6385 C.3       1 UNK         0.0000 
     21 C21         3.7986   54.2257   25.3093 C.2       1 UNK         0.0000 
     22 O22         3.1055   54.8965   24.5504 O.2       1 UNK         0.0000 
     23 N23         5.1434   54.1706   25.2268 N.am      1 UNK         0.0000 
     24 C24         6.0073   54.8841   24.2873 C.3       1 UNK         0.0000 
     25 C25         5.8094   54.4971   22.8273 C.2       1 UNK         0.0000 
     26 C26         4.9767   53.5560   22.2207 C.2       1 UNK         0.0000 
     27 C27         5.0143   53.5600   20.8251 C.2       1 UNK         0.0000 
     28 C28         5.8962   54.4952   20.2980 C.2       1 UNK         0.0000 
     29 S29         6.7008   55.3353   21.5928 S.3       1 UNK         0.0000 
     30 C30         6.1949   54.8007   18.8656 C.ar      1 UNK         0.0000 
     31 C31         5.8568   53.8963   17.8517 C.ar      1 UNK         0.0000 
     32 C32         6.1564   54.2251   16.5276 C.ar      1 UNK         0.0000 
     33 C33         6.7780   55.4425   16.2439 C.ar      1 UNK         0.0000 
     34 C34         7.0939   56.2908   17.3058 C.ar      1 UNK         0.0000 
     35 N35         6.8169   55.9845   18.5995 N.ar      1 UNK         0.0000 
     36 H36        -0.6825   49.9490   23.8931 H         1 UNK         0.0000 
     37 H37         0.5066   51.1946   23.8787 H         1 UNK         0.0000 
     38 H38         0.5471   49.9354   25.1235 H         1 UNK         0.0000 
     39 H39        -2.7816   51.1280   26.7465 H         1 UNK         0.0000 
     40 H40        -1.8040   49.6941   26.4965 H         1 UNK         0.0000 
     41 H41        -4.0600   49.6684   25.3838 H         1 UNK         0.0000 
     42 H42        -2.7805   49.4322   24.2421 H         1 UNK         0.0000 
     43 H43        -4.3694   51.9900   24.7257 H         1 UNK         0.0000 
     44 H44        -4.3529   51.0288   23.2693 H         1 UNK         0.0000 
     45 H45        -2.9834   53.1322   23.0571 H         1 UNK         0.0000 
     46 H46        -2.0315   51.7008   22.7776 H         1 UNK         0.0000 
     47 H47        -0.8193   53.3002   24.2554 H         1 UNK         0.0000 
     48 H48        -2.1968   53.2969   25.3529 H         1 UNK         0.0000 
     49 H49         2.2730   51.8124   24.9134 H         1 UNK         0.0000 
     50 H50         1.3333   53.3764   25.1465 H         1 UNK         0.0000 
     51 H51         1.2144   52.4828   28.9117 H         1 UNK         0.0000 
     52 H52         2.5137   51.5760   28.2008 H         1 UNK         0.0000 
     53 H53         2.6396   55.6981   27.3694 H         1 UNK         0.0000 
     54 H54         1.1055   54.8859   27.0847 H         1 UNK         0.0000 
     55 H55         0.9750   56.2554   29.1549 H         1 UNK         0.0000 
     56 H56         0.7019   54.5310   29.5060 H         1 UNK         0.0000 
     57 H57         3.2121   56.0648   29.7893 H         1 UNK         0.0000 
     58 H58         4.3157   54.1572   30.7530 H         1 UNK         0.0000 
     59 H59         2.8452   53.1947   30.4693 H         1 UNK         0.0000 
     60 H60         4.5427   52.8455   28.6343 H         1 UNK         0.0000 
     61 H61         4.6215   54.5464   28.3006 H         1 UNK         0.0000 
     62 H62         5.6169   53.5342   25.8486 H         1 UNK         0.0000 
     63 H63         5.8953   55.9587   24.4390 H         1 UNK         0.0000 
     64 H64         7.0418   54.6845   24.5677 H         1 UNK         0.0000 
     65 H65         4.3214   52.9023   22.7764 H         1 UNK         0.0000 
     66 H66         4.4009   52.9109   20.2173 H         1 UNK         0.0000 
     67 H67         5.3843   52.9482   18.0736 H         1 UNK         0.0000 
     68 H68         5.9056   53.5388   15.7304 H         1 UNK         0.0000 
     69 H69         7.0117   55.7190   15.2255 H         1 UNK         0.0000 
     70 H70         7.5730   57.2427   17.1316 H         1 UNK         0.0000 
     71 H71         2.2905   55.5472   31.0058 H         1 UNK         0.0000 
@<TRIPOS>BOND
     1    1    2 1    
     2    1   36 1    
     3    1   37 1    
     4    1   38 1    
     5    2    7 1    
     6    2    3 1    
     7    2    8 1    
     8    3    4 1    
     9    3   39 1    
    10    3   40 1    
    11    4    5 1    
    12    4   41 1    
    13    4   42 1    
    14    5    6 1    
    15    5   43 1    
    16    5   44 1    
    17    6    7 1    
    18    6   45 1    
    19    6   46 1    
    20    7   47 1    
    21    7   48 1    
    22    8    9 2    
    23    8   10 am   BACKBONE|DICT|INTERRES
    24   10   15 1    
    25   10   11 1    
    26   11   12 1    
    27   11   49 1    
    28   11   50 1    
    29   12   13 1    
    30   12   14 1    
    31   12   21 1    
    32   14   20 1    
    33   14   15 1    
    34   14   16 1    
    35   15   51 1    
    36   15   52 1    
    37   16   17 1    
    38   16   53 1    
    39   16   54 1    
    40   17   18 1    
    41   17   55 1    
    42   17   56 1    
    43   18   19 1    
    44   18   57 1    
    45   18   71 1    
    46   19   20 1    
    47   19   58 1    
    48   19   59 1    
    49   20   60 1    
    50   20   61 1    
    51   21   22 2    
    52   21   23 am   BACKBONE|DICT|INTERRES
    53   23   24 1    
    54   23   62 1    
    55   24   25 1    
    56   24   63 1    
    57   24   64 1    
    58   25   29 1    
    59   25   26 2    
    60   26   27 1    
    61   26   65 1    
    62   27   28 2    
    63   27   66 1    
    64   28   29 1    
    65   28   30 1    
    66   30   35 ar   
    67   30   31 ar   
    68   31   32 ar   
    69   31   67 1    
    70   32   33 ar   
    71   32   68 1    
    72   33   34 ar   
    73   33   69 1    
    74   34   35 ar   
    75   34   70 1    
@<TRIPOS>SUBSTRUCTURE
     1 UNK         1 GROUP             0       ****    0 ROOT    
