@<TRIPOS>MOLECULE
ZINC13466333_45
41   42    1
SMALL
USER_CHARGES


@<TRIPOS>ATOM
      1 C1         -0.6951   52.4682   24.5032 C.3       1 UNK         0.0000 
      2 S2         -2.0176   51.8743   23.3159 S.o       1 UNK         0.0000 
      3 N3         -1.3711   52.0967   21.9299 N.2       1 UNK         0.0000 
      4 S4          0.0535   51.1517   21.5312 S.o2      1 UNK         0.0000 
      5 O5          0.0915   50.6681   20.1492 O.2       1 UNK         0.0000 
      6 O6          0.5375   50.1955   22.5322 O.2       1 UNK         0.0000 
      7 N7          1.1817   52.4969   21.5328 N.am      1 UNK         0.0000 
      8 C8          2.2085   52.7280   22.4679 C.2       1 UNK         0.0000 
      9 O9          2.2974   52.0969   23.5169 O.2       1 UNK         0.0000 
     10 N10         3.0814   53.6753   22.0800 N.am      1 UNK         0.0000 
     11 C11         4.2382   54.0797   22.7693 C.ar      1 UNK         0.0000 
     12 C12         5.3298   54.4928   22.0010 C.ar      1 UNK         0.0000 
     13 C13         6.5104   54.8965   22.6224 C.ar      1 UNK         0.0000 
     14 C14         6.5990   54.8990   24.0133 C.ar      1 UNK         0.0000 
     15 C15         5.5192   54.4965   24.8039 C.ar      1 UNK         0.0000 
     16 C16         4.3359   54.0970   24.1726 C.ar      1 UNK         0.0000 
     17 C17         5.6201   54.5090   26.3310 C.3       1 UNK         0.0000 
     18 F18         4.4698   54.8964   26.8812 F         1 UNK         0.0000 
     19 F19         6.5931   55.3152   26.7523 F         1 UNK         0.0000 
     20 F20         5.9006   53.2968   26.7845 F         1 UNK         0.0000 
     21 O21        -3.2956   52.4913   23.6828 O.2       1 UNK         0.0000 
     22 C22        -2.1960   50.1005   23.5532 C.ar      1 UNK         0.0000 
     23 C23        -2.0480   49.5603   24.8351 C.ar      1 UNK         0.0000 
     24 C24        -2.2108   48.1925   25.0345 C.ar      1 UNK         0.0000 
     25 C25        -2.5529   47.3757   23.9591 C.ar      1 UNK         0.0000 
     26 C26        -2.7443   47.9149   22.6874 C.ar      1 UNK         0.0000 
     27 C27        -2.5780   49.2831   22.4856 C.ar      1 UNK         0.0000 
     28 H28         0.0764   51.7072   24.5854 H         1 UNK         0.0000 
     29 H29        -0.2799   53.3924   24.1062 H         1 UNK         0.0000 
     30 H30        -1.1519   52.6310   25.4766 H         1 UNK         0.0000 
     31 H31         1.0503   53.1458   20.7543 H         1 UNK         0.0000 
     32 H32         2.9419   54.0802   21.1650 H         1 UNK         0.0000 
     33 H33         5.2728   54.4922   20.9215 H         1 UNK         0.0000 
     34 H34         7.3575   55.2122   22.0308 H         1 UNK         0.0000 
     35 H35         7.5091   55.2296   24.4798 H         1 UNK         0.0000 
     36 H36         3.4966   53.8019   24.7849 H         1 UNK         0.0000 
     37 H37        -1.7903   50.1820   25.6800 H         1 UNK         0.0000 
     38 H38        -2.0726   47.7731   26.0232 H         1 UNK         0.0000 
     39 H39        -2.6807   46.3164   24.1179 H         1 UNK         0.0000 
     40 H40        -3.0225   47.2775   21.8608 H         1 UNK         0.0000 
     41 H41        -2.7286   49.7070   21.5024 H         1 UNK         0.0000 
@<TRIPOS>BOND
     1    1    2 1    
     2    1   28 1    
     3    1   29 1    
     4    1   30 1    
     5    2    3 2    
     6    2   21 2    
     7    2   22 1    
     8    3    4 1    
     9    4    5 2    
    10    4    6 2    
    11    4    7 1    
    12    7    8 am   BACKBONE|DICT|INTERRES
    13    7   31 1    
    14    8    9 2    
    15    8   10 am   BACKBONE|DICT|INTERRES
    16   10   11 1    
    17   10   32 1    
    18   11   16 ar   
    19   11   12 ar   
    20   12   13 ar   
    21   12   33 1    
    22   13   14 ar   
    23   13   34 1    
    24   14   15 ar   
    25   14   35 1    
    26   15   16 ar   
    27   15   17 1    
    28   16   36 1    
    29   17   18 1    
    30   17   19 1    
    31   17   20 1    
    32   22   27 ar   
    33   22   23 ar   
    34   23   24 ar   
    35   23   37 1    
    36   24   25 ar   
    37   24   38 1    
    38   25   26 ar   
    39   25   39 1    
    40   26   27 ar   
    41   26   40 1    
    42   27   41 1    
@<TRIPOS>SUBSTRUCTURE
     1 UNK         1 GROUP             0       ****    0 ROOT    
