ZINC39677691_343
                    3D
 Schrodinger Suite 2024-2.
 71 75  0  0  1  0            999 V2000
    6.9643   55.0081   27.1836 C   0  0  0  0  0  0
    6.4572   53.6968   26.5717 C   0  0  0  0  0  0
    5.2117   53.8436   25.6660 C   0  0  2  0  0  0
    4.7980   52.8967   25.5108 H   0  0  0  0  0  0
    5.4447   54.2782   24.1988 C   0  0  0  0  0  0
    6.6761   54.7765   23.7542 C   0  0  0  0  0  0
    6.8669   55.0932   22.4119 C   0  0  0  0  0  0
    5.8351   54.8966   21.4983 C   0  0  0  0  0  0
    4.6055   54.3987   21.9201 C   0  0  0  0  0  0
    4.4116   54.0966   23.2654 C   0  0  0  0  0  0
    4.0530   54.5462   26.3780 C   0  0  0  0  0  0
    3.9043   55.6967   26.0766 O   0  0  0  0  0  0
    3.2797   53.9575   27.3203 N   0  0  0  0  0  0
    3.1721   52.5168   27.4380 C   0  0  0  0  0  0
    1.8318   52.2548   28.1353 C   0  0  1  0  0  0
    1.8767   51.3492   28.7352 H   0  0  0  0  0  0
    1.6313   53.5426   28.9860 C   0  0  0  0  0  0
    2.1957   54.6357   28.0465 C   0  0  0  0  0  0
    0.2051   53.8163   29.5367 C   0  0  0  0  0  0
   -0.2433   52.6345   30.4311 C   0  0  0  0  0  0
    0.7045   52.5521   31.6473 N   0  3  0  0  0  0
    2.1959   52.4634   31.2549 C   0  0  0  0  0  0
    2.5164   53.6004   30.2564 C   0  0  0  0  0  0
    0.7044   52.0820   27.0818 C   0  0  0  0  0  0
    0.6111   52.8813   26.1505 O   0  0  0  0  0  0
   -0.0886   51.0021   27.1899 N   0  0  0  0  0  0
   -1.2162   50.7030   26.3068 C   0  0  0  0  0  0
   -0.8001   49.9911   25.0331 C   0  0  0  0  0  0
   -1.1767   48.7346   24.5739 C   0  0  0  0  0  0
   -0.6760   48.4075   23.3115 C   0  0  0  0  0  0
    0.1369   49.3903   22.7575 C   0  0  0  0  0  0
    0.2477   50.7356   23.8548 S   0  0  0  0  0  0
    0.8513   49.4126   21.4405 C   0  0  0  0  0  0
    0.5344   48.4976   20.4277 C   0  0  0  0  0  0
    1.2087   48.5788   19.2080 C   0  0  0  0  0  0
    2.1732   49.5682   19.0229 C   0  0  0  0  0  0
    2.4431   50.4431   20.0739 C   0  0  0  0  0  0
    1.7983   50.3778   21.2662 N   0  0  0  0  0  0
    7.9092   54.8435   27.6825 H   0  0  0  0  0  0
    7.1037   55.7853   26.4344 H   0  0  0  0  0  0
    6.2711   55.3931   27.9316 H   0  0  0  0  0  0
    6.2338   53.0034   27.3847 H   0  0  0  0  0  0
    7.2513   53.2073   26.0127 H   0  0  0  0  0  0
    7.5042   54.9121   24.4301 H   0  0  0  0  0  0
    7.8228   55.4742   22.0816 H   0  0  0  0  0  0
    5.9872   55.1340   20.4553 H   0  0  0  0  0  0
    3.8035   54.2523   21.2099 H   0  0  0  0  0  0
    3.4545   53.7045   23.5798 H   0  0  0  0  0  0
    3.1044   52.0967   26.4460 H   0  0  0  0  0  0
    3.9770   52.0969   28.0419 H   0  0  0  0  0  0
    2.4648   55.5772   28.5281 H   0  0  0  0  0  0
    1.4255   54.9031   27.3242 H   0  0  0  0  0  0
    0.1512   54.7653   30.0743 H   0  0  0  0  0  0
   -0.4955   53.9230   28.7088 H   0  0  0  0  0  0
   -1.2351   52.7478   30.8530 H   0  0  0  0  0  0
   -0.2072   51.6644   29.9353 H   0  0  0  0  0  0
    0.5518   53.3706   32.2203 H   0  0  0  0  0  0
    2.7756   52.4967   32.1780 H   0  0  0  0  0  0
    2.3348   51.4830   30.8171 H   0  0  0  0  0  0
    3.5740   53.5150   29.9969 H   0  0  0  0  0  0
    2.3990   54.6000   30.6715 H   0  0  0  0  0  0
    0.0622   50.3304   27.9286 H   0  0  0  0  0  0
   -1.9220   50.0960   26.8761 H   0  0  0  0  0  0
   -1.7574   51.6219   26.0716 H   0  0  0  0  0  0
   -1.8199   48.0773   25.1417 H   0  0  0  0  0  0
   -0.8972   47.4713   22.8219 H   0  0  0  0  0  0
   -0.2248   47.7444   20.5715 H   0  0  0  0  0  0
    0.9835   47.8884   18.4089 H   0  0  0  0  0  0
    2.7042   49.6561   18.0847 H   0  0  0  0  0  0
    3.1909   51.2152   19.9627 H   0  0  0  0  0  0
    0.4162   51.7747   32.2328 H   0  0  0  0  0  0
  1  2  1  0  0  0
  1 39  1  0  0  0
  1 40  1  0  0  0
  1 41  1  0  0  0
  2  3  1  0  0  0
  2 42  1  0  0  0
  2 43  1  0  0  0
  3  4  1  0  0  0
  3  5  1  0  0  0
  3 11  1  0  0  0
  5 10  2  0  0  0
  5  6  1  0  0  0
  6  7  2  0  0  0
  6 44  1  0  0  0
  7  8  1  0  0  0
  7 45  1  0  0  0
  8  9  2  0  0  0
  8 46  1  0  0  0
  9 10  1  0  0  0
  9 47  1  0  0  0
 10 48  1  0  0  0
 11 12  2  0  0  0
 11 13  1  0  0  0
 13 18  1  0  0  0
 13 14  1  0  0  0
 14 15  1  0  0  0
 14 49  1  0  0  0
 14 50  1  0  0  0
 15 16  1  0  0  0
 15 17  1  0  0  0
 15 24  1  0  0  0
 17 23  1  0  0  0
 17 18  1  0  0  0
 17 19  1  0  0  0
 18 51  1  0  0  0
 18 52  1  0  0  0
 19 20  1  0  0  0
 19 53  1  0  0  0
 19 54  1  0  0  0
 20 21  1  0  0  0
 20 55  1  0  0  0
 20 56  1  0  0  0
 21 22  1  0  0  0
 21 57  1  0  0  0
 21 71  1  0  0  0
 22 23  1  0  0  0
 22 58  1  0  0  0
 22 59  1  0  0  0
 23 60  1  0  0  0
 23 61  1  0  0  0
 24 25  2  0  0  0
 24 26  1  0  0  0
 26 27  1  0  0  0
 26 62  1  0  0  0
 27 28  1  0  0  0
 27 63  1  0  0  0
 27 64  1  0  0  0
 28 32  1  0  0  0
 28 29  2  0  0  0
 29 30  1  0  0  0
 29 65  1  0  0  0
 30 31  2  0  0  0
 30 66  1  0  0  0
 31 32  1  0  0  0
 31 33  1  0  0  0
 33 38  2  0  0  0
 33 34  1  0  0  0
 34 35  2  0  0  0
 34 67  1  0  0  0
 35 36  1  0  0  0
 35 68  1  0  0  0
 36 37  2  0  0  0
 36 69  1  0  0  0
 37 38  1  0  0  0
 37 70  1  0  0  0
M  CHG  1  21   1
M  END
> <i_i_glide_confnum>
287

> <i_i_glide_lignum>
344

> <i_i_glide_posenum>
364

> <i_i_glide_rotatable_bonds>
9

> <i_m_Source_File_Index>
2495

> <b_m_subgroup_collapsed>
0

> <r_i_docking_score>
-4.54689

> <r_i_glide_ecoul>
-0.888685

> <r_i_glide_eff_state_penalty>
0

> <r_i_glide_einternal>
7.66916

> <r_i_glide_emodel>
-36.0786

> <r_i_glide_energy>
-28.109

> <r_i_glide_erotb>
0.644607

> <r_i_glide_esite>
-0.161738

> <r_i_glide_evdw>
-27.2203

> <r_i_glide_gscore>
-4.54689

> <r_i_glide_hbond>
-0.0433985

> <r_i_glide_ligand_efficiency>
-0.126302

> <r_i_glide_ligand_efficiency_ln>
-0.992008

> <r_i_glide_ligand_efficiency_sa>
-0.417041

> <r_i_glide_lipo>
-2.74988

> <r_i_glide_metal>
0

> <r_i_glide_rewards>
-0.742157

> <s_i_glide_gridfile>
wee1_glide-grid

> <s_m_Source_File>
wee1_decoys_glide_SP.sdf

> <s_m_Source_Path>
/Users/zhangxujun/Desktop

> <s_m_entry_id>
2770

> <s_m_entry_name>
wee1_decoys_glide_SP.2495

> <s_m_subgroup_title>
wee1_decoys_glide_SP

> <s_m_subgroupid>
wee1_decoys_glide_SP


$$$$
