@<TRIPOS>MOLECULE
ZINC13360579_1994
54   56    1
SMALL
USER_CHARGES


@<TRIPOS>ATOM
      1 C1          1.5043   48.1288   15.6134 C.3       1 UNK         0.0000 
      2 O2          0.9491   48.0022   16.9169 O.3       1 UNK         0.0000 
      3 C3          0.6879   46.7477   17.4296 C.ar      1 UNK         0.0000 
      4 C4          0.9489   45.5508   16.7370 C.ar      1 UNK         0.0000 
      5 C5          0.7042   44.3114   17.3300 C.ar      1 UNK         0.0000 
      6 C6          0.1901   44.2278   18.6305 C.ar      1 UNK         0.0000 
      7 C7         -0.1111   45.4234   19.2923 C.ar      1 UNK         0.0000 
      8 C8          0.1493   46.6699   18.7188 C.ar      1 UNK         0.0000 
      9 S9         -0.1727   48.1456   19.6976 S.o2      1 UNK         0.0000 
     10 O10        -0.7334   49.1796   18.8235 O.2       1 UNK         0.0000 
     11 O11        -0.8958   47.7241   20.9040 O.2       1 UNK         0.0000 
     12 N12         1.4278   48.7052   20.2151 N.pl3     1 UNK         0.0000 
     13 C13         1.6165   49.8311   21.0314 C.ar      1 UNK         0.0000 
     14 C14         2.7852   50.5742   20.8598 C.ar      1 UNK         0.0000 
     15 C15         3.0425   51.6812   21.6637 C.ar      1 UNK         0.0000 
     16 C16         2.1275   52.0652   22.6491 C.ar      1 UNK         0.0000 
     17 C17         0.9497   51.3314   22.8156 C.ar      1 UNK         0.0000 
     18 C18         0.6990   50.2152   22.0173 C.ar      1 UNK         0.0000 
     19 S19         2.4366   53.5426   23.6378 S.o2      1 UNK         0.0000 
     20 O20         3.8636   53.8126   23.4129 O.2       1 UNK         0.0000 
     21 O21         1.5048   54.4966   23.0402 O.2       1 UNK         0.0000 
     22 N22         1.9604   52.9008   25.2097 N.2       1 UNK         0.0000 
     23 C23         2.5083   53.3587   26.2613 C.2       1 UNK         0.0000 
     24 C24         3.5312   54.4969   26.4387 C.3       1 UNK         0.0000 
     25 C25         4.8940   54.0907   27.0359 C.3       1 UNK         0.0000 
     26 C26         4.9103   53.9829   28.5678 C.3       1 UNK         0.0000 
     27 C27         3.9675   52.9282   29.1813 C.3       1 UNK         0.0000 
     28 C28         2.4719   53.0792   28.8375 C.3       1 UNK         0.0000 
     29 N29         2.1353   52.7648   27.4527 N.pl3     1 UNK         0.0000 
     30 C30        -0.0129   42.9065   19.3133 C.2       1 UNK         0.0000 
     31 O31        -0.4950   42.8968   20.4719 O.co2     1 UNK         0.0000 
     32 H32         1.6523   49.1851   15.3904 H         1 UNK         0.0000 
     33 H33         2.4791   47.6428   15.5430 H         1 UNK         0.0000 
     34 H34         0.8399   47.7190   14.8507 H         1 UNK         0.0000 
     35 H35         1.3641   45.5647   15.7411 H         1 UNK         0.0000 
     36 H36         0.9423   43.4126   16.7775 H         1 UNK         0.0000 
     37 H37        -0.5109   45.3817   20.2969 H         1 UNK         0.0000 
     38 H38         2.1494   48.5510   19.5251 H         1 UNK         0.0000 
     39 H39         3.4989   50.2986   20.0940 H         1 UNK         0.0000 
     40 H40         3.9481   52.2470   21.4956 H         1 UNK         0.0000 
     41 H41         0.2266   51.6236   23.5651 H         1 UNK         0.0000 
     42 H42        -0.2125   49.6632   22.1780 H         1 UNK         0.0000 
     43 H43         3.7195   54.9975   25.4942 H         1 UNK         0.0000 
     44 H44         3.0972   55.2960   27.0380 H         1 UNK         0.0000 
     45 H45         5.2322   53.1497   26.5979 H         1 UNK         0.0000 
     46 H46         5.6413   54.8291   26.7359 H         1 UNK         0.0000 
     47 H47         4.6787   54.9597   28.9967 H         1 UNK         0.0000 
     48 H48         5.9326   53.7658   28.8817 H         1 UNK         0.0000 
     49 H49         4.0777   52.9624   30.2652 H         1 UNK         0.0000 
     50 H50         4.3045   51.9319   28.8904 H         1 UNK         0.0000 
     51 H51         2.1752   54.1160   29.0006 H         1 UNK         0.0000 
     52 H52         1.8605   52.4875   29.5203 H         1 UNK         0.0000 
     53 H53         1.4265   52.0549   27.3496 H         1 UNK         0.0000 
     54 O54         0.3095   41.8669   18.6962 O.co2     1 UNK         0.0000 
@<TRIPOS>BOND
     1    1    2 1    
     2    1   32 1    
     3    1   33 1    
     4    1   34 1    
     5    2    3 1    
     6    3    8 ar   
     7    3    4 ar   
     8    4    5 ar   
     9    4   35 1    
    10    5    6 ar   
    11    5   36 1    
    12    6    7 ar   
    13    6   30 1    
    14    7    8 ar   
    15    7   37 1    
    16    8    9 1    
    17    9   10 2    
    18    9   11 2    
    19    9   12 1    
    20   12   13 1    
    21   12   38 1    
    22   13   18 ar   
    23   13   14 ar   
    24   14   15 ar   
    25   14   39 1    
    26   15   16 ar   
    27   15   40 1    
    28   16   17 ar   
    29   16   19 1    
    30   17   18 ar   
    31   17   41 1    
    32   18   42 1    
    33   19   20 2    
    34   19   21 2    
    35   19   22 1    
    36   22   23 2    
    37   23   29 1    
    38   23   24 1    
    39   24   25 1    
    40   24   43 1    
    41   24   44 1    
    42   25   26 1    
    43   25   45 1    
    44   25   46 1    
    45   26   27 1    
    46   26   47 1    
    47   26   48 1    
    48   27   28 1    
    49   27   49 1    
    50   27   50 1    
    51   28   29 1    
    52   28   51 1    
    53   28   52 1    
    54   29   53 1    
    55   30   31 2    
    56   30   54 1    
@<TRIPOS>SUBSTRUCTURE
     1 UNK         1 GROUP             0       ****    0 ROOT    
