@<TRIPOS>MOLECULE
ZINC14111086_2130
59   62    1
SMALL
USER_CHARGES


@<TRIPOS>ATOM
      1 C1          4.3786   52.7593   29.2703 C.ar      1 UNK         0.0000 
      2 C2          2.9993   52.6135   29.3592 C.ar      1 UNK         0.0000 
      3 C3          2.1800   52.9795   28.2857 C.ar      1 UNK         0.0000 
      4 C4          2.7736   53.5379   27.1381 C.ar      1 UNK         0.0000 
      5 C5          4.1627   53.6960   27.0446 C.ar      1 UNK         0.0000 
      6 C6          4.9647   53.2997   28.1266 C.ar      1 UNK         0.0000 
      7 N7          4.6549   54.1554   25.8093 N.am      1 UNK         0.0000 
      8 C8          5.9115   54.5044   25.4457 C.2       1 UNK         0.0000 
      9 O9          6.8511   54.6434   26.2284 O.2       1 UNK         0.0000 
     10 C10         6.1627   54.7647   23.9484 C.3       1 UNK         0.0000 
     11 C11         5.0357   54.3190   22.9731 C.3       1 UNK         0.0000 
     12 N12         5.3884   54.1837   21.5487 N.am      1 UNK         0.0000 
     13 C13         5.9880   55.1598   20.8142 C.2       1 UNK         0.0000 
     14 O14         6.3048   56.2963   21.1676 O.2       1 UNK         0.0000 
     15 C15         6.2946   54.5541   19.4495 C.3       1 UNK         0.0000 
     16 H16         7.3369   54.2453   19.5336 H         1 UNK         0.0000 
     17 C17         6.2610   55.5311   18.2469 C.3       1 UNK         0.0000 
     18 C18         4.8561   55.8124   17.6957 C.3       1 UNK         0.0000 
     19 C19         4.1308   54.4946   17.3851 C.3       1 UNK         0.0000 
     20 C20         3.9988   53.6122   18.6403 C.3       1 UNK         0.0000 
     21 C21         5.3519   53.3638   19.3725 C.3       1 UNK         0.0000 
     22 H22         5.9005   52.5571   18.8770 H         1 UNK         0.0000 
     23 C23         5.1030   53.0550   20.8452 C.2       1 UNK         0.0000 
     24 O24         4.6729   51.9877   21.2818 O.2       1 UNK         0.0000 
     25 C25         0.6950   52.7359   28.3786 C.2       1 UNK         0.0000 
     26 O26         0.1075   52.8540   29.4552 O.2       1 UNK         0.0000 
     27 N27         0.1066   52.3743   27.2192 N.am      1 UNK         0.0000 
     28 C28        -1.2342   52.0239   27.0218 C.ar      1 UNK         0.0000 
     29 C29        -1.9842   51.2967   27.9555 C.ar      1 UNK         0.0000 
     30 C30        -3.3117   50.9679   27.6836 C.ar      1 UNK         0.0000 
     31 C31        -3.9007   51.3753   26.4869 C.ar      1 UNK         0.0000 
     32 C32        -3.1596   52.0980   25.5419 C.ar      1 UNK         0.0000 
     33 C33        -1.8201   52.4011   25.8124 C.ar      1 UNK         0.0000 
     34 C34        -3.8053   52.5585   24.2396 C.3       1 UNK         0.0000 
     35 F35        -4.6713   51.6475   23.7875 F         1 UNK         0.0000 
     36 F36        -4.4619   53.6944   24.4780 F         1 UNK         0.0000 
     37 F37        -2.8960   52.7870   23.2845 F         1 UNK         0.0000 
     38 H38         5.0045   52.4197   30.0791 H         1 UNK         0.0000 
     39 H39         2.5722   52.1812   30.2533 H         1 UNK         0.0000 
     40 H40         2.1550   53.8275   26.3008 H         1 UNK         0.0000 
     41 H41         6.0408   53.3653   28.0877 H         1 UNK         0.0000 
     42 H42         3.9632   54.1905   25.0794 H         1 UNK         0.0000 
     43 H43         7.0689   54.2153   23.6813 H         1 UNK         0.0000 
     44 H44         6.4598   55.7973   23.7653 H         1 UNK         0.0000 
     45 H45         4.1229   54.8972   23.1031 H         1 UNK         0.0000 
     46 H46         4.7309   53.3249   23.3087 H         1 UNK         0.0000 
     47 H47         6.9151   55.1334   17.4652 H         1 UNK         0.0000 
     48 H48         6.8061   56.4476   18.4832 H         1 UNK         0.0000 
     49 H49         4.9218   56.4259   16.7964 H         1 UNK         0.0000 
     50 H50         4.2807   56.3927   18.4210 H         1 UNK         0.0000 
     51 H51         4.6739   53.9483   16.6079 H         1 UNK         0.0000 
     52 H52         3.1410   54.7049   16.9746 H         1 UNK         0.0000 
     53 H53         3.3148   54.1722   19.2780 H         1 UNK         0.0000 
     54 H54         3.5420   52.6643   18.3463 H         1 UNK         0.0000 
     55 H55         0.6879   52.3671   26.3944 H         1 UNK         0.0000 
     56 H56        -1.5465   50.9587   28.8838 H         1 UNK         0.0000 
     57 H57        -3.8734   50.3886   28.4015 H         1 UNK         0.0000 
     58 H58        -4.9323   51.1223   26.2945 H         1 UNK         0.0000 
     59 H59        -1.2385   52.9503   25.0845 H         1 UNK         0.0000 
@<TRIPOS>BOND
     1    1    6 ar   
     2    1    2 ar   
     3    1   38 1    
     4    2    3 ar   
     5    2   39 1    
     6    3    4 ar   
     7    3   25 1    
     8    4    5 ar   
     9    4   40 1    
    10    5    6 ar   
    11    5    7 1    
    12    6   41 1    
    13    7    8 am   BACKBONE|DICT|INTERRES
    14    7   42 1    
    15    8    9 2    
    16    8   10 1    
    17   10   11 1    
    18   10   43 1    
    19   10   44 1    
    20   11   12 1    
    21   11   45 1    
    22   11   46 1    
    23   12   23 am   BACKBONE|DICT|INTERRES
    24   12   13 am   BACKBONE|DICT|INTERRES
    25   13   14 2    
    26   13   15 1    
    27   15   16 1    
    28   15   21 1    
    29   15   17 1    
    30   17   18 1    
    31   17   47 1    
    32   17   48 1    
    33   18   19 1    
    34   18   49 1    
    35   18   50 1    
    36   19   20 1    
    37   19   51 1    
    38   19   52 1    
    39   20   21 1    
    40   20   53 1    
    41   20   54 1    
    42   21   22 1    
    43   21   23 1    
    44   23   24 2    
    45   25   26 2    
    46   25   27 am   BACKBONE|DICT|INTERRES
    47   27   28 1    
    48   27   55 1    
    49   28   33 ar   
    50   28   29 ar   
    51   29   30 ar   
    52   29   56 1    
    53   30   31 ar   
    54   30   57 1    
    55   31   32 ar   
    56   31   58 1    
    57   32   33 ar   
    58   32   34 1    
    59   33   59 1    
    60   34   35 1    
    61   34   36 1    
    62   34   37 1    
@<TRIPOS>SUBSTRUCTURE
     1 UNK         1 GROUP             0       ****    0 ROOT    
