@<TRIPOS>MOLECULE
ZINC43218578_5514
64   68    1
SMALL
USER_CHARGES


@<TRIPOS>ATOM
      1 C1          3.0176   50.7469   19.5987 C.3       1 UNK         0.0000 
      2 C2          2.0513   51.6743   20.3547 C.3       1 UNK         0.0000 
      3 C3          2.7249   52.8970   21.0706 C.3       1 UNK         0.0000 
      4 H4          2.7871   53.6971   20.3402 H         1 UNK         0.0000 
      5 C5          1.9020   53.2402   22.2804 C.3       1 UNK         0.0000 
      6 H6          1.3185   54.1368   22.0824 H         1 UNK         0.0000 
      7 C7          0.9456   52.0283   22.5333 C.3       1 UNK         0.0000 
      8 H8         -0.0387   52.2894   22.1385 H         1 UNK         0.0000 
      9 N9          1.4236   50.9527   21.5476 N.4       1 UNK         0.0000 
     10 C10         0.6646   51.4144   23.9101 C.ar      1 UNK         0.0000 
     11 C11         0.7613   50.0285   24.1419 C.ar      1 UNK         0.0000 
     12 C12         0.3753   49.4796   25.3594 C.ar      1 UNK         0.0000 
     13 C13        -0.0891   50.3115   26.3667 C.ar      1 UNK         0.0000 
     14 C14        -0.1696   51.6890   26.1715 C.ar      1 UNK         0.0000 
     15 C15         0.1813   52.2325   24.9364 C.ar      1 UNK         0.0000 
     16 O16        -0.5912   52.5100   27.1858 O.3       1 UNK         0.0000 
     17 C17         0.1962   52.5905   28.3101 C.ar      1 UNK         0.0000 
     18 C18        -0.4000   52.4145   29.5575 C.ar      1 UNK         0.0000 
     19 C19         0.3631   52.4959   30.7190 C.ar      1 UNK         0.0000 
     20 C20         1.7335   52.7166   30.6376 C.ar      1 UNK         0.0000 
     21 C21         2.3496   52.9031   29.3961 C.ar      1 UNK         0.0000 
     22 C22         1.5712   52.8516   28.2331 C.ar      1 UNK         0.0000 
     23 C23         3.8523   53.1423   29.3408 C.3       1 UNK         0.0000 
     24 F24         4.4735   52.0988   29.8848 F         1 UNK         0.0000 
     25 F25         4.1484   54.2376   30.0367 F         1 UNK         0.0000 
     26 F26         4.3060   53.3009   28.1009 F         1 UNK         0.0000 
     27 C27         2.9159   53.6001   23.3581 C.2       1 UNK         0.0000 
     28 O28         2.5790   54.0514   24.4506 O.2       1 UNK         0.0000 
     29 N29         4.1758   53.3757   22.8719 N.am      1 UNK         0.0000 
     30 C30         4.1500   52.8079   21.6304 C.2       1 UNK         0.0000 
     31 O31         5.1046   52.3651   21.0022 O.2       1 UNK         0.0000 
     32 C32         5.4619   53.4716   23.6639 C.3       1 UNK         0.0000 
     33 C33         6.6985   54.2151   23.1415 C.3       1 UNK         0.0000 
     34 C34         6.7138   55.6859   23.4352 C.3       1 UNK         0.0000 
     35 C35         6.3035   56.0565   24.8818 C.3       1 UNK         0.0000 
     36 C36         5.2401   55.1833   25.5561 C.3       1 UNK         0.0000 
     37 C37         5.3840   53.7052   25.1970 C.3       1 UNK         0.0000 
     38 C38         0.8786   52.0370   19.3580 C.2       1 UNK         0.0000 
     39 O39        -0.2967   51.6611   19.5957 O.co2     1 UNK         0.0000 
     40 O40         1.1794   52.7050   18.3442 O.co2     1 UNK         0.0000 
     41 H41         3.5042   51.2922   18.7887 H         1 UNK         0.0000 
     42 H42         3.7984   50.3391   20.2371 H         1 UNK         0.0000 
     43 H43         2.5139   49.8926   19.1415 H         1 UNK         0.0000 
     44 H44         2.1181   50.3638   21.9838 H         1 UNK         0.0000 
     45 H45         1.1093   49.3359   23.3908 H         1 UNK         0.0000 
     46 H46         0.4401   48.4135   25.5280 H         1 UNK         0.0000 
     47 H47        -0.3936   49.8787   27.3009 H         1 UNK         0.0000 
     48 H48         0.0812   53.2967   24.7861 H         1 UNK         0.0000 
     49 H49        -1.4515   52.1826   29.6215 H         1 UNK         0.0000 
     50 H50        -0.0962   52.3375   31.6819 H         1 UNK         0.0000 
     51 H51         2.3158   52.7320   31.5466 H         1 UNK         0.0000 
     52 H52         2.0267   52.9946   27.2635 H         1 UNK         0.0000 
     53 H53         5.8883   52.4967   23.5434 H         1 UNK         0.0000 
     54 H54         7.5978   53.7610   23.5644 H         1 UNK         0.0000 
     55 H55         6.7968   54.0960   22.0776 H         1 UNK         0.0000 
     56 H56         7.7102   56.0952   23.2654 H         1 UNK         0.0000 
     57 H57         6.1883   56.0969   22.5967 H         1 UNK         0.0000 
     58 H58         7.1914   56.0681   25.5108 H         1 UNK         0.0000 
     59 H59         5.9042   57.0633   24.8812 H         1 UNK         0.0000 
     60 H60         5.2967   55.3000   26.6387 H         1 UNK         0.0000 
     61 H61         4.2566   55.5531   25.2847 H         1 UNK         0.0000 
     62 H62         4.5903   53.1170   25.6552 H         1 UNK         0.0000 
     63 H63         6.2949   53.3220   25.6625 H         1 UNK         0.0000 
     64 H64         0.6662   50.3619   21.2296 H         1 UNK         0.0000 
@<TRIPOS>BOND
     1    1    2 1    
     2    1   41 1    
     3    1   42 1    
     4    1   43 1    
     5    2    9 1    
     6    2    3 1    
     7    2   38 1    
     8    3    4 1    
     9    3   30 1    
    10    3    5 1    
    11    5    6 1    
    12    5    7 1    
    13    5   27 1    
    14    7    8 1    
    15    7    9 1    
    16    7   10 1    
    17    9   44 1    
    18    9   64 1    
    19   10   15 ar   
    20   10   11 ar   
    21   11   12 ar   
    22   11   45 1    
    23   12   13 ar   
    24   12   46 1    
    25   13   14 ar   
    26   13   47 1    
    27   14   15 ar   
    28   14   16 1    
    29   15   48 1    
    30   16   17 1    
    31   17   22 ar   
    32   17   18 ar   
    33   18   19 ar   
    34   18   49 1    
    35   19   20 ar   
    36   19   50 1    
    37   20   21 ar   
    38   20   51 1    
    39   21   22 ar   
    40   21   23 1    
    41   22   52 1    
    42   23   24 1    
    43   23   25 1    
    44   23   26 1    
    45   27   28 2    
    46   27   29 am   BACKBONE|DICT|INTERRES
    47   29   30 am   BACKBONE|DICT|INTERRES
    48   29   32 1    
    49   30   31 2    
    50   32   37 1    
    51   32   33 1    
    52   32   53 1    
    53   33   34 1    
    54   33   54 1    
    55   33   55 1    
    56   34   35 1    
    57   34   56 1    
    58   34   57 1    
    59   35   36 1    
    60   35   58 1    
    61   35   59 1    
    62   36   37 1    
    63   36   60 1    
    64   36   61 1    
    65   37   62 1    
    66   37   63 1    
    67   38   39 2    
    68   38   40 1    
@<TRIPOS>SUBSTRUCTURE
     1 UNK         1 GROUP             0       ****    0 ROOT    
