ZINC34095350_4189
                    3D
 Schrodinger Suite 2024-2.
 58 63  0  0  1  0            999 V2000
    1.5517   53.5997   28.5400 C   0  0  0  0  0  0
    2.4512   53.7634   27.3270 C   0  0  0  0  0  0
    3.6936   54.3928   27.4546 C   0  0  0  0  0  0
    4.5201   54.5507   26.3413 C   0  0  0  0  0  0
    4.0882   54.0969   25.0957 C   0  0  0  0  0  0
    2.8398   53.4656   24.9414 C   0  0  0  0  0  0
    2.0332   53.2968   26.0762 C   0  0  0  0  0  0
    2.4227   52.9472   23.6875 N   0  0  0  0  0  0
    1.5449   51.7728   23.5385 C   0  0  0  0  0  0
    1.6375   51.4288   22.0680 C   0  0  2  0  0  0
    0.5990   50.5782   21.3657 C   0  0  0  0  0  0
    1.2329   50.1371   20.2630 C   0  0  0  0  0  0
    2.6604   50.6668   20.3620 C   0  0  2  0  0  0
    3.4203   50.0714   19.8518 H   0  0  0  0  0  0
    2.7990   50.6787   21.7667 O   0  0  0  0  0  0
    2.6996   52.2063   20.1158 C   0  0  1  0  0  0
    2.1438   52.4289   19.2052 H   0  0  0  0  0  0
    1.9577   52.7346   21.3921 C   0  0  2  0  0  0
    1.0633   53.2944   21.1186 H   0  0  0  0  0  0
    2.7049   53.5271   22.4837 C   0  0  0  0  0  0
    3.3885   54.5235   22.2657 O   0  0  0  0  0  0
    4.1562   52.7219   19.9277 C   0  0  0  0  0  0
    5.1044   52.1882   20.5074 O   0  0  0  0  0  0
    4.3516   53.9096   19.1552 N   0  0  0  0  0  0
    5.3779   54.8524   19.2093 C   0  0  0  0  0  0
    5.1546   55.7904   18.1695 C   0  0  0  0  0  0
    6.0908   56.8331   17.9811 C   0  0  0  0  0  0
    7.1731   56.8665   18.8745 C   0  0  0  0  0  0
    7.2874   55.9012   19.8778 C   0  0  0  0  0  0
    6.3981   54.8972   20.0726 N   0  0  0  0  0  0
    8.4624   55.9049   20.8350 C   0  0  0  0  0  0
    5.9829   57.8635   16.8569 C   0  0  0  0  0  0
    6.0588   57.2372   15.6834 F   0  0  0  0  0  0
    6.9594   58.7726   16.9024 F   0  0  0  0  0  0
    4.8132   58.4959   16.9268 F   0  0  0  0  0  0
    3.9400   55.3370   17.5768 C   0  0  0  0  0  0
    3.5048   54.2499   18.1505 N   0  0  0  0  0  0
    3.2825   55.9309   16.5421 N   0  0  0  0  0  0
    5.8909   55.1973   26.4659 C   0  0  0  0  0  0
    1.7630   54.3583   29.2948 H   0  0  0  0  0  0
    0.5054   53.7196   28.2606 H   0  0  0  0  0  0
    1.6791   52.6106   28.9807 H   0  0  0  0  0  0
    4.0184   54.7497   28.4214 H   0  0  0  0  0  0
    4.7578   54.2035   24.2552 H   0  0  0  0  0  0
    1.0743   52.8093   25.9967 H   0  0  0  0  0  0
    0.5251   52.0259   23.8295 H   0  0  0  0  0  0
    1.8893   50.9363   24.1467 H   0  0  0  0  0  0
   -0.4277   50.4506   21.6713 H   0  0  0  0  0  0
    0.8541   49.5414   19.4454 H   0  0  0  0  0  0
    7.9355   57.6270   18.7793 H   0  0  0  0  0  0
    9.2950   56.4967   20.4514 H   0  0  0  0  0  0
    8.1671   56.2972   21.8074 H   0  0  0  0  0  0
    8.8355   54.8966   20.9920 H   0  0  0  0  0  0
    3.6127   56.7907   16.1273 H   0  0  0  0  0  0
    2.4315   55.5394   16.1679 H   0  0  0  0  0  0
    6.1289   55.4676   27.4954 H   0  0  0  0  0  0
    6.6557   54.5041   26.1141 H   0  0  0  0  0  0
    5.9516   56.0912   25.8371 H   0  0  0  0  0  0
  1  2  1  0  0  0
  1 40  1  0  0  0
  1 41  1  0  0  0
  1 42  1  0  0  0
  2  7  2  0  0  0
  2  3  1  0  0  0
  3  4  2  0  0  0
  3 43  1  0  0  0
  4  5  1  0  0  0
  4 39  1  0  0  0
  5  6  2  0  0  0
  5 44  1  0  0  0
  6  7  1  0  0  0
  6  8  1  0  0  0
  7 45  1  0  0  0
  8 20  1  0  0  0
  8  9  1  0  0  0
  9 10  1  0  0  0
  9 46  1  0  0  0
  9 47  1  0  0  0
 10 15  1  0  0  0
 10 18  1  0  0  0
 10 11  1  0  0  0
 11 12  2  0  0  0
 11 48  1  0  0  0
 12 13  1  0  0  0
 12 49  1  0  0  0
 13 14  1  0  0  0
 13 15  1  0  0  0
 13 16  1  0  0  0
 16 17  1  0  0  0
 16 18  1  0  0  0
 16 22  1  0  0  0
 18 19  1  0  0  0
 18 20  1  0  0  0
 20 21  2  0  0  0
 22 23  2  0  0  0
 22 24  1  0  0  0
 24 37  1  0  0  0
 24 25  1  0  0  0
 25 30  2  0  0  0
 25 26  1  0  0  0
 26 27  2  0  0  0
 26 36  1  0  0  0
 27 28  1  0  0  0
 27 32  1  0  0  0
 28 29  2  0  0  0
 28 50  1  0  0  0
 29 30  1  0  0  0
 29 31  1  0  0  0
 31 51  1  0  0  0
 31 52  1  0  0  0
 31 53  1  0  0  0
 32 33  1  0  0  0
 32 34  1  0  0  0
 32 35  1  0  0  0
 36 37  2  0  0  0
 36 38  1  0  0  0
 38 54  1  0  0  0
 38 55  1  0  0  0
 39 56  1  0  0  0
 39 57  1  0  0  0
 39 58  1  0  0  0
M  END
> <i_i_glide_confnum>
6

> <i_i_glide_lignum>
4190

> <i_i_glide_posenum>
13

> <i_i_glide_rotatable_bonds>
4

> <i_m_Source_File_Index>
605

> <b_m_subgroup_collapsed>
0

> <r_i_docking_score>
-5.15255

> <r_i_glide_ecoul>
-0.980571

> <r_i_glide_eff_state_penalty>
0

> <r_i_glide_einternal>
1.94238

> <r_i_glide_emodel>
-54.0326

> <r_i_glide_energy>
-41.8025

> <r_i_glide_erotb>
0.24729

> <r_i_glide_esite>
-0.209218

> <r_i_glide_evdw>
-40.8219

> <r_i_glide_gscore>
-5.15255

> <r_i_glide_hbond>
0

> <r_i_glide_ligand_efficiency>
-0.143126

> <r_i_glide_ligand_efficiency_ln>
-1.12415

> <r_i_glide_ligand_efficiency_sa>
-0.472593

> <r_i_glide_lipo>
-2.48731

> <r_i_glide_metal>
0

> <r_i_glide_rewards>
-0.515136

> <s_i_glide_gridfile>
wee1_glide-grid

> <s_m_Source_File>
wee1_decoys_glide_SP.sdf

> <s_m_Source_Path>
/Users/zhangxujun/Desktop

> <s_m_entry_id>
880

> <s_m_entry_name>
wee1_decoys_glide_SP.605

> <s_m_subgroup_title>
wee1_decoys_glide_SP

> <s_m_subgroupid>
wee1_decoys_glide_SP


$$$$
