@<TRIPOS>MOLECULE
ZINC12609247_2296
60   63    1
SMALL
USER_CHARGES


@<TRIPOS>ATOM
      1 C1          4.7725   52.6960   19.6904 C.3       1 UNK         0.0000 
      2 C2          4.9739   54.2033   19.9369 C.3       1 UNK         0.0000 
      3 H3          4.0252   54.6979   19.7214 H         1 UNK         0.0000 
      4 C4          5.3031   54.4784   21.4347 C.2       1 UNK         0.0000 
      5 O5          6.4103   54.9140   21.7618 O.2       1 UNK         0.0000 
      6 N6          4.3078   54.1802   22.3002 N.am      1 UNK         0.0000 
      7 C7          4.3585   54.1551   23.6989 C.2       1 UNK         0.0000 
      8 C8          3.2885   53.8939   24.5568 C.2       1 UNK         0.0000 
      9 C9          3.6719   53.8041   25.9234 C.2       1 UNK         0.0000 
     10 C10         5.0609   53.9462   26.0917 C.2       1 UNK         0.0000 
     11 S11         5.8129   54.4345   24.6097 S.3       1 UNK         0.0000 
     12 C12         5.8732   53.6921   27.3456 C.3       1 UNK         0.0000 
     13 C13         5.5099   54.5984   28.5240 C.3       1 UNK         0.0000 
     14 C14         4.1531   54.2801   29.1826 C.3       1 UNK         0.0000 
     15 C15         2.8954   54.4803   28.3080 C.3       1 UNK         0.0000 
     16 C16         2.7407   53.5256   27.1015 C.3       1 UNK         0.0000 
     17 C17         1.9238   53.6986   24.0724 C.1       1 UNK         0.0000 
     18 N18         0.8448   53.5470   23.6824 N.1       1 UNK         0.0000 
     19 N19         6.0269   54.7530   19.1016 N.pl3     1 UNK         0.0000 
     20 C20         6.0477   56.0017   18.4683 C.ar      1 UNK         0.0000 
     21 C21         4.8880   56.5477   17.9092 C.ar      1 UNK         0.0000 
     22 C22         4.9325   57.7900   17.2810 C.ar      1 UNK         0.0000 
     23 C23         6.1305   58.4978   17.2248 C.ar      1 UNK         0.0000 
     24 C24         7.3001   57.9651   17.7719 C.ar      1 UNK         0.0000 
     25 C25         7.2530   56.7065   18.3857 C.ar      1 UNK         0.0000 
     26 S26         8.8506   58.8805   17.6886 S.o2      1 UNK         0.0000 
     27 O27         8.7066   60.0945   18.5028 O.2       1 UNK         0.0000 
     28 O28         9.9222   57.9254   17.9927 O.2       1 UNK         0.0000 
     29 N29         9.0514   59.3767   16.0019 N.pl3     1 UNK         0.0000 
     30 C30         9.0896   58.3458   14.9254 C.3       1 UNK         0.0000 
     31 C31         8.2674   59.0203   13.8243 C.3       1 UNK         0.0000 
     32 C32         8.5216   60.5030   14.0076 C.3       1 UNK         0.0000 
     33 C33         8.4905   60.6694   15.5204 C.3       1 UNK         0.0000 
     34 H34         3.9728   52.2761   20.3012 H         1 UNK         0.0000 
     35 H35         4.5000   52.5081   18.6500 H         1 UNK         0.0000 
     36 H36         5.6778   52.1184   19.8842 H         1 UNK         0.0000 
     37 H37         3.4275   53.9003   21.8921 H         1 UNK         0.0000 
     38 H38         6.9416   53.7733   27.1386 H         1 UNK         0.0000 
     39 H39         5.7220   52.6606   27.6655 H         1 UNK         0.0000 
     40 H40         5.5667   55.6376   28.2076 H         1 UNK         0.0000 
     41 H41         6.2859   54.4949   29.2824 H         1 UNK         0.0000 
     42 H42         4.0580   54.8950   30.0755 H         1 UNK         0.0000 
     43 H43         4.1714   53.2526   29.5460 H         1 UNK         0.0000 
     44 H44         2.8335   55.5161   27.9761 H         1 UNK         0.0000 
     45 H45         2.0248   54.3410   28.9508 H         1 UNK         0.0000 
     46 H46         2.8751   52.4976   27.4397 H         1 UNK         0.0000 
     47 H47         1.7000   53.5766   26.7847 H         1 UNK         0.0000 
     48 H48         6.9349   54.3443   19.2744 H         1 UNK         0.0000 
     49 H49         3.9505   56.0124   17.9461 H         1 UNK         0.0000 
     50 H50         4.0343   58.2174   16.8582 H         1 UNK         0.0000 
     51 H51         6.1283   59.4720   16.7602 H         1 UNK         0.0000 
     52 H52         8.1510   56.2863   18.8147 H         1 UNK         0.0000 
     53 H53        10.0949   58.2243   14.5181 H         1 UNK         0.0000 
     54 H54         8.5820   57.4165   15.1821 H         1 UNK         0.0000 
     55 H55         8.5457   58.6685   12.8303 H         1 UNK         0.0000 
     56 H56         7.2051   58.8011   13.9580 H         1 UNK         0.0000 
     57 H57         7.7794   61.1284   13.5099 H         1 UNK         0.0000 
     58 H58         9.5021   60.7778   13.6164 H         1 UNK         0.0000 
     59 H59         7.4482   60.7618   15.8250 H         1 UNK         0.0000 
     60 H60         8.9892   61.5382   15.9483 H         1 UNK         0.0000 
@<TRIPOS>BOND
     1    1    2 1    
     2    1   34 1    
     3    1   35 1    
     4    1   36 1    
     5    2    3 1    
     6    2    4 1    
     7    2   19 1    
     8    4    5 2    
     9    4    6 am   BACKBONE|DICT|INTERRES
    10    6    7 am   BACKBONE|DICT|INTERRES
    11    6   37 1    
    12    7   11 1    
    13    7    8 2    
    14    8    9 1    
    15    8   17 1    
    16    9   16 1    
    17    9   10 2    
    18   10   11 1    
    19   10   12 1    
    20   12   13 1    
    21   12   38 1    
    22   12   39 1    
    23   13   14 1    
    24   13   40 1    
    25   13   41 1    
    26   14   15 1    
    27   14   42 1    
    28   14   43 1    
    29   15   16 1    
    30   15   44 1    
    31   15   45 1    
    32   16   46 1    
    33   16   47 1    
    34   17   18 3    
    35   19   20 1    
    36   19   48 1    
    37   20   25 ar   
    38   20   21 ar   
    39   21   22 ar   
    40   21   49 1    
    41   22   23 ar   
    42   22   50 1    
    43   23   24 ar   
    44   23   51 1    
    45   24   25 ar   
    46   24   26 1    
    47   25   52 1    
    48   26   27 2    
    49   26   28 2    
    50   26   29 1    
    51   29   33 1    
    52   29   30 1    
    53   30   31 1    
    54   30   53 1    
    55   30   54 1    
    56   31   32 1    
    57   31   55 1    
    58   31   56 1    
    59   32   33 1    
    60   32   57 1    
    61   32   58 1    
    62   33   59 1    
    63   33   60 1    
@<TRIPOS>SUBSTRUCTURE
     1 UNK         1 GROUP             0       ****    0 ROOT    
