@<TRIPOS>MOLECULE
ZINC08964117_110
61   64    1
SMALL
USER_CHARGES


@<TRIPOS>ATOM
      1 C1         -0.7669   50.7783   24.7249 C.3       1 UNK         0.0000 
      2 N2          0.0810   50.7662   23.5368 N.pl3     1 UNK         0.0000 
      3 C3          0.6649   49.4453   23.3668 C.3       1 UNK         0.0000 
      4 C4          1.7263   49.6181   22.2944 C.3       1 UNK         0.0000 
      5 C5          2.0140   51.0911   22.4213 C.ar      1 UNK         0.0000 
      6 C6          1.0552   51.7152   23.2241 C.ar      1 UNK         0.0000 
      7 C7          1.1067   53.0918   23.4336 C.ar      1 UNK         0.0000 
      8 C8          2.1484   53.8367   22.8823 C.ar      1 UNK         0.0000 
      9 C9          3.1210   53.2247   22.0822 C.ar      1 UNK         0.0000 
     10 C10         3.0329   51.8461   21.8386 C.ar      1 UNK         0.0000 
     11 C11         4.3140   54.0466   21.5696 C.3       1 UNK         0.0000 
     12 H12         4.1223   55.0947   21.8064 H         1 UNK         0.0000 
     13 C13         5.6498   53.6601   22.2633 C.3       1 UNK         0.0000 
     14 N14         5.5576   53.7001   23.7230 N.am      1 UNK         0.0000 
     15 C15         6.0324   54.6661   24.5412 C.2       1 UNK         0.0000 
     16 O16         6.7046   55.6198   24.1515 O.2       1 UNK         0.0000 
     17 C17         5.6710   54.4966   25.9756 C.2       1 UNK         0.0000 
     18 O18         6.4672   54.7713   26.8765 O.2       1 UNK         0.0000 
     19 N19         4.3870   54.0974   26.1495 N.am      1 UNK         0.0000 
     20 C20         3.6702   53.8109   27.3208 C.ar      1 UNK         0.0000 
     21 C21         2.2886   53.6941   27.1621 C.ar      1 UNK         0.0000 
     22 C22         1.4825   53.3902   28.2506 C.ar      1 UNK         0.0000 
     23 C23         2.0497   53.1802   29.5106 C.ar      1 UNK         0.0000 
     24 C24         3.4382   53.2807   29.6676 C.ar      1 UNK         0.0000 
     25 C25         4.2488   53.6013   28.5788 C.ar      1 UNK         0.0000 
     26 C26         1.1467   52.8123   30.6886 C.3       1 UNK         0.0000 
     27 F27         0.6906   53.9280   31.2536 F         1 UNK         0.0000 
     28 F28         1.8077   52.1014   31.6039 F         1 UNK         0.0000 
     29 F29         0.0989   52.0973   30.2771 F         1 UNK         0.0000 
     30 C30         5.4212   55.1606   19.4434 C.3       1 UNK         0.0000 
     31 C31         5.4431   54.8199   17.9582 C.3       1 UNK         0.0000 
     32 C32         5.3566   53.2969   17.9087 C.3       1 UNK         0.0000 
     33 C33         4.7185   52.8469   19.2288 C.3       1 UNK         0.0000 
     34 H34        -0.1861   50.5880   25.6288 H         1 UNK         0.0000 
     35 H35        -1.2564   51.7464   24.8326 H         1 UNK         0.0000 
     36 H36        -1.5469   50.0185   24.6579 H         1 UNK         0.0000 
     37 H37         1.1046   49.0808   24.2982 H         1 UNK         0.0000 
     38 H38        -0.0975   48.7201   23.0791 H         1 UNK         0.0000 
     39 H39         1.3240   49.3728   21.3115 H         1 UNK         0.0000 
     40 H40         2.5821   48.9695   22.4837 H         1 UNK         0.0000 
     41 H41         0.3412   53.5877   24.0109 H         1 UNK         0.0000 
     42 H42         2.1930   54.8963   23.0790 H         1 UNK         0.0000 
     43 H43         3.7789   51.3453   21.2421 H         1 UNK         0.0000 
     44 H44         6.4746   54.2884   21.9354 H         1 UNK         0.0000 
     45 H45         5.9040   52.6343   22.0067 H         1 UNK         0.0000 
     46 H46         5.0788   52.9185   24.1508 H         1 UNK         0.0000 
     47 H47         3.8373   54.0121   25.3075 H         1 UNK         0.0000 
     48 H48         1.8252   53.8404   26.1967 H         1 UNK         0.0000 
     49 H49         0.4149   53.3037   28.1093 H         1 UNK         0.0000 
     50 H50         3.9012   53.1051   30.6277 H         1 UNK         0.0000 
     51 H51         5.3166   53.6647   28.7273 H         1 UNK         0.0000 
     52 H52         5.1044   56.1763   19.6836 H         1 UNK         0.0000 
     53 H53         6.3878   54.9811   19.9151 H         1 UNK         0.0000 
     54 H54         4.5865   55.2747   17.4572 H         1 UNK         0.0000 
     55 H55         6.3441   55.1957   17.4680 H         1 UNK         0.0000 
     56 H56         6.3488   52.8517   17.8151 H         1 UNK         0.0000 
     57 H57         4.7785   52.9495   17.0511 H         1 UNK         0.0000 
     58 H58         5.4184   52.2418   19.8063 H         1 UNK         0.0000 
     59 H59         3.7837   52.2984   19.0951 H         1 UNK         0.0000 
     60 N60         4.4131   54.1427   20.0182 N.4       1 UNK         0.0000 
     61 H61         3.4895   54.4489   19.7219 H         1 UNK         0.0000 
@<TRIPOS>BOND
     1    1    2 1    
     2    1   34 1    
     3    1   35 1    
     4    1   36 1    
     5    2    6 1    
     6    2    3 1    
     7    3    4 1    
     8    3   37 1    
     9    3   38 1    
    10    4    5 1    
    11    4   39 1    
    12    4   40 1    
    13    5   10 ar   
    14    5    6 ar   
    15    6    7 ar   
    16    7    8 ar   
    17    7   41 1    
    18    8    9 ar   
    19    8   42 1    
    20    9   10 ar   
    21    9   11 1    
    22   10   43 1    
    23   11   12 1    
    24   11   13 1    
    25   11   60 1    
    26   13   14 1    
    27   13   44 1    
    28   13   45 1    
    29   14   15 am   BACKBONE|DICT|INTERRES
    30   14   46 1    
    31   15   16 2    
    32   15   17 1    
    33   17   18 2    
    34   17   19 am   BACKBONE|DICT|INTERRES
    35   19   20 1    
    36   19   47 1    
    37   20   25 ar   
    38   20   21 ar   
    39   21   22 ar   
    40   21   48 1    
    41   22   23 ar   
    42   22   49 1    
    43   23   24 ar   
    44   23   26 1    
    45   24   25 ar   
    46   24   50 1    
    47   25   51 1    
    48   26   27 1    
    49   26   28 1    
    50   26   29 1    
    51   30   31 1    
    52   30   52 1    
    53   30   53 1    
    54   30   60 1    
    55   31   32 1    
    56   31   54 1    
    57   31   55 1    
    58   32   33 1    
    59   32   56 1    
    60   32   57 1    
    61   33   58 1    
    62   33   59 1    
    63   33   60 1    
    64   60   61 1    
@<TRIPOS>SUBSTRUCTURE
     1 UNK         1 GROUP             0       ****    0 ROOT    
