@<TRIPOS>MOLECULE
ZINC39688581_3694
65   68    1
SMALL
USER_CHARGES


@<TRIPOS>ATOM
      1 C1         -0.1675   51.2996   27.9440 C.3       1 UNK         0.0000 
      2 C2          0.4815   51.9622   26.7402 C.ar      1 UNK         0.0000 
      3 C3          0.1645   51.5280   25.4466 C.ar      1 UNK         0.0000 
      4 C4          0.7039   52.1411   24.2971 C.ar      1 UNK         0.0000 
      5 C5          1.5628   53.2372   24.5114 C.ar      1 UNK         0.0000 
      6 C6          1.9124   53.6505   25.7947 C.ar      1 UNK         0.0000 
      7 C7          1.3815   53.0170   26.9111 C.ar      1 UNK         0.0000 
      8 Br8         1.8683   53.6500   28.6446 Br        1 UNK         0.0000 
      9 C9          0.2948   51.6030   22.9169 C.2       1 UNK         0.0000 
     10 O10        -0.6791   50.8455   22.8666 O.2       1 UNK         0.0000 
     11 N11         0.9669   51.9007   21.7633 N.am      1 UNK         0.0000 
     12 C12         2.1883   52.6934   21.6261 C.3       1 UNK         0.0000 
     13 C13         2.6202   52.4909   20.1663 C.3       1 UNK         0.0000 
     14 H14         2.2084   53.2966   19.5657 H         1 UNK         0.0000 
     15 C15         1.9700   51.1704   19.7047 C.3       1 UNK         0.0000 
     16 C16         0.6336   51.2382   20.4863 C.3       1 UNK         0.0000 
     17 C17         1.8382   51.1401   18.1575 C.3       1 UNK         0.0000 
     18 C18         1.0831   49.9022   17.6532 C.3       1 UNK         0.0000 
     19 N19         1.9044   48.6721   18.0821 N.4       1 UNK         0.0000 
     20 C20         2.0936   48.5863   19.6143 C.3       1 UNK         0.0000 
     21 C21         2.7720   49.8903   20.0920 C.3       1 UNK         0.0000 
     22 C22         4.1612   52.5815   20.0853 C.2       1 UNK         0.0000 
     23 O23         4.8768   52.0953   20.9649 O.2       1 UNK         0.0000 
     24 N24         4.6539   53.2976   19.0587 N.am      1 UNK         0.0000 
     25 C25         6.0762   53.5300   18.8197 C.3       1 UNK         0.0000 
     26 H26         6.5995   52.6239   19.1229 H         1 UNK         0.0000 
     27 C27         6.5973   54.7054   19.6732 C.3       1 UNK         0.0000 
     28 C28         6.3892   53.6962   17.3169 C.3       1 UNK         0.0000 
     29 C29         7.8544   53.4288   16.9886 C.ar      1 UNK         0.0000 
     30 C30         8.2803   52.1201   16.7452 C.ar      1 UNK         0.0000 
     31 C31         9.6228   51.8619   16.4824 C.ar      1 UNK         0.0000 
     32 C32        10.5378   52.9140   16.4703 C.ar      1 UNK         0.0000 
     33 C33        10.1198   54.2216   16.7103 C.ar      1 UNK         0.0000 
     34 C34         8.7752   54.4812   16.9648 C.ar      1 UNK         0.0000 
     35 F35        11.8432   52.6626   16.2282 F         1 UNK         0.0000 
     36 H36        -0.7386   52.0324   28.5154 H         1 UNK         0.0000 
     37 H37        -0.8476   50.4969   27.6621 H         1 UNK         0.0000 
     38 H38         0.5934   50.8957   28.6116 H         1 UNK         0.0000 
     39 H39        -0.5222   50.6976   25.3464 H         1 UNK         0.0000 
     40 H40         1.9817   53.8344   23.7283 H         1 UNK         0.0000 
     41 H41         2.5823   54.4917   25.9226 H         1 UNK         0.0000 
     42 H42         2.9120   52.2625   22.3210 H         1 UNK         0.0000 
     43 H43         2.0068   53.7570   21.7662 H         1 UNK         0.0000 
     44 H44        -0.0157   51.9178   19.9329 H         1 UNK         0.0000 
     45 H45         0.1291   50.2743   20.5548 H         1 UNK         0.0000 
     46 H46         1.2930   52.0234   17.8184 H         1 UNK         0.0000 
     47 H47         2.8211   51.2087   17.6831 H         1 UNK         0.0000 
     48 H48         0.0804   49.7914   18.0700 H         1 UNK         0.0000 
     49 H49         1.0333   49.8657   16.5642 H         1 UNK         0.0000 
     50 H50         1.4810   47.8278   17.7260 H         1 UNK         0.0000 
     51 H51         1.1090   48.4187   20.0512 H         1 UNK         0.0000 
     52 H52         2.7055   47.7032   19.8010 H         1 UNK         0.0000 
     53 H53         3.7779   49.9403   19.6818 H         1 UNK         0.0000 
     54 H54         2.9116   49.8467   21.1743 H         1 UNK         0.0000 
     55 H55         4.0148   53.6567   18.3669 H         1 UNK         0.0000 
     56 H56         7.6653   54.8611   19.5214 H         1 UNK         0.0000 
     57 H57         6.1020   55.6395   19.4048 H         1 UNK         0.0000 
     58 H58         6.4498   54.5270   20.7388 H         1 UNK         0.0000 
     59 H59         6.0920   54.6840   16.9623 H         1 UNK         0.0000 
     60 H60         5.7868   52.9974   16.7323 H         1 UNK         0.0000 
     61 H61         7.5754   51.3003   16.7723 H         1 UNK         0.0000 
     62 H62         9.9586   50.8518   16.3035 H         1 UNK         0.0000 
     63 H63        10.8410   55.0265   16.7053 H         1 UNK         0.0000 
     64 H64         8.4524   55.4939   17.1585 H         1 UNK         0.0000 
     65 H65         2.8207   48.7550   17.6307 H         1 UNK         0.0000 
@<TRIPOS>BOND
     1    1    2 1    
     2    1   36 1    
     3    1   37 1    
     4    1   38 1    
     5    2    7 ar   
     6    2    3 ar   
     7    3    4 ar   
     8    3   39 1    
     9    4    5 ar   
    10    4    9 1    
    11    5    6 ar   
    12    5   40 1    
    13    6    7 ar   
    14    6   41 1    
    15    7    8 1    
    16    9   10 2    
    17    9   11 am   BACKBONE|DICT|INTERRES
    18   11   16 1    
    19   11   12 1    
    20   12   13 1    
    21   12   42 1    
    22   12   43 1    
    23   13   14 1    
    24   13   15 1    
    25   13   22 1    
    26   15   21 1    
    27   15   16 1    
    28   15   17 1    
    29   16   44 1    
    30   16   45 1    
    31   17   18 1    
    32   17   46 1    
    33   17   47 1    
    34   18   19 1    
    35   18   48 1    
    36   18   49 1    
    37   19   20 1    
    38   19   50 1    
    39   19   65 1    
    40   20   21 1    
    41   20   51 1    
    42   20   52 1    
    43   21   53 1    
    44   21   54 1    
    45   22   23 2    
    46   22   24 am   BACKBONE|DICT|INTERRES
    47   24   25 1    
    48   24   55 1    
    49   25   26 1    
    50   25   27 1    
    51   25   28 1    
    52   27   56 1    
    53   27   57 1    
    54   27   58 1    
    55   28   29 1    
    56   28   59 1    
    57   28   60 1    
    58   29   34 ar   
    59   29   30 ar   
    60   30   31 ar   
    61   30   61 1    
    62   31   32 ar   
    63   31   62 1    
    64   32   33 ar   
    65   32   35 1    
    66   33   34 ar   
    67   33   63 1    
    68   34   64 1    
@<TRIPOS>SUBSTRUCTURE
     1 UNK         1 GROUP             0       ****    0 ROOT    
