@<TRIPOS>MOLECULE
ZINC34716218_5997
62   65    1
SMALL
USER_CHARGES


@<TRIPOS>ATOM
      1 C1          2.8754   52.6611   17.2392 C.3       1 UNK         0.0000 
      2 C2          3.5951   53.2618   16.0163 C.3       1 UNK         0.0000 
      3 N3          4.6953   54.2039   16.3784 N.pl3     1 UNK         0.0000 
      4 C4          6.0289   53.7971   16.4231 C.2       1 UNK         0.0000 
      5 C5          6.9495   54.4734   17.1757 C.2       1 UNK         0.0000 
      6 C6          6.4909   55.6236   18.1039 C.3       1 UNK         0.0000 
      7 H7          7.2523   56.4041   18.1439 H         1 UNK         0.0000 
      8 N8          5.2624   56.1791   17.4962 N.pl3     1 UNK         0.0000 
      9 C9          4.3331   55.4927   16.7660 C.2       1 UNK         0.0000 
     10 S10         2.8949   56.2979   16.4816 S.2       1 UNK         0.0000 
     11 C11         6.3131   55.1897   19.5665 C.ar      1 UNK         0.0000 
     12 C12         7.2071   55.6373   20.5448 C.ar      1 UNK         0.0000 
     13 C13         7.0072   55.3074   21.8846 C.ar      1 UNK         0.0000 
     14 C14         5.9042   54.5251   22.2572 C.ar      1 UNK         0.0000 
     15 C15         5.0353   54.0478   21.2760 C.ar      1 UNK         0.0000 
     16 C16         5.2351   54.3814   19.9419 C.ar      1 UNK         0.0000 
     17 N17         5.5567   54.2091   23.5794 N.am      1 UNK         0.0000 
     18 C18         5.9621   54.7614   24.7441 C.2       1 UNK         0.0000 
     19 O19         6.9184   55.5255   24.8818 O.2       1 UNK         0.0000 
     20 C20         5.1189   54.3794   25.9366 C.ar      1 UNK         0.0000 
     21 C21         5.6889   54.3269   27.2130 C.ar      1 UNK         0.0000 
     22 C22         4.9117   53.9762   28.3137 C.ar      1 UNK         0.0000 
     23 C23         3.5501   53.6787   28.1706 C.ar      1 UNK         0.0000 
     24 C24         2.9843   53.7468   26.8937 C.ar      1 UNK         0.0000 
     25 C25         3.7528   54.0968   25.7910 C.ar      1 UNK         0.0000 
     26 C26         2.7100   53.2866   29.3411 C.ar      1 UNK         0.0000 
     27 C27         3.2381   52.4957   30.3707 C.ar      1 UNK         0.0000 
     28 C28         2.4378   52.0967   31.4388 C.ar      1 UNK         0.0000 
     29 C29         1.1047   52.4967   31.4921 C.ar      1 UNK         0.0000 
     30 C30         0.5663   53.2912   30.4867 C.ar      1 UNK         0.0000 
     31 C31         1.3667   53.6844   29.4186 C.ar      1 UNK         0.0000 
     32 C32         8.3532   54.0330   17.3306 C.2       1 UNK         0.0000 
     33 O33         8.7060   52.8525   17.2817 O.2       1 UNK         0.0000 
     34 O34         9.2082   55.0594   17.5462 O.3       1 UNK         0.0000 
     35 C35        10.6023   54.8219   17.6821 C.3       1 UNK         0.0000 
     36 C36         6.3804   52.6518   15.4592 C.3       1 UNK         0.0000 
     37 H37         2.0944   51.9699   16.9223 H         1 UNK         0.0000 
     38 H38         3.5675   52.0950   17.8638 H         1 UNK         0.0000 
     39 H39         2.4007   53.4264   17.8542 H         1 UNK         0.0000 
     40 H40         2.8694   53.7366   15.3556 H         1 UNK         0.0000 
     41 H41         3.9506   52.4254   15.4195 H         1 UNK         0.0000 
     42 H42         4.9493   57.0954   17.7846 H         1 UNK         0.0000 
     43 H43         8.0586   56.2431   20.2703 H         1 UNK         0.0000 
     44 H44         7.7099   55.6835   22.6110 H         1 UNK         0.0000 
     45 H45         4.1790   53.4424   21.5366 H         1 UNK         0.0000 
     46 H46         4.5357   54.0182   19.2047 H         1 UNK         0.0000 
     47 H47         4.7904   53.5607   23.6612 H         1 UNK         0.0000 
     48 H48         6.7352   54.5547   27.3646 H         1 UNK         0.0000 
     49 H49         5.3833   53.9484   29.2817 H         1 UNK         0.0000 
     50 H50         1.9401   53.5152   26.7426 H         1 UNK         0.0000 
     51 H51         3.2640   54.1484   24.8285 H         1 UNK         0.0000 
     52 H52         4.2675   52.1683   30.3368 H         1 UNK         0.0000 
     53 H53         2.8471   51.4902   32.2342 H         1 UNK         0.0000 
     54 H54         0.4817   52.1891   32.3210 H         1 UNK         0.0000 
     55 H55        -0.4687   53.5949   30.5366 H         1 UNK         0.0000 
     56 H56         0.9318   54.3044   28.6485 H         1 UNK         0.0000 
     57 H57        11.1147   55.7541   17.9195 H         1 UNK         0.0000 
     58 H58        10.8046   54.1079   18.4819 H         1 UNK         0.0000 
     59 H59        11.0220   54.4268   16.7558 H         1 UNK         0.0000 
     60 H60         7.4401   52.5872   15.2199 H         1 UNK         0.0000 
     61 H61         6.0767   51.6966   15.8861 H         1 UNK         0.0000 
     62 H62         5.8852   52.7817   14.4959 H         1 UNK         0.0000 
@<TRIPOS>BOND
     1    1    2 1    
     2    1   37 1    
     3    1   38 1    
     4    1   39 1    
     5    2    3 1    
     6    2   40 1    
     7    2   41 1    
     8    3    9 1    
     9    3    4 1    
    10    4    5 2    
    11    4   36 1    
    12    5    6 1    
    13    5   32 1    
    14    6    7 1    
    15    6    8 1    
    16    6   11 1    
    17    8    9 1    
    18    8   42 1    
    19    9   10 2    
    20   11   16 ar   
    21   11   12 ar   
    22   12   13 ar   
    23   12   43 1    
    24   13   14 ar   
    25   13   44 1    
    26   14   15 ar   
    27   14   17 1    
    28   15   16 ar   
    29   15   45 1    
    30   16   46 1    
    31   17   18 am   BACKBONE|DICT|INTERRES
    32   17   47 1    
    33   18   19 2    
    34   18   20 1    
    35   20   25 ar   
    36   20   21 ar   
    37   21   22 ar   
    38   21   48 1    
    39   22   23 ar   
    40   22   49 1    
    41   23   24 ar   
    42   23   26 1    
    43   24   25 ar   
    44   24   50 1    
    45   25   51 1    
    46   26   31 ar   
    47   26   27 ar   
    48   27   28 ar   
    49   27   52 1    
    50   28   29 ar   
    51   28   53 1    
    52   29   30 ar   
    53   29   54 1    
    54   30   31 ar   
    55   30   55 1    
    56   31   56 1    
    57   32   33 2    
    58   32   34 1    
    59   34   35 1    
    60   35   57 1    
    61   35   58 1    
    62   35   59 1    
    63   36   60 1    
    64   36   61 1    
    65   36   62 1    
@<TRIPOS>SUBSTRUCTURE
     1 UNK         1 GROUP             0       ****    0 ROOT    
