@<TRIPOS>MOLECULE
ZINC24705305_2761
60   62    1
SMALL
USER_CHARGES


@<TRIPOS>ATOM
      1 C1          1.4568   52.1041   30.2901 C.3       1 UNK         0.0000 
      2 C2          1.1952   53.2915   29.3402 C.3       1 UNK         0.0000 
      3 C3          0.0996   52.8793   28.3491 C.3       1 UNK         0.0000 
      4 C4          0.7845   54.5552   30.1198 C.3       1 UNK         0.0000 
      5 O5          2.3165   53.5977   28.5005 O.3       1 UNK         0.0000 
      6 C6          3.5687   53.8860   28.9467 C.2       1 UNK         0.0000 
      7 O7          3.9026   53.7580   30.1258 O.2       1 UNK         0.0000 
      8 N8          4.3974   54.3622   27.9178 N.am      1 UNK         0.0000 
      9 C9          5.7988   54.6732   28.2464 C.3       1 UNK         0.0000 
     10 C10         6.7326   53.9943   27.2407 C.3       1 UNK         0.0000 
     11 C11         6.3846   54.3967   25.8025 C.3       1 UNK         0.0000 
     12 C12         4.9185   53.9832   25.5621 C.3       1 UNK         0.0000 
     13 H13         4.8728   52.9023   25.7147 H         1 UNK         0.0000 
     14 C14         3.9040   54.6171   26.5429 C.3       1 UNK         0.0000 
     15 C15         4.5296   54.0964   24.0741 C.2       1 UNK         0.0000 
     16 O16         5.3526   53.7440   23.2242 O.2       1 UNK         0.0000 
     17 N17         3.2732   54.4955   23.7601 N.am      1 UNK         0.0000 
     18 N18         2.7870   54.2291   22.4736 N.am      1 UNK         0.0000 
     19 C19         2.3360   52.9911   22.1572 C.2       1 UNK         0.0000 
     20 O20         2.4458   52.5373   21.0210 O.2       1 UNK         0.0000 
     21 C21         1.5460   52.2766   23.1260 C.2       1 UNK         0.0000 
     22 C22         1.4831   50.9112   23.2859 C.2       1 UNK         0.0000 
     23 C23         0.4919   50.4756   24.1726 C.2       1 UNK         0.0000 
     24 C24        -0.2446   51.5299   24.7194 C.2       1 UNK         0.0000 
     25 S25         0.3246   53.0477   24.0786 S.3       1 UNK         0.0000 
     26 C26        -1.4023   51.4019   25.6889 C.3       1 UNK         0.0000 
     27 C27        -2.5851   50.5894   25.1348 C.3       1 UNK         0.0000 
     28 C28        -2.3406   49.0654   25.0654 C.3       1 UNK         0.0000 
     29 C29        -1.2264   48.5790   24.1149 C.3       1 UNK         0.0000 
     30 C30         0.2073   49.0249   24.4642 C.3       1 UNK         0.0000 
     31 H31         0.5262   51.7023   30.6967 H         1 UNK         0.0000 
     32 H32         2.0868   52.3683   31.1393 H         1 UNK         0.0000 
     33 H33         1.9482   51.2947   29.7503 H         1 UNK         0.0000 
     34 H34        -0.1718   53.6958   27.6854 H         1 UNK         0.0000 
     35 H35         0.4518   52.0588   27.7236 H         1 UNK         0.0000 
     36 H36        -0.8059   52.5422   28.8546 H         1 UNK         0.0000 
     37 H37         0.7264   55.4143   29.4508 H         1 UNK         0.0000 
     38 H38        -0.1821   54.4315   30.6097 H         1 UNK         0.0000 
     39 H39         1.5149   54.8133   30.8840 H         1 UNK         0.0000 
     40 H40         5.9047   55.7469   28.1967 H         1 UNK         0.0000 
     41 H41         6.0861   54.4059   29.2615 H         1 UNK         0.0000 
     42 H42         7.7584   54.2771   27.4710 H         1 UNK         0.0000 
     43 H43         6.6944   52.9099   27.3633 H         1 UNK         0.0000 
     44 H44         6.5201   55.4751   25.7074 H         1 UNK         0.0000 
     45 H45         7.0789   53.8484   25.1623 H         1 UNK         0.0000 
     46 H46         2.9472   54.1234   26.3687 H         1 UNK         0.0000 
     47 H47         3.7582   55.6905   26.4109 H         1 UNK         0.0000 
     48 H48         2.5540   54.7564   24.4184 H         1 UNK         0.0000 
     49 H49         3.2009   54.8398   21.7831 H         1 UNK         0.0000 
     50 H50         2.1253   50.2284   22.7478 H         1 UNK         0.0000 
     51 H51        -1.0692   50.8779   26.5857 H         1 UNK         0.0000 
     52 H52        -1.7438   52.3820   26.0273 H         1 UNK         0.0000 
     53 H53        -3.4397   50.7528   25.7954 H         1 UNK         0.0000 
     54 H54        -2.8907   50.9743   24.1586 H         1 UNK         0.0000 
     55 H55        -2.1355   48.6940   26.0722 H         1 UNK         0.0000 
     56 H56        -3.2714   48.5852   24.7676 H         1 UNK         0.0000 
     57 H57        -1.2461   47.4867   24.1104 H         1 UNK         0.0000 
     58 H58        -1.4619   48.8783   23.0919 H         1 UNK         0.0000 
     59 H59         0.9037   48.4465   23.8669 H         1 UNK         0.0000 
     60 H60         0.4275   48.7797   25.5044 H         1 UNK         0.0000 
@<TRIPOS>BOND
     1    1    2 1    
     2    1   31 1    
     3    1   32 1    
     4    1   33 1    
     5    2    3 1    
     6    2    4 1    
     7    2    5 1    
     8    3   34 1    
     9    3   35 1    
    10    3   36 1    
    11    4   37 1    
    12    4   38 1    
    13    4   39 1    
    14    5    6 1    
    15    6    7 2    
    16    6    8 am   BACKBONE|DICT|INTERRES
    17    8   14 1    
    18    8    9 1    
    19    9   10 1    
    20    9   40 1    
    21    9   41 1    
    22   10   11 1    
    23   10   42 1    
    24   10   43 1    
    25   11   12 1    
    26   11   44 1    
    27   11   45 1    
    28   12   13 1    
    29   12   14 1    
    30   12   15 1    
    31   14   46 1    
    32   14   47 1    
    33   15   16 2    
    34   15   17 am   BACKBONE|DICT|INTERRES
    35   17   18 1    
    36   17   48 1    
    37   18   19 am   BACKBONE|DICT|INTERRES
    38   18   49 1    
    39   19   20 2    
    40   19   21 1    
    41   21   25 1    
    42   21   22 2    
    43   22   23 1    
    44   22   50 1    
    45   23   30 1    
    46   23   24 2    
    47   24   25 1    
    48   24   26 1    
    49   26   27 1    
    50   26   51 1    
    51   26   52 1    
    52   27   28 1    
    53   27   53 1    
    54   27   54 1    
    55   28   29 1    
    56   28   55 1    
    57   28   56 1    
    58   29   30 1    
    59   29   57 1    
    60   29   58 1    
    61   30   59 1    
    62   30   60 1    
@<TRIPOS>SUBSTRUCTURE
     1 UNK         1 GROUP             0       ****    0 ROOT    
