@<TRIPOS>MOLECULE
ZINC35316329_442
52   55    1
SMALL
USER_CHARGES


@<TRIPOS>ATOM
      1 C1          0.1185   54.0116   31.6287 C.3       1 UNK         0.0000 
      2 C2          1.0880   53.8455   30.4801 C.ar      1 UNK         0.0000 
      3 C3          1.6128   54.9689   29.8396 C.ar      1 UNK         0.0000 
      4 C4          2.5060   54.8075   28.7851 C.ar      1 UNK         0.0000 
      5 C5          2.8618   53.5229   28.3588 C.ar      1 UNK         0.0000 
      6 C6          2.3231   52.4038   28.9968 C.ar      1 UNK         0.0000 
      7 C7          1.4348   52.5643   30.0544 C.ar      1 UNK         0.0000 
      8 C8          3.8218   53.3066   27.1984 C.3       1 UNK         0.0000 
      9 O9          4.0239   54.5093   26.4539 O.3       1 UNK         0.0000 
     10 C10         4.2674   54.3100   25.1170 C.ar      1 UNK         0.0000 
     11 C11         3.2012   54.0974   24.2320 C.ar      1 UNK         0.0000 
     12 C12         3.4790   53.8797   22.8729 C.ar      1 UNK         0.0000 
     13 C13         4.7953   53.8053   22.4039 C.ar      1 UNK         0.0000 
     14 C14         5.8427   54.0167   23.3070 C.ar      1 UNK         0.0000 
     15 C15         5.5847   54.2888   24.6490 C.ar      1 UNK         0.0000 
     16 Br16        7.0420   54.5737   25.8420 Br        1 UNK         0.0000 
     17 C17         5.0990   53.4598   20.9409 C.3       1 UNK         0.0000 
     18 H18         5.8971   52.7298   21.0174 H         1 UNK         0.0000 
     19 C19         5.5412   54.6603   20.0925 C.ar      1 UNK         0.0000 
     20 C20         6.5265   55.6750   20.1703 C.ar      1 UNK         0.0000 
     21 N21         6.4129   56.5504   19.1832 N.2       1 UNK         0.0000 
     22 N22         5.4089   56.1085   18.4194 N.pl3     1 UNK         0.0000 
     23 H23         5.1112   56.5746   17.5749 H         1 UNK         0.0000 
     24 C24         4.8736   54.9665   18.9247 C.ar      1 UNK         0.0000 
     25 O25         3.8569   54.2800   18.3156 O.3       1 UNK         0.0000 
     26 C26         3.5047   53.1380   18.9719 C.2       1 UNK         0.0000 
     27 C27         4.0013   52.7004   20.1606 C.2       1 UNK         0.0000 
     28 C28         3.5172   51.4789   20.7168 C.1       1 UNK         0.0000 
     29 N29         3.1030   50.5143   21.2010 N.1       1 UNK         0.0000 
     30 N30         2.5697   52.4983   18.2091 N.pl3     1 UNK         0.0000 
     31 C31         7.6423   55.8527   21.1740 C.3       1 UNK         0.0000 
     32 O32         1.9242   54.0954   24.7626 O.3       1 UNK         0.0000 
     33 C33         0.8330   53.7490   23.9171 C.3       1 UNK         0.0000 
     34 H34        -0.5571   53.1602   31.6819 H         1 UNK         0.0000 
     35 H35         0.6408   54.1012   32.5800 H         1 UNK         0.0000 
     36 H36        -0.4933   54.8959   31.4779 H         1 UNK         0.0000 
     37 H37         1.3360   55.9619   30.1601 H         1 UNK         0.0000 
     38 H38         2.9107   55.6820   28.3017 H         1 UNK         0.0000 
     39 H39         2.5800   51.4083   28.6648 H         1 UNK         0.0000 
     40 H40         1.0094   51.6972   30.5371 H         1 UNK         0.0000 
     41 H41         3.4128   52.5005   26.5835 H         1 UNK         0.0000 
     42 H42         4.7839   52.9667   27.5876 H         1 UNK         0.0000 
     43 H43         2.6746   53.7375   22.1701 H         1 UNK         0.0000 
     44 H44         6.8684   53.9478   22.9816 H         1 UNK         0.0000 
     45 H45         2.2926   51.5595   18.4576 H         1 UNK         0.0000 
     46 H46         2.4928   52.7366   17.2302 H         1 UNK         0.0000 
     47 H47         8.1202   54.9044   21.4146 H         1 UNK         0.0000 
     48 H48         7.2865   56.2835   22.1080 H         1 UNK         0.0000 
     49 H49         8.4418   56.4945   20.7986 H         1 UNK         0.0000 
     50 H50        -0.0942   53.6977   24.4818 H         1 UNK         0.0000 
     51 H51         0.7134   54.5111   23.1508 H         1 UNK         0.0000 
     52 H52         0.9739   52.7761   23.4437 H         1 UNK         0.0000 
@<TRIPOS>BOND
     1    1    2 1    
     2    1   34 1    
     3    1   35 1    
     4    1   36 1    
     5    2    7 ar   
     6    2    3 ar   
     7    3    4 ar   
     8    3   37 1    
     9    4    5 ar   
    10    4   38 1    
    11    5    6 ar   
    12    5    8 1    
    13    6    7 ar   
    14    6   39 1    
    15    7   40 1    
    16    8    9 1    
    17    8   41 1    
    18    8   42 1    
    19    9   10 1    
    20   10   15 ar   
    21   10   11 ar   
    22   11   12 ar   
    23   11   32 1    
    24   12   13 ar   
    25   12   43 1    
    26   13   14 ar   
    27   13   17 1    
    28   14   15 ar   
    29   14   44 1    
    30   15   16 1    
    31   17   18 1    
    32   17   27 1    
    33   17   19 1    
    34   19   24 ar   
    35   19   20 ar   
    36   20   21 ar   
    37   20   31 1    
    38   21   22 ar   
    39   22   23 1    
    40   22   24 ar   
    41   24   25 1    
    42   25   26 1    
    43   26   27 2    
    44   26   30 1    
    45   27   28 1    
    46   28   29 3    
    47   30   45 1    
    48   30   46 1    
    49   31   47 1    
    50   31   48 1    
    51   31   49 1    
    52   32   33 1    
    53   33   50 1    
    54   33   51 1    
    55   33   52 1    
@<TRIPOS>SUBSTRUCTURE
     1 UNK         1 GROUP             0       ****    0 ROOT    
