@<TRIPOS>MOLECULE
ZINC22506148_80
57   60    1
SMALL
USER_CHARGES


@<TRIPOS>ATOM
      1 C1          4.1719   51.9985   21.2624 C.3       1 UNK         0.0000 
      2 O2          3.1381   51.1795   21.7989 O.3       1 UNK         0.0000 
      3 C3          2.3233   50.4608   20.9430 C.ar      1 UNK         0.0000 
      4 C4          2.4828   50.4626   19.5482 C.ar      1 UNK         0.0000 
      5 C5          1.6447   49.7104   18.7300 C.ar      1 UNK         0.0000 
      6 C6          0.6224   48.9341   19.2761 C.ar      1 UNK         0.0000 
      7 C7          0.4736   48.8995   20.6697 C.ar      1 UNK         0.0000 
      8 C8          1.3011   49.6668   21.4970 C.ar      1 UNK         0.0000 
      9 N9          1.0821   49.5866   22.8815 N.am      1 UNK         0.0000 
     10 C10         0.6835   50.6097   23.6598 C.2       1 UNK         0.0000 
     11 O11         0.4788   51.7557   23.2565 O.2       1 UNK         0.0000 
     12 N12         0.4796   50.2051   24.9269 N.am      1 UNK         0.0000 
     13 C13        -0.2913   50.8739   25.9942 C.3       1 UNK         0.0000 
     14 C14         0.4284   51.9807   26.7896 C.ar      1 UNK         0.0000 
     15 C15         1.5033   52.7153   26.2686 C.ar      1 UNK         0.0000 
     16 C16         2.1308   53.6895   27.0418 C.ar      1 UNK         0.0000 
     17 C17         1.6923   53.9298   28.3416 C.ar      1 UNK         0.0000 
     18 C18         0.6377   53.1964   28.8792 C.ar      1 UNK         0.0000 
     19 C19         0.0135   52.2211   28.1062 C.ar      1 UNK         0.0000 
     20 C20        -1.7231   51.2534   25.5836 C.ar      1 UNK         0.0000 
     21 C21        -2.7793   50.3799   25.8647 C.ar      1 UNK         0.0000 
     22 C22        -4.0844   50.7275   25.5244 C.ar      1 UNK         0.0000 
     23 C23        -4.3364   51.9524   24.9100 C.ar      1 UNK         0.0000 
     24 C24        -3.2955   52.8375   24.6406 C.ar      1 UNK         0.0000 
     25 C25        -1.9920   52.4914   24.9859 C.ar      1 UNK         0.0000 
     26 N26        -0.2220   48.2332   18.3922 N.pl3     1 UNK         0.0000 
     27 C27        -1.6038   47.9408   18.7575 C.3       1 UNK         0.0000 
     28 C28        -1.6817   46.4960   19.3018 C.3       1 UNK         0.0000 
     29 C29        -0.4180   45.7195   18.8779 C.3       1 UNK         0.0000 
     30 S30         0.3652   46.7879   17.5561 S.o2      1 UNK         0.0000 
     31 O31        -0.3879   46.5243   16.3249 O.2       1 UNK         0.0000 
     32 O32         1.8247   46.6649   17.6021 O.2       1 UNK         0.0000 
     33 H33         4.6978   52.4940   22.0785 H         1 UNK         0.0000 
     34 H34         4.9038   51.4088   20.7080 H         1 UNK         0.0000 
     35 H35         3.7687   52.7754   20.6110 H         1 UNK         0.0000 
     36 H36         3.2651   51.0322   19.0687 H         1 UNK         0.0000 
     37 H37         1.8061   49.7310   17.6605 H         1 UNK         0.0000 
     38 H38        -0.3008   48.2951   21.1175 H         1 UNK         0.0000 
     39 H39         1.1534   48.6719   23.2998 H         1 UNK         0.0000 
     40 H40         0.9068   49.3335   25.2029 H         1 UNK         0.0000 
     41 H41        -0.3932   50.0678   26.7262 H         1 UNK         0.0000 
     42 H42         1.8620   52.5453   25.2654 H         1 UNK         0.0000 
     43 H43         2.9549   54.2553   26.6326 H         1 UNK         0.0000 
     44 H44         2.1780   54.6879   28.9379 H         1 UNK         0.0000 
     45 H45         0.3052   53.3786   29.8910 H         1 UNK         0.0000 
     46 H46        -0.8009   51.6500   28.5311 H         1 UNK         0.0000 
     47 H47        -2.5906   49.4326   26.3525 H         1 UNK         0.0000 
     48 H48        -4.8975   50.0501   25.7406 H         1 UNK         0.0000 
     49 H49        -5.3489   52.2195   24.6444 H         1 UNK         0.0000 
     50 H50        -3.4969   53.7878   24.1688 H         1 UNK         0.0000 
     51 H51        -1.1857   53.1795   24.7777 H         1 UNK         0.0000 
     52 H52        -1.9384   48.6044   19.5565 H         1 UNK         0.0000 
     53 H53        -2.3227   48.1574   17.9658 H         1 UNK         0.0000 
     54 H54        -1.7803   46.4971   20.3886 H         1 UNK         0.0000 
     55 H55        -2.5865   46.0149   18.9267 H         1 UNK         0.0000 
     56 H56         0.3034   45.5964   19.6816 H         1 UNK         0.0000 
     57 H57        -0.6402   44.7446   18.4464 H         1 UNK         0.0000 
@<TRIPOS>BOND
     1    1    2 1    
     2    1   33 1    
     3    1   34 1    
     4    1   35 1    
     5    2    3 1    
     6    3    8 ar   
     7    3    4 ar   
     8    4    5 ar   
     9    4   36 1    
    10    5    6 ar   
    11    5   37 1    
    12    6    7 ar   
    13    6   26 1    
    14    7    8 ar   
    15    7   38 1    
    16    8    9 1    
    17    9   10 am   BACKBONE|DICT|INTERRES
    18    9   39 1    
    19   10   11 2    
    20   10   12 am   BACKBONE|DICT|INTERRES
    21   12   13 1    
    22   12   40 1    
    23   13   14 1    
    24   13   20 1    
    25   13   41 1    
    26   14   19 ar   
    27   14   15 ar   
    28   15   16 ar   
    29   15   42 1    
    30   16   17 ar   
    31   16   43 1    
    32   17   18 ar   
    33   17   44 1    
    34   18   19 ar   
    35   18   45 1    
    36   19   46 1    
    37   20   25 ar   
    38   20   21 ar   
    39   21   22 ar   
    40   21   47 1    
    41   22   23 ar   
    42   22   48 1    
    43   23   24 ar   
    44   23   49 1    
    45   24   25 ar   
    46   24   50 1    
    47   25   51 1    
    48   26   30 1    
    49   26   27 1    
    50   27   28 1    
    51   27   52 1    
    52   27   53 1    
    53   28   29 1    
    54   28   54 1    
    55   28   55 1    
    56   29   30 1    
    57   29   56 1    
    58   29   57 1    
    59   30   31 2    
    60   30   32 2    
@<TRIPOS>SUBSTRUCTURE
     1 UNK         1 GROUP             0       ****    0 ROOT    
