@<TRIPOS>MOLECULE
ZINC38666268_1045
74   77    1
SMALL
USER_CHARGES


@<TRIPOS>ATOM
      1 C1          0.2032   53.6926   30.4550 C.3       1 UNK         0.0000 
      2 C2          1.6516   53.3945   30.0806 C.ar      1 UNK         0.0000 
      3 C3          2.3542   52.4948   30.8818 C.ar      1 UNK         0.0000 
      4 C4          3.6756   52.1683   30.5995 C.ar      1 UNK         0.0000 
      5 C5          4.3044   52.7448   29.5018 C.ar      1 UNK         0.0000 
      6 C6          3.6369   53.6594   28.6922 C.ar      1 UNK         0.0000 
      7 C7          2.2949   53.9981   28.9781 C.ar      1 UNK         0.0000 
      8 C8          1.5669   55.0381   28.1475 C.3       1 UNK         0.0000 
      9 N9          4.4082   54.2192   27.6573 N.am      1 UNK         0.0000 
     10 C10         4.1780   54.0966   26.3317 C.2       1 UNK         0.0000 
     11 O11         3.1649   53.5866   25.8412 O.2       1 UNK         0.0000 
     12 C12         5.3043   54.6083   25.4888 C.2       1 UNK         0.0000 
     13 O13         6.2448   55.2772   25.9331 O.2       1 UNK         0.0000 
     14 N14         5.1818   54.2528   24.1953 N.am      1 UNK         0.0000 
     15 C15         6.0899   54.5727   23.0880 C.3       1 UNK         0.0000 
     16 C16         5.4013   54.7565   21.6856 C.3       1 UNK         0.0000 
     17 H17         4.8559   55.6965   21.6818 H         1 UNK         0.0000 
     18 C18         4.3629   53.6398   21.4328 C.ar      1 UNK         0.0000 
     19 C19         4.6223   52.5402   20.6091 C.ar      1 UNK         0.0000 
     20 C20         3.6827   51.5195   20.4817 C.ar      1 UNK         0.0000 
     21 C21         2.4722   51.5448   21.1860 C.ar      1 UNK         0.0000 
     22 C22         2.2139   52.6603   21.9939 C.ar      1 UNK         0.0000 
     23 C23         3.1348   53.6970   22.0994 C.ar      1 UNK         0.0000 
     24 N24         1.5477   50.4680   21.0931 N.pl3     1 UNK         0.0000 
     25 C25         1.7482   49.4028   20.1073 C.3       1 UNK         0.0000 
     26 C26         0.2317   50.5625   21.7255 C.3       1 UNK         0.0000 
     27 N27         6.3689   54.8971   20.5695 N.3       1 UNK         0.0000 
     28 C28         7.6250   55.5826   20.9062 C.3       1 UNK         0.0000 
     29 C29         8.5949   55.5781   19.7100 C.3       1 UNK         0.0000 
     30 N30         8.0384   56.2581   18.5331 N.pl3     1 UNK         0.0000 
     31 C31         6.7220   55.6767   18.2094 C.3       1 UNK         0.0000 
     32 C32         5.7589   55.5887   19.4200 C.3       1 UNK         0.0000 
     33 C33         8.5701   57.4369   18.0096 C.ar      1 UNK         0.0000 
     34 C34         7.7522   58.4234   17.4393 C.ar      1 UNK         0.0000 
     35 C35         8.3045   59.5956   16.9241 C.ar      1 UNK         0.0000 
     36 C36         9.6789   59.8017   16.9911 C.ar      1 UNK         0.0000 
     37 C37        10.5092   58.8343   17.5445 C.ar      1 UNK         0.0000 
     38 C38         9.9575   57.6558   18.0441 C.ar      1 UNK         0.0000 
     39 F39        10.2117   60.9543   16.5230 F         1 UNK         0.0000 
     40 H40        -0.1590   53.0633   31.2720 H         1 UNK         0.0000 
     41 H41         0.0917   54.7340   30.7563 H         1 UNK         0.0000 
     42 H42        -0.4512   53.5191   29.6012 H         1 UNK         0.0000 
     43 H43         1.8739   52.0391   31.7391 H         1 UNK         0.0000 
     44 H44         4.2188   51.4783   31.2295 H         1 UNK         0.0000 
     45 H45         5.3336   52.4857   29.2862 H         1 UNK         0.0000 
     46 H46         2.1655   55.9476   28.0774 H         1 UNK         0.0000 
     47 H47         0.6004   55.3051   28.5537 H         1 UNK         0.0000 
     48 H48         1.3924   54.6449   27.1491 H         1 UNK         0.0000 
     49 H49         5.3075   54.5996   27.9182 H         1 UNK         0.0000 
     50 H50         4.3831   53.6761   23.9621 H         1 UNK         0.0000 
     51 H51         6.6688   55.4635   23.3404 H         1 UNK         0.0000 
     52 H52         6.8153   53.7593   23.0308 H         1 UNK         0.0000 
     53 H53         5.5489   52.4622   20.0581 H         1 UNK         0.0000 
     54 H54         3.9050   50.7027   19.8143 H         1 UNK         0.0000 
     55 H55         1.2970   52.7479   22.5518 H         1 UNK         0.0000 
     56 H56         2.8936   54.5439   22.7250 H         1 UNK         0.0000 
     57 H57         1.7617   49.8178   19.0973 H         1 UNK         0.0000 
     58 H58         2.7023   48.8969   20.2662 H         1 UNK         0.0000 
     59 H59         0.9616   48.6475   20.1446 H         1 UNK         0.0000 
     60 H60         0.3251   50.7840   22.7902 H         1 UNK         0.0000 
     61 H61        -0.3452   51.3663   21.2673 H         1 UNK         0.0000 
     62 H62        -0.3394   49.6384   21.6265 H         1 UNK         0.0000 
     63 H63         7.4272   56.6063   21.2157 H         1 UNK         0.0000 
     64 H64         8.1504   55.0690   21.7098 H         1 UNK         0.0000 
     65 H65         8.8850   54.5642   19.4298 H         1 UNK         0.0000 
     66 H66         9.5043   56.0681   20.0470 H         1 UNK         0.0000 
     67 H67         6.9009   54.6791   17.8039 H         1 UNK         0.0000 
     68 H68         6.2352   56.2248   17.4030 H         1 UNK         0.0000 
     69 H69         4.8502   55.0749   19.1033 H         1 UNK         0.0000 
     70 H70         5.5029   56.6113   19.7032 H         1 UNK         0.0000 
     71 H71         6.6786   58.3088   17.4004 H         1 UNK         0.0000 
     72 H72         7.6639   60.3486   16.4841 H         1 UNK         0.0000 
     73 H73        11.5760   58.9913   17.5802 H         1 UNK         0.0000 
     74 H74        10.6250   56.9099   18.4485 H         1 UNK         0.0000 
@<TRIPOS>BOND
     1    1    2 1    
     2    1   40 1    
     3    1   41 1    
     4    1   42 1    
     5    2    7 ar   
     6    2    3 ar   
     7    3    4 ar   
     8    3   43 1    
     9    4    5 ar   
    10    4   44 1    
    11    5    6 ar   
    12    5   45 1    
    13    6    7 ar   
    14    6    9 1    
    15    7    8 1    
    16    8   46 1    
    17    8   47 1    
    18    8   48 1    
    19    9   10 am   BACKBONE|DICT|INTERRES
    20    9   49 1    
    21   10   11 2    
    22   10   12 1    
    23   12   13 2    
    24   12   14 am   BACKBONE|DICT|INTERRES
    25   14   15 1    
    26   14   50 1    
    27   15   16 1    
    28   15   51 1    
    29   15   52 1    
    30   16   17 1    
    31   16   18 1    
    32   16   27 1    
    33   18   23 ar   
    34   18   19 ar   
    35   19   20 ar   
    36   19   53 1    
    37   20   21 ar   
    38   20   54 1    
    39   21   22 ar   
    40   21   24 1    
    41   22   23 ar   
    42   22   55 1    
    43   23   56 1    
    44   24   25 1    
    45   24   26 1    
    46   25   57 1    
    47   25   58 1    
    48   25   59 1    
    49   26   60 1    
    50   26   61 1    
    51   26   62 1    
    52   27   32 1    
    53   27   28 1    
    54   28   29 1    
    55   28   63 1    
    56   28   64 1    
    57   29   30 1    
    58   29   65 1    
    59   29   66 1    
    60   30   31 1    
    61   30   33 1    
    62   31   32 1    
    63   31   67 1    
    64   31   68 1    
    65   32   69 1    
    66   32   70 1    
    67   33   38 ar   
    68   33   34 ar   
    69   34   35 ar   
    70   34   71 1    
    71   35   36 ar   
    72   35   72 1    
    73   36   37 ar   
    74   36   39 1    
    75   37   38 ar   
    76   37   73 1    
    77   38   74 1    
@<TRIPOS>SUBSTRUCTURE
     1 UNK         1 GROUP             0       ****    0 ROOT    
