@<TRIPOS>MOLECULE
ZINC53086030_1382
50   53    1
SMALL
USER_CHARGES


@<TRIPOS>ATOM
      1 C1          4.5691   54.4959   29.4608 C.3       1 UNK         0.0000 
      2 C2          3.6921   54.1144   28.2831 C.ar      1 UNK         0.0000 
      3 C3          2.4365   53.5442   28.4996 C.ar      1 UNK         0.0000 
      4 C4          1.6443   53.1631   27.4173 C.ar      1 UNK         0.0000 
      5 C5          2.1099   53.3586   26.1152 C.ar      1 UNK         0.0000 
      6 C6          3.3713   53.9357   25.8688 C.ar      1 UNK         0.0000 
      7 C7          4.1532   54.3003   26.9780 C.ar      1 UNK         0.0000 
      8 N8          3.9018   54.0962   24.5545 N.am      1 UNK         0.0000 
      9 C9          5.3493   54.1824   24.3098 C.3       1 UNK         0.0000 
     10 C10         5.5481   54.2758   22.8141 C.3       1 UNK         0.0000 
     11 C11         4.1663   54.0495   22.2171 C.3       1 UNK         0.0000 
     12 H12         3.9012   54.8588   21.5374 H         1 UNK         0.0000 
     13 C13         3.1815   54.0969   23.3921 C.2       1 UNK         0.0000 
     14 O14         1.9587   54.1016   23.2487 O.2       1 UNK         0.0000 
     15 C15         4.0552   52.7318   21.4125 C.2       1 UNK         0.0000 
     16 O16         4.7843   51.7737   21.6784 O.2       1 UNK         0.0000 
     17 N17         3.0995   52.6930   20.4571 N.am      1 UNK         0.0000 
     18 N18         2.7037   51.4650   19.9012 N.am      1 UNK         0.0000 
     19 C19         1.8862   50.6478   20.6146 C.2       1 UNK         0.0000 
     20 O20         1.4350   50.9368   21.7287 O.2       1 UNK         0.0000 
     21 C21         1.4766   49.3495   19.9533 C.ar      1 UNK         0.0000 
     22 C22         0.3270   48.6651   20.4180 C.ar      1 UNK         0.0000 
     23 C23        -0.0994   47.4667   19.8289 C.ar      1 UNK         0.0000 
     24 C24         0.6480   46.9702   18.7684 C.ar      1 UNK         0.0000 
     25 C25         1.7609   47.6148   18.3123 C.ar      1 UNK         0.0000 
     26 C26         2.2114   48.8006   18.8809 C.ar      1 UNK         0.0000 
     27 O27         2.3102   46.8967   17.2972 O.3       1 UNK         0.0000 
     28 C28         1.3607   45.9171   16.9772 C.3       1 UNK         0.0000 
     29 O29         0.4620   45.8282   18.0545 O.3       1 UNK         0.0000 
     30 C30         0.2995   52.4970   27.6547 C.3       1 UNK         0.0000 
     31 H31         5.6184   54.2857   29.2447 H         1 UNK         0.0000 
     32 H32         4.3040   53.9230   30.3512 H         1 UNK         0.0000 
     33 H33         4.4746   55.5581   29.6814 H         1 UNK         0.0000 
     34 H34         2.0805   53.3845   29.5070 H         1 UNK         0.0000 
     35 H35         1.4831   53.0150   25.3080 H         1 UNK         0.0000 
     36 H36         5.1307   54.7365   26.8436 H         1 UNK         0.0000 
     37 H37         5.7841   55.0601   24.7907 H         1 UNK         0.0000 
     38 H38         5.8554   53.2966   24.6993 H         1 UNK         0.0000 
     39 H39         5.9055   55.2692   22.5499 H         1 UNK         0.0000 
     40 H40         6.3155   53.5756   22.4817 H         1 UNK         0.0000 
     41 H41         2.4546   53.4500   20.2609 H         1 UNK         0.0000 
     42 H42         3.3376   51.1441   19.1803 H         1 UNK         0.0000 
     43 H43        -0.2475   49.0660   21.2433 H         1 UNK         0.0000 
     44 H44        -0.9765   46.9536   20.1925 H         1 UNK         0.0000 
     45 H45         3.1027   49.2724   18.4829 H         1 UNK         0.0000 
     46 H46         1.8442   44.9585   16.7940 H         1 UNK         0.0000 
     47 H47         0.8233   46.2257   16.0781 H         1 UNK         0.0000 
     48 H48         0.0614   51.8035   26.8478 H         1 UNK         0.0000 
     49 H49         0.3106   51.9078   28.5715 H         1 UNK         0.0000 
     50 H50        -0.4963   53.2362   27.7260 H         1 UNK         0.0000 
@<TRIPOS>BOND
     1    1    2 1    
     2    1   31 1    
     3    1   32 1    
     4    1   33 1    
     5    2    7 ar   
     6    2    3 ar   
     7    3    4 ar   
     8    3   34 1    
     9    4    5 ar   
    10    4   30 1    
    11    5    6 ar   
    12    5   35 1    
    13    6    7 ar   
    14    6    8 1    
    15    7   36 1    
    16    8   13 am   BACKBONE|DICT|INTERRES
    17    8    9 1    
    18    9   10 1    
    19    9   37 1    
    20    9   38 1    
    21   10   11 1    
    22   10   39 1    
    23   10   40 1    
    24   11   12 1    
    25   11   13 1    
    26   11   15 1    
    27   13   14 2    
    28   15   16 2    
    29   15   17 am   BACKBONE|DICT|INTERRES
    30   17   18 1    
    31   17   41 1    
    32   18   19 am   BACKBONE|DICT|INTERRES
    33   18   42 1    
    34   19   20 2    
    35   19   21 1    
    36   21   26 ar   
    37   21   22 ar   
    38   22   23 ar   
    39   22   43 1    
    40   23   24 ar   
    41   23   44 1    
    42   24   29 1    
    43   24   25 ar   
    44   25   26 ar   
    45   25   27 1    
    46   26   45 1    
    47   27   28 1    
    48   28   29 1    
    49   28   46 1    
    50   28   47 1    
    51   30   48 1    
    52   30   49 1    
    53   30   50 1    
@<TRIPOS>SUBSTRUCTURE
     1 UNK         1 GROUP             0       ****    0 ROOT    
