ZINC16007121_5232
                    3D
 Schrodinger Suite 2024-2.
 60 66  0  0  1  0            999 V2000
    4.9181   54.0443   21.2496 C   0  0  0  0  0  0
    4.8206   53.0089   20.3255 C   0  0  0  0  0  0
    3.8423   52.0300   20.4784 C   0  0  0  0  0  0
    2.9227   52.0703   21.5366 C   0  0  0  0  0  0
    3.0597   53.1088   22.4812 C   0  0  0  0  0  0
    4.0408   54.0911   22.3291 C   0  0  0  0  0  0
    2.1090   53.2093   23.5970 C   0  0  0  0  0  0
    0.9579   52.5198   23.6364 C   0  0  0  0  0  0
    1.8153   51.0068   21.7529 C   0  0  2  0  0  0
    2.2202   50.2820   22.4659 H   0  0  0  0  0  0
    1.0788   50.3097   20.5647 C   0  0  1  0  0  0
    0.9129   51.1753   19.3309 C   0  0  0  0  0  0
    0.2753   52.4001   19.1243 C   0  0  0  0  0  0
    0.3169   53.0027   17.8641 C   0  0  0  0  0  0
    1.0080   52.3906   16.8149 C   0  0  0  0  0  0
    1.6603   51.1745   17.0246 C   0  0  0  0  0  0
    1.5994   50.5868   18.2863 C   0  0  0  0  0  0
    2.2021   49.4253   18.7257 N   0  0  0  0  0  0
    1.9337   49.1447   20.0112 C   0  0  0  0  0  0
    2.3044   48.1581   20.6399 O   0  0  0  0  0  0
   -0.1973   49.7163   21.2888 C   0  0  1  0  0  0
   -0.0002   48.6869   21.5884 H   0  0  0  0  0  0
   -0.4470   50.5334   22.5930 C   0  0  1  0  0  0
   -1.4047   51.0542   22.6458 H   0  0  0  0  0  0
   -0.2873   49.6530   23.8698 C   0  0  0  0  0  0
    0.7047   49.7403   24.5927 O   0  0  0  0  0  0
   -1.3547   48.7098   24.1821 C   0  0  0  0  0  0
   -1.5467   47.8576   25.2633 C   0  0  0  0  0  0
   -2.7634   47.2076   25.0552 C   0  0  0  0  0  0
   -3.2540   47.6769   23.8474 C   0  0  0  0  0  0
   -2.4003   48.5920   23.3197 O   0  0  0  0  0  0
   -1.4858   49.6697   20.4226 C   0  0  0  0  0  0
   -2.1213   50.7149   20.2556 O   0  0  0  0  0  0
   -2.0094   48.3294   19.9945 C   0  0  0  0  0  0
   -1.1703   47.2137   19.8497 C   0  0  0  0  0  0
   -1.6908   45.9852   19.4529 C   0  0  0  0  0  0
   -3.0520   45.8615   19.1896 C   0  0  0  0  0  0
   -3.8952   46.9630   19.3091 C   0  0  0  0  0  0
   -3.3752   48.1931   19.7042 C   0  0  0  0  0  0
   -3.6951   44.3333   18.7090 Cl  0  0  0  0  0  0
    5.6740   54.8065   21.1304 H   0  0  0  0  0  0
    5.5011   52.9557   19.4872 H   0  0  0  0  0  0
    3.8161   51.2412   19.7445 H   0  0  0  0  0  0
    4.1223   54.8966   23.0433 H   0  0  0  0  0  0
    2.3379   53.8658   24.4253 H   0  0  0  0  0  0
    0.2311   52.5995   24.4336 H   0  0  0  0  0  0
   -0.2370   52.8961   19.9311 H   0  0  0  0  0  0
   -0.1681   53.9548   17.7065 H   0  0  0  0  0  0
    1.0522   52.8652   15.8456 H   0  0  0  0  0  0
    2.2196   50.7109   16.2236 H   0  0  0  0  0  0
    2.8542   48.8980   18.1540 H   0  0  0  0  0  0
   -0.8952   47.7377   26.1198 H   0  0  0  0  0  0
   -3.2300   46.4971   25.7219 H   0  0  0  0  0  0
   -4.1518   47.4811   23.2795 H   0  0  0  0  0  0
   -0.1085   47.2676   20.0300 H   0  0  0  0  0  0
   -1.0365   45.1327   19.3468 H   0  0  0  0  0  0
   -4.9493   46.8677   19.0946 H   0  0  0  0  0  0
   -4.0492   49.0348   19.7904 H   0  0  0  0  0  0
    0.6166   51.6517   22.4967 N   0  3  1  0  0  0
    0.2371   52.2835   21.8059 H   0  0  0  0  0  0
  1  6  2  0  0  0
  1  2  1  0  0  0
  1 41  1  0  0  0
  2  3  2  0  0  0
  2 42  1  0  0  0
  3  4  1  0  0  0
  3 43  1  0  0  0
  4  9  1  0  0  0
  4  5  2  0  0  0
  5  6  1  0  0  0
  5  7  1  0  0  0
  6 44  1  0  0  0
  7  8  2  0  0  0
  7 45  1  0  0  0
  8 46  1  0  0  0
  8 59  1  0  0  0
  9 10  1  0  0  0
  9 11  1  0  0  0
  9 59  1  0  0  0
 11 19  1  0  0  0
 11 12  1  0  0  0
 11 21  1  0  0  0
 12 17  2  0  0  0
 12 13  1  0  0  0
 13 14  2  0  0  0
 13 47  1  0  0  0
 14 15  1  0  0  0
 14 48  1  0  0  0
 15 16  2  0  0  0
 15 49  1  0  0  0
 16 17  1  0  0  0
 16 50  1  0  0  0
 17 18  1  0  0  0
 18 19  1  0  0  0
 18 51  1  0  0  0
 19 20  2  0  0  0
 21 22  1  0  0  0
 21 23  1  0  0  0
 21 32  1  0  0  0
 23 24  1  0  0  0
 23 25  1  0  0  0
 23 59  1  0  0  0
 25 26  2  0  0  0
 25 27  1  0  0  0
 27 31  1  0  0  0
 27 28  2  0  0  0
 28 29  1  0  0  0
 28 52  1  0  0  0
 29 30  2  0  0  0
 29 53  1  0  0  0
 30 31  1  0  0  0
 30 54  1  0  0  0
 32 33  2  0  0  0
 32 34  1  0  0  0
 34 39  2  0  0  0
 34 35  1  0  0  0
 35 36  2  0  0  0
 35 55  1  0  0  0
 36 37  1  0  0  0
 36 56  1  0  0  0
 37 38  2  0  0  0
 37 40  1  0  0  0
 38 39  1  0  0  0
 38 57  1  0  0  0
 39 58  1  0  0  0
 59 60  1  0  0  0
M  CHG  1  59   1
M  END
> <i_i_glide_confnum>
6

> <i_i_glide_lignum>
5233

> <i_i_glide_posenum>
166

> <i_i_glide_rotatable_bonds>
4

> <i_m_Source_File_Index>
2766

> <b_m_subgroup_collapsed>
0

> <r_i_docking_score>
-2.93459

> <r_i_glide_ecoul>
-3.76324

> <r_i_glide_eff_state_penalty>
0

> <r_i_glide_einternal>
1.23563

> <r_i_glide_emodel>
-43.359

> <r_i_glide_energy>
-35.9569

> <r_i_glide_erotb>
0.301864

> <r_i_glide_esite>
-0.13564

> <r_i_glide_evdw>
-32.1937

> <r_i_glide_gscore>
-2.93459

> <r_i_glide_hbond>
-0.12955

> <r_i_glide_ligand_efficiency>
-0.077226

> <r_i_glide_ligand_efficiency_ln>
-0.632784

> <r_i_glide_ligand_efficiency_sa>
-0.259632

> <r_i_glide_lipo>
-0.797091

> <r_i_glide_metal>
0

> <r_i_glide_rewards>
0

> <s_i_glide_gridfile>
wee1_glide-grid

> <s_m_Source_File>
wee1_decoys_glide_SP.sdf

> <s_m_Source_Path>
/Users/zhangxujun/Desktop

> <s_m_entry_id>
3041

> <s_m_entry_name>
wee1_decoys_glide_SP.2766

> <s_m_subgroup_title>
wee1_decoys_glide_SP

> <s_m_subgroupid>
wee1_decoys_glide_SP


$$$$
