@<TRIPOS>MOLECULE
ZINC19955546_5432
79   85    1
SMALL
USER_CHARGES


@<TRIPOS>ATOM
      1 C1          8.3608   55.7755   16.5178 C.3       1 UNK         0.0000 
      2 C2          7.4503   55.3726   17.6520 C.2       1 UNK         0.0000 
      3 C3          6.2186   54.7273   17.6099 C.2       1 UNK         0.0000 
      4 C4          5.6439   54.5044   18.8620 C.2       1 UNK         0.0000 
      5 C5          6.4165   54.9731   19.9208 C.2       1 UNK         0.0000 
      6 S6          7.8790   55.6965   19.3066 S.3       1 UNK         0.0000 
      7 C7          6.1605   54.8967   21.3921 C.ar      1 UNK         0.0000 
      8 C8          7.0231   55.4175   22.3494 C.ar      1 UNK         0.0000 
      9 C9          6.7006   55.2723   23.6938 C.ar      1 UNK         0.0000 
     10 C10         5.5226   54.6121   24.0976 C.ar      1 UNK         0.0000 
     11 C11         4.6857   54.0955   23.0605 C.ar      1 UNK         0.0000 
     12 N12         5.0248   54.2539   21.7479 N.ar      1 UNK         0.0000 
     13 N13         3.4529   53.4483   23.2417 N.pl3     1 UNK         0.0000 
     14 C14         2.3096   54.2823   23.6518 C.3       1 UNK         0.0000 
     15 C15         1.1466   53.4548   24.2508 C.3       1 UNK         0.0000 
     16 C16         0.6774   52.2801   23.3616 C.3       1 UNK         0.0000 
     17 C17         1.8754   51.5380   22.7399 C.3       1 UNK         0.0000 
     18 C18         2.9548   52.5036   22.2115 C.3       1 UNK         0.0000 
     19 N19        -0.2707   51.3440   24.1786 N.4       1 UNK         0.0000 
     20 C20        -1.2035   50.5048   23.2690 C.3       1 UNK         0.0000 
     21 C21        -2.2246   49.7588   24.1640 C.3       1 UNK         0.0000 
     22 C22        -1.5494   48.8927   25.2501 C.3       1 UNK         0.0000 
     23 C23        -0.5844   49.7455   26.0817 C.3       1 UNK         0.0000 
     24 C24         0.4594   50.4162   25.1818 C.3       1 UNK         0.0000 
     25 O25        -2.4952   48.2510   26.0814 O.3       1 UNK         0.0000 
     26 C26         5.3012   54.4755   25.5996 C.2       1 UNK         0.0000 
     27 O27         6.0751   55.0242   26.3892 O.2       1 UNK         0.0000 
     28 N28         4.2929   53.7053   26.0386 N.am      1 UNK         0.0000 
     29 C29         4.1285   53.2734   27.4315 C.3       1 UNK         0.0000 
     30 C30         3.4486   54.2944   28.3719 C.3       1 UNK         0.0000 
     31 H31         3.9873   55.2409   28.2793 H         1 UNK         0.0000 
     32 C32         3.4374   53.8465   29.8755 C.3       1 UNK         0.0000 
     33 C33         1.9399   53.9497   30.2974 C.3       1 UNK         0.0000 
     34 H34         1.6188   53.3872   31.1769 H         1 UNK         0.0000 
     35 C35         1.5043   55.4099   30.1945 C.2       1 UNK         0.0000 
     36 C36         1.5127   55.7457   28.8880 C.2       1 UNK         0.0000 
     37 C37         1.9361   54.5140   28.0869 C.3       1 UNK         0.0000 
     38 H38         1.6079   54.4770   27.0493 H         1 UNK         0.0000 
     39 C39         1.3083   53.5055   29.0182 C.3       1 UNK         0.0000 
     40 C40         1.0548   52.0476   28.7098 C.3       1 UNK         0.0000 
     41 C41        -0.1098   52.9938   28.8813 C.3       1 UNK         0.0000 
     42 H42         7.9511   55.4973   15.5465 H         1 UNK         0.0000 
     43 H43         8.5237   56.8527   16.5004 H         1 UNK         0.0000 
     44 H44         9.3381   55.3008   16.5994 H         1 UNK         0.0000 
     45 H45         5.7478   54.4219   16.6865 H         1 UNK         0.0000 
     46 H46         4.6930   54.0069   18.9935 H         1 UNK         0.0000 
     47 H47         7.9294   55.9315   22.0723 H         1 UNK         0.0000 
     48 H48         7.3822   55.6914   24.4220 H         1 UNK         0.0000 
     49 H49         2.6349   55.0081   24.3971 H         1 UNK         0.0000 
     50 H50         1.9684   54.8704   22.7976 H         1 UNK         0.0000 
     51 H51         1.4869   53.1013   25.2213 H         1 UNK         0.0000 
     52 H52         0.2986   54.0957   24.4815 H         1 UNK         0.0000 
     53 H53         0.1257   52.7417   22.5398 H         1 UNK         0.0000 
     54 H54         1.5373   50.8424   21.9702 H         1 UNK         0.0000 
     55 H55         2.3726   50.8992   23.4645 H         1 UNK         0.0000 
     56 H56         2.5839   53.0649   21.3508 H         1 UNK         0.0000 
     57 H57         3.7914   51.9047   21.8469 H         1 UNK         0.0000 
     58 H58        -1.7242   51.2045   22.6133 H         1 UNK         0.0000 
     59 H59        -0.5802   49.8321   22.6772 H         1 UNK         0.0000 
     60 H60        -2.8631   50.4999   24.6472 H         1 UNK         0.0000 
     61 H61        -2.8860   49.1402   23.5552 H         1 UNK         0.0000 
     62 H62        -0.9543   48.1286   24.7440 H         1 UNK         0.0000 
     63 H63        -0.0881   49.1345   26.8372 H         1 UNK         0.0000 
     64 H64        -1.1359   50.5131   26.6277 H         1 UNK         0.0000 
     65 H65         1.0509   49.6807   24.6352 H         1 UNK         0.0000 
     66 H66         1.1045   51.0502   25.7712 H         1 UNK         0.0000 
     67 H67        -2.1100   48.1609   26.9877 H         1 UNK         0.0000 
     68 H68         3.6952   53.2774   25.3435 H         1 UNK         0.0000 
     69 H69         5.0946   52.9707   27.8445 H         1 UNK         0.0000 
     70 H70         3.5369   52.3620   27.4264 H         1 UNK         0.0000 
     71 H71         4.0678   54.4961   30.4819 H         1 UNK         0.0000 
     72 H72         3.7837   52.8177   29.9972 H         1 UNK         0.0000 
     73 H73         1.2773   56.0471   31.0377 H         1 UNK         0.0000 
     74 H74         1.3155   56.7159   28.4817 H         1 UNK         0.0000 
     75 H75         1.2494   51.3062   29.4865 H         1 UNK         0.0000 
     76 H76         1.3286   51.6849   27.7298 H         1 UNK         0.0000 
     77 H77        -0.6824   53.2864   28.0012 H         1 UNK         0.0000 
     78 H78        -0.7253   52.9224   29.7793 H         1 UNK         0.0000 
     79 H79        -0.8582   51.9691   24.7122 H         1 UNK         0.0000 
@<TRIPOS>BOND
     1    1    2 1    
     2    1   42 1    
     3    1   43 1    
     4    1   44 1    
     5    2    6 1    
     6    2    3 2    
     7    3    4 1    
     8    3   45 1    
     9    4    5 2    
    10    4   46 1    
    11    5    6 1    
    12    5    7 1    
    13    7   12 ar   
    14    7    8 ar   
    15    8    9 ar   
    16    8   47 1    
    17    9   10 ar   
    18    9   48 1    
    19   10   11 ar   
    20   10   26 1    
    21   11   12 ar   
    22   11   13 1    
    23   13   18 1    
    24   13   14 1    
    25   14   15 1    
    26   14   49 1    
    27   14   50 1    
    28   15   16 1    
    29   15   51 1    
    30   15   52 1    
    31   16   17 1    
    32   16   19 1    
    33   16   53 1    
    34   17   18 1    
    35   17   54 1    
    36   17   55 1    
    37   18   56 1    
    38   18   57 1    
    39   19   24 1    
    40   19   20 1    
    41   19   79 1    
    42   20   21 1    
    43   20   58 1    
    44   20   59 1    
    45   21   22 1    
    46   21   60 1    
    47   21   61 1    
    48   22   23 1    
    49   22   25 1    
    50   22   62 1    
    51   23   24 1    
    52   23   63 1    
    53   23   64 1    
    54   24   65 1    
    55   24   66 1    
    56   25   67 1    
    57   26   27 2    
    58   26   28 am   BACKBONE|DICT|INTERRES
    59   28   29 1    
    60   28   68 1    
    61   29   30 1    
    62   29   69 1    
    63   29   70 1    
    64   30   31 1    
    65   30   37 1    
    66   30   32 1    
    67   32   33 1    
    68   32   71 1    
    69   32   72 1    
    70   33   34 1    
    71   33   39 1    
    72   33   35 1    
    73   35   36 2    
    74   35   73 1    
    75   36   37 1    
    76   36   74 1    
    77   37   38 1    
    78   37   39 1    
    79   39   41 1    
    80   39   40 1    
    81   40   41 1    
    82   40   75 1    
    83   40   76 1    
    84   41   77 1    
    85   41   78 1    
@<TRIPOS>SUBSTRUCTURE
     1 UNK         1 GROUP             0       ****    0 ROOT    
