@<TRIPOS>MOLECULE
ZINC40372503_1586
40   41    1
SMALL
USER_CHARGES


@<TRIPOS>ATOM
      1 C1          2.3986   53.9298   27.6948 C.3       1 UNK         0.0000 
      2 C2          3.1414   54.0169   26.3739 C.2       1 UNK         0.0000 
      3 C3          2.7149   53.6713   25.0746 C.2       1 UNK         0.0000 
      4 S4          3.9736   54.0967   23.9417 S.3       1 UNK         0.0000 
      5 C5          4.9453   54.5862   25.2826 C.2       1 UNK         0.0000 
      6 N6          4.3745   54.4886   26.4536 N.2       1 UNK         0.0000 
      7 C7          1.4651   53.1459   24.5839 C.2       1 UNK         0.0000 
      8 O8          1.1051   53.3327   23.4231 O.2       1 UNK         0.0000 
      9 N9          0.7626   52.4500   25.5004 N.am      1 UNK         0.0000 
     10 C10        -0.5373   51.7475   25.3831 C.3       1 UNK         0.0000 
     11 C11        -1.2436   51.8513   26.7851 C.3       1 UNK         0.0000 
     12 C12        -2.6935   51.3213   26.8155 C.3       1 UNK         0.0000 
     13 C13        -3.5702   52.1047   25.8209 C.3       1 UNK         0.0000 
     14 C14        -2.9863   51.9111   24.4097 C.3       1 UNK         0.0000 
     15 C15        -1.5233   52.4107   24.3344 C.3       1 UNK         0.0000 
     16 C16        -5.0440   51.6711   25.8924 C.3       1 UNK         0.0000 
     17 C17        -0.2206   50.2388   25.0259 C.2       1 UNK         0.0000 
     18 N18        -0.4802   49.8274   23.8426 N.2       1 UNK         0.0000 
     19 O19        -0.0956   48.4966   23.5818 O.3       1 UNK         0.0000 
     20 N20         0.3044   49.5037   26.0817 N.pl3     1 UNK         0.0000 
     21 H21         1.3217   54.0465   27.5729 H         1 UNK         0.0000 
     22 H22         2.5692   52.9704   28.1852 H         1 UNK         0.0000 
     23 H23         2.7042   54.7063   28.3984 H         1 UNK         0.0000 
     24 H24         5.9491   54.9557   25.1379 H         1 UNK         0.0000 
     25 H25         1.2648   52.2490   26.3509 H         1 UNK         0.0000 
     26 H26        -0.6652   51.3663   27.5727 H         1 UNK         0.0000 
     27 H27        -1.2701   52.8998   27.0855 H         1 UNK         0.0000 
     28 H28        -3.1029   51.4143   27.8226 H         1 UNK         0.0000 
     29 H29        -2.7298   50.2499   26.6068 H         1 UNK         0.0000 
     30 H30        -3.5090   53.1654   26.0737 H         1 UNK         0.0000 
     31 H31        -3.6005   52.4399   23.6794 H         1 UNK         0.0000 
     32 H32        -3.0550   50.8622   24.1155 H         1 UNK         0.0000 
     33 H33        -1.5254   53.4900   24.4820 H         1 UNK         0.0000 
     34 H34        -1.1662   52.2768   23.3124 H         1 UNK         0.0000 
     35 H35        -5.1620   50.6134   25.6532 H         1 UNK         0.0000 
     36 H36        -5.4546   51.8322   26.8897 H         1 UNK         0.0000 
     37 H37        -5.6567   52.2395   25.1919 H         1 UNK         0.0000 
     38 H38         0.4206   48.2734   24.3596 H         1 UNK         0.0000 
     39 H39         0.4719   48.5113   26.0071 H         1 UNK         0.0000 
     40 H40         0.1092   49.8218   27.0199 H         1 UNK         0.0000 
@<TRIPOS>BOND
     1    1    2 1    
     2    1   21 1    
     3    1   22 1    
     4    1   23 1    
     5    2    6 1    
     6    2    3 2    
     7    3    4 1    
     8    3    7 1    
     9    4    5 1    
    10    5    6 2    
    11    5   24 1    
    12    7    8 2    
    13    7    9 am   BACKBONE|DICT|INTERRES
    14    9   10 1    
    15    9   25 1    
    16   10   15 1    
    17   10   11 1    
    18   10   17 1    
    19   11   12 1    
    20   11   26 1    
    21   11   27 1    
    22   12   13 1    
    23   12   28 1    
    24   12   29 1    
    25   13   14 1    
    26   13   16 1    
    27   13   30 1    
    28   14   15 1    
    29   14   31 1    
    30   14   32 1    
    31   15   33 1    
    32   15   34 1    
    33   16   35 1    
    34   16   36 1    
    35   16   37 1    
    36   17   18 2    
    37   17   20 1    
    38   18   19 1    
    39   19   38 1    
    40   20   39 1    
    41   20   40 1    
@<TRIPOS>SUBSTRUCTURE
     1 UNK         1 GROUP             0       ****    0 ROOT    
