ZINC29700715_5897
                    3D
 Schrodinger Suite 2024-2.
 51 54  0  0  1  0            999 V2000
    6.3073   54.5740   27.3687 C   0  0  0  0  0  0
    5.1718   53.9618   28.1415 C   0  0  0  0  0  0
    3.8389   54.2310   28.3147 C   0  0  0  0  0  0
    3.3211   53.2258   29.1455 C   0  0  0  0  0  0
    4.3044   52.4405   29.5141 N   0  0  0  0  0  0
    5.4674   52.8807   28.8815 O   0  0  0  0  0  0
    2.0752   53.0058   29.5838 N   0  5  0  0  0  0
    0.7992   53.6436   28.9539 S   0  0  0  0  0  0
    0.9894   55.0344   28.5287 O   0  0  0  0  0  0
   -0.4322   53.3196   29.6836 O   0  0  0  0  0  0
    0.6945   52.7029   27.4213 C   0  0  0  0  0  0
   -0.0235   51.5061   27.3673 C   0  0  0  0  0  0
   -0.1457   50.8210   26.1577 C   0  0  0  0  0  0
    0.4540   51.3240   24.9991 C   0  0  0  0  0  0
    1.2184   52.4968   25.0454 C   0  0  0  0  0  0
    1.3375   53.1711   26.2711 C   0  0  0  0  0  0
    1.9123   53.0103   23.8060 C   0  0  0  0  0  0
    1.4060   52.8700   22.6938 O   0  0  0  0  0  0
    3.1208   53.5576   24.0537 N   0  0  0  0  0  0
    4.1319   53.9954   23.1815 C   0  0  0  0  0  0
    5.3412   54.3310   23.7923 C   0  0  0  0  0  0
    6.4239   54.7808   23.0415 C   0  0  0  0  0  0
    6.3043   54.8969   21.6603 C   0  0  0  0  0  0
    5.1058   54.5525   21.0213 C   0  0  0  0  0  0
    4.0217   54.0971   21.7855 C   0  0  0  0  0  0
    4.9934   54.6544   19.5027 C   0  0  0  0  0  0
    5.5044   56.2890   18.8810 S   0  0  0  0  0  0
    4.8930   56.0826   17.1833 C   0  0  0  0  0  0
    5.5416   54.8979   16.4404 C   0  0  0  0  0  0
    5.2323   53.5133   17.0434 C   0  0  0  0  0  0
    5.9038   53.2989   18.7168 S   0  0  0  0  0  0
    5.9887   55.4414   26.7933 H   0  0  0  0  0  0
    7.1029   54.8970   28.0378 H   0  0  0  0  0  0
    6.7508   53.8561   26.6790 H   0  0  0  0  0  0
    3.3018   55.0542   27.8768 H   0  0  0  0  0  0
   -0.5038   51.1114   28.2535 H   0  0  0  0  0  0
   -0.7092   49.8995   26.1242 H   0  0  0  0  0  0
    0.3464   50.7747   24.0747 H   0  0  0  0  0  0
    1.8855   54.0993   26.3285 H   0  0  0  0  0  0
    3.3848   53.5654   25.0265 H   0  0  0  0  0  0
    5.4495   54.2347   24.8586 H   0  0  0  0  0  0
    7.3556   55.0315   23.5245 H   0  0  0  0  0  0
    7.1496   55.2368   21.0808 H   0  0  0  0  0  0
    3.1039   53.8387   21.2806 H   0  0  0  0  0  0
    3.9398   54.5358   19.2459 H   0  0  0  0  0  0
    5.0918   57.0197   16.6608 H   0  0  0  0  0  0
    3.8096   55.9705   17.2356 H   0  0  0  0  0  0
    5.2053   54.9102   15.4037 H   0  0  0  0  0  0
    6.6227   55.0437   16.4021 H   0  0  0  0  0  0
    4.1577   53.3361   17.0979 H   0  0  0  0  0  0
    5.6560   52.7170   16.4316 H   0  0  0  0  0  0
  1  2  1  0  0  0
  1 32  1  0  0  0
  1 33  1  0  0  0
  1 34  1  0  0  0
  2  6  1  0  0  0
  2  3  2  0  0  0
  3  4  1  0  0  0
  3 35  1  0  0  0
  4  5  2  0  0  0
  4  7  1  0  0  0
  5  6  1  0  0  0
  7  8  1  0  0  0
  8  9  2  0  0  0
  8 10  2  0  0  0
  8 11  1  0  0  0
 11 16  2  0  0  0
 11 12  1  0  0  0
 12 13  2  0  0  0
 12 36  1  0  0  0
 13 14  1  0  0  0
 13 37  1  0  0  0
 14 15  2  0  0  0
 14 38  1  0  0  0
 15 16  1  0  0  0
 15 17  1  0  0  0
 16 39  1  0  0  0
 17 18  2  0  0  0
 17 19  1  0  0  0
 19 20  1  0  0  0
 19 40  1  0  0  0
 20 25  2  0  0  0
 20 21  1  0  0  0
 21 22  2  0  0  0
 21 41  1  0  0  0
 22 23  1  0  0  0
 22 42  1  0  0  0
 23 24  2  0  0  0
 23 43  1  0  0  0
 24 25  1  0  0  0
 24 26  1  0  0  0
 25 44  1  0  0  0
 26 31  1  0  0  0
 26 27  1  0  0  0
 26 45  1  0  0  0
 27 28  1  0  0  0
 28 29  1  0  0  0
 28 46  1  0  0  0
 28 47  1  0  0  0
 29 30  1  0  0  0
 29 48  1  0  0  0
 29 49  1  0  0  0
 30 31  1  0  0  0
 30 50  1  0  0  0
 30 51  1  0  0  0
M  CHG  1   7  -1
M  END
> <i_i_glide_confnum>
149

> <i_i_glide_lignum>
5898

> <i_i_glide_posenum>
142

> <i_i_glide_rotatable_bonds>
7

> <i_m_Source_File_Index>
5658

> <b_m_subgroup_collapsed>
0

> <r_i_docking_score>
-5.77264

> <r_i_glide_ecoul>
-3.62897

> <r_i_glide_eff_state_penalty>
0

> <r_i_glide_einternal>
5.58179

> <r_i_glide_emodel>
-65.6163

> <r_i_glide_energy>
-47.957

> <r_i_glide_erotb>
0.628886

> <r_i_glide_esite>
-0.0110282

> <r_i_glide_evdw>
-44.328

> <r_i_glide_gscore>
-5.77264

> <r_i_glide_hbond>
0

> <r_i_glide_ligand_efficiency>
-0.186214

> <r_i_glide_ligand_efficiency_ln>
-1.30191

> <r_i_glide_ligand_efficiency_sa>
-0.584969

> <r_i_glide_lipo>
-2.87724

> <r_i_glide_metal>
0

> <r_i_glide_rewards>
-0.752513

> <s_i_glide_gridfile>
wee1_glide-grid

> <s_m_Source_File>
wee1_decoys_glide_SP.sdf

> <s_m_Source_Path>
/Users/zhangxujun/Desktop

> <s_m_entry_id>
5933

> <s_m_entry_name>
wee1_decoys_glide_SP.5658

> <s_m_subgroup_title>
wee1_decoys_glide_SP

> <s_m_subgroupid>
wee1_decoys_glide_SP


$$$$
