ZINC36066228_1042
                    3D
 Schrodinger Suite 2024-2.
 79 83  0  0  1  0            999 V2000
    3.6037   60.8265   12.0051 C   0  0  0  0  0  0
    3.1614   59.9154   13.1673 C   0  0  1  0  0  0
    4.0128   59.8281   13.8440 H   0  0  0  0  0  0
    2.0080   60.5567   13.9773 C   0  0  0  0  0  0
    1.5694   59.6938   15.1791 C   0  0  0  0  0  0
    1.2533   58.2457   14.7413 C   0  0  0  0  0  0
    2.4278   57.5989   13.9665 C   0  0  1  0  0  0
    2.1010   56.6236   13.5940 H   0  0  0  0  0  0
    2.7601   58.4717   12.7227 C   0  0  2  0  0  0
    1.8304   58.5887   12.1636 H   0  0  0  0  0  0
    3.7575   57.7792   11.7711 C   0  0  0  0  0  0
    3.6136   57.3369   14.7875 N   0  0  0  0  0  0
    3.7649   56.3317   15.6647 C   0  0  0  0  0  0
    2.8983   55.4697   15.8073 O   0  0  0  0  0  0
    5.1104   56.2845   16.4481 C   0  0  2  0  0  0
    5.8806   56.1113   15.6966 H   0  0  0  0  0  0
    5.1921   55.2383   17.5672 C   0  0  1  0  0  0
    3.9539   54.9719   18.4287 C   0  0  0  0  0  0
    4.2346   53.8735   19.1366 C   0  0  0  0  0  0
    5.6826   53.5755   18.8070 C   0  0  1  0  0  0
    5.9997   52.5429   18.9636 H   0  0  0  0  0  0
    5.6773   53.9246   17.4143 O   0  0  0  0  0  0
    6.6441   54.6974   19.3742 C   0  0  1  0  0  0
    7.6748   54.3464   19.3429 H   0  0  0  0  0  0
    6.4404   55.7404   18.2494 C   0  0  2  0  0  0
    7.3323   55.6562   17.6194 H   0  0  0  0  0  0
    6.2053   57.2438   18.3511 C   0  0  0  0  0  0
    6.7046   58.0273   19.1645 O   0  0  0  0  0  0
    5.4467   57.5041   17.2467 N   0  0  0  0  0  0
    5.3467   58.8966   16.7853 C   0  0  0  0  0  0
    6.3799   59.2868   15.7133 C   0  0  0  0  0  0
    6.2411   58.4830   14.5479 O   0  0  0  0  0  0
    7.1508   58.8408   13.5170 C   0  0  0  0  0  0
    6.4549   55.1694   20.8504 C   0  0  0  0  0  0
    7.1031   56.1325   21.2600 O   0  0  0  0  0  0
    5.6510   54.4338   21.6484 N   0  0  0  0  0  0
    5.5019   54.4966   23.0421 C   0  0  0  0  0  0
    4.2763   54.0942   23.5733 C   0  0  0  0  0  0
    4.0740   54.0982   24.9528 C   0  0  0  0  0  0
    5.0943   54.5226   25.8127 C   0  0  0  0  0  0
    6.3204   54.9223   25.2745 C   0  0  0  0  0  0
    6.5319   54.9034   23.9013 C   0  0  0  0  0  0
    4.9343   54.5527   27.3375 C   0  0  0  0  0  0
    3.4755   54.5262   27.8399 C   0  0  0  0  0  0
    5.7690   53.4554   28.0101 C   0  0  0  0  0  0
    2.8313   60.8990   11.2391 H   0  0  0  0  0  0
    3.8153   61.8355   12.3597 H   0  0  0  0  0  0
    4.5150   60.4608   11.5321 H   0  0  0  0  0  0
    1.1581   60.7352   13.3201 H   0  0  0  0  0  0
    2.3077   61.5467   14.3260 H   0  0  0  0  0  0
    0.6931   60.1369   15.6534 H   0  0  0  0  0  0
    2.3507   59.6957   15.9395 H   0  0  0  0  0  0
    0.3563   58.2426   14.1204 H   0  0  0  0  0  0
    1.0054   57.6427   15.6155 H   0  0  0  0  0  0
    4.7444   57.7046   12.2257 H   0  0  0  0  0  0
    3.4292   56.7673   11.5310 H   0  0  0  0  0  0
    3.8600   58.3133   10.8273 H   0  0  0  0  0  0
    4.4214   57.9224   14.6121 H   0  0  0  0  0  0
    3.0463   55.5591   18.4197 H   0  0  0  0  0  0
    3.6202   53.3399   19.8446 H   0  0  0  0  0  0
    4.3495   59.0218   16.3731 H   0  0  0  0  0  0
    5.4005   59.5799   17.6262 H   0  0  0  0  0  0
    6.2493   60.3411   15.4596 H   0  0  0  0  0  0
    7.3858   59.1730   16.1241 H   0  0  0  0  0  0
    7.0563   58.1467   12.6828 H   0  0  0  0  0  0
    6.9465   59.8444   13.1416 H   0  0  0  0  0  0
    8.1844   58.8013   13.8641 H   0  0  0  0  0  0
    5.0535   53.7659   21.1863 H   0  0  0  0  0  0
    3.4770   53.7691   22.9208 H   0  0  0  0  0  0
    3.1199   53.7705   25.3373 H   0  0  0  0  0  0
    7.1089   55.2443   25.9325 H   0  0  0  0  0  0
    7.4996   55.1977   23.5194 H   0  0  0  0  0  0
    5.3571   55.4983   27.6667 H   0  0  0  0  0  0
    2.8722   55.2958   27.3607 H   0  0  0  0  0  0
    3.4314   54.7079   28.9139 H   0  0  0  0  0  0
    3.0052   53.5590   27.6547 H   0  0  0  0  0  0
    6.8285   53.5256   27.7564 H   0  0  0  0  0  0
    5.6845   53.5007   29.0965 H   0  0  0  0  0  0
    5.4145   52.4856   27.6907 H   0  0  0  0  0  0
  1  2  1  0  0  0
  1 46  1  0  0  0
  1 47  1  0  0  0
  1 48  1  0  0  0
  2  3  1  0  0  0
  2  9  1  0  0  0
  2  4  1  0  0  0
  4  5  1  0  0  0
  4 49  1  0  0  0
  4 50  1  0  0  0
  5  6  1  0  0  0
  5 51  1  0  0  0
  5 52  1  0  0  0
  6  7  1  0  0  0
  6 53  1  0  0  0
  6 54  1  0  0  0
  7  8  1  0  0  0
  7  9  1  0  0  0
  7 12  1  0  0  0
  9 10  1  0  0  0
  9 11  1  0  0  0
 11 55  1  0  0  0
 11 56  1  0  0  0
 11 57  1  0  0  0
 12 13  1  0  0  0
 12 58  1  0  0  0
 13 14  2  0  0  0
 13 15  1  0  0  0
 15 16  1  0  0  0
 15 29  1  0  0  0
 15 17  1  0  0  0
 17 22  1  0  0  0
 17 25  1  0  0  0
 17 18  1  0  0  0
 18 19  2  0  0  0
 18 59  1  0  0  0
 19 20  1  0  0  0
 19 60  1  0  0  0
 20 21  1  0  0  0
 20 22  1  0  0  0
 20 23  1  0  0  0
 23 24  1  0  0  0
 23 25  1  0  0  0
 23 34  1  0  0  0
 25 26  1  0  0  0
 25 27  1  0  0  0
 27 28  2  0  0  0
 27 29  1  0  0  0
 29 30  1  0  0  0
 30 31  1  0  0  0
 30 61  1  0  0  0
 30 62  1  0  0  0
 31 32  1  0  0  0
 31 63  1  0  0  0
 31 64  1  0  0  0
 32 33  1  0  0  0
 33 65  1  0  0  0
 33 66  1  0  0  0
 33 67  1  0  0  0
 34 35  2  0  0  0
 34 36  1  0  0  0
 36 37  1  0  0  0
 36 68  1  0  0  0
 37 42  2  0  0  0
 37 38  1  0  0  0
 38 39  2  0  0  0
 38 69  1  0  0  0
 39 40  1  0  0  0
 39 70  1  0  0  0
 40 41  2  0  0  0
 40 43  1  0  0  0
 41 42  1  0  0  0
 41 71  1  0  0  0
 42 72  1  0  0  0
 43 44  1  0  0  0
 43 45  1  0  0  0
 43 73  1  0  0  0
 44 74  1  0  0  0
 44 75  1  0  0  0
 44 76  1  0  0  0
 45 77  1  0  0  0
 45 78  1  0  0  0
 45 79  1  0  0  0
M  END
> <i_i_glide_confnum>
250

> <i_i_glide_lignum>
1043

> <i_i_glide_posenum>
312

> <i_i_glide_rotatable_bonds>
10

> <i_m_Source_File_Index>
5890

> <b_m_subgroup_collapsed>
0

> <r_i_docking_score>
-4.9074

> <r_i_glide_ecoul>
-5.33475

> <r_i_glide_eff_state_penalty>
0

> <r_i_glide_einternal>
15.673

> <r_i_glide_emodel>
-44.1154

> <r_i_glide_energy>
-38.8874

> <r_i_glide_erotb>
0.600141

> <r_i_glide_esite>
-0.0236353

> <r_i_glide_evdw>
-33.5527

> <r_i_glide_gscore>
-4.9074

> <r_i_glide_hbond>
-0.189781

> <r_i_glide_ligand_efficiency>
-0.129142

> <r_i_glide_ligand_efficiency_ln>
-1.05818

> <r_i_glide_ligand_efficiency_sa>
-0.434173

> <r_i_glide_lipo>
-2.46652

> <r_i_glide_metal>
0

> <r_i_glide_rewards>
-0.349759

> <s_i_glide_gridfile>
wee1_glide-grid

> <s_m_Source_File>
wee1_decoys_glide_SP.sdf

> <s_m_Source_Path>
/Users/zhangxujun/Desktop

> <s_m_entry_id>
6165

> <s_m_entry_name>
wee1_decoys_glide_SP.5890

> <s_m_subgroup_title>
wee1_decoys_glide_SP

> <s_m_subgroupid>
wee1_decoys_glide_SP


$$$$
