ZINC20569904_5636
                    3D
 Schrodinger Suite 2024-2.
 42 45  0  0  1  0            999 V2000
    1.5265   49.2908   20.5278 C   0  0  0  0  0  0
    0.7850   49.4320   21.6944 C   0  0  0  0  0  0
    1.0492   50.4893   22.5621 C   0  0  0  0  0  0
    2.0468   51.4401   22.2884 C   0  0  0  0  0  0
    2.8077   51.2675   21.1034 C   0  0  0  0  0  0
    2.5334   50.2036   20.2324 C   0  0  0  0  0  0
    3.9261   52.2077   20.7365 C   0  0  0  0  0  0
    5.0252   52.0945   21.2827 O   0  0  0  0  0  0
    3.5875   53.1316   19.8103 N   0  0  0  0  0  0
    4.3543   54.1895   19.3463 C   0  0  0  0  0  0
    3.9047   54.9557   18.3927 N   0  0  0  0  0  0
    4.7637   55.9780   18.1223 C   0  0  0  0  0  0
    4.5463   56.9874   17.1713 C   0  0  0  0  0  0
    5.5286   57.9714   17.0108 C   0  0  0  0  0  0
    6.7092   57.9487   17.7553 C   0  0  0  0  0  0
    6.9428   56.9600   18.7079 C   0  0  0  0  0  0
    5.9547   55.9868   18.8972 C   0  0  0  0  0  0
    5.9044   54.6562   20.0317 S   0  0  0  0  0  0
    7.6501   58.8982   17.5529 F   0  0  0  0  0  0
    2.3043   52.4958   23.1338 N   0  5  0  0  0  0
    1.2189   53.3586   23.8505 S   0  0  0  0  0  0
    1.5044   54.7840   23.6818 O   0  0  0  0  0  0
   -0.1722   52.9206   23.6789 O   0  0  0  0  0  0
    1.6134   53.0317   25.5746 C   0  0  0  0  0  0
    2.6950   53.6962   26.1594 C   0  0  0  0  0  0
    2.9946   53.4920   27.5032 C   0  0  0  0  0  0
    2.2168   52.6164   28.2577 C   0  0  0  0  0  0
    1.1446   51.9386   27.6771 C   0  0  0  0  0  0
    0.8453   52.1409   26.3322 C   0  0  0  0  0  0
    2.5897   52.3793   29.9273 Cl  0  0  0  0  0  0
    1.3292   48.4718   19.8531 H   0  0  0  0  0  0
    0.0063   48.7226   21.9321 H   0  0  0  0  0  0
    0.4695   50.5588   23.4698 H   0  0  0  0  0  0
    3.1066   50.0726   19.3228 H   0  0  0  0  0  0
    2.6726   53.0522   19.3984 H   0  0  0  0  0  0
    3.6403   57.0118   16.5832 H   0  0  0  0  0  0
    5.3802   58.7691   16.2967 H   0  0  0  0  0  0
    7.8610   56.9493   19.2745 H   0  0  0  0  0  0
    3.2939   54.3785   25.5706 H   0  0  0  0  0  0
    3.8267   54.0107   27.9546 H   0  0  0  0  0  0
    0.5480   51.2570   28.2656 H   0  0  0  0  0  0
    0.0099   51.6188   25.8861 H   0  0  0  0  0  0
  1  6  2  0  0  0
  1  2  1  0  0  0
  1 31  1  0  0  0
  2  3  2  0  0  0
  2 32  1  0  0  0
  3  4  1  0  0  0
  3 33  1  0  0  0
  4  5  2  0  0  0
  4 20  1  0  0  0
  5  6  1  0  0  0
  5  7  1  0  0  0
  6 34  1  0  0  0
  7  8  2  0  0  0
  7  9  1  0  0  0
  9 10  1  0  0  0
  9 35  1  0  0  0
 10 18  1  0  0  0
 10 11  2  0  0  0
 11 12  1  0  0  0
 12 17  2  0  0  0
 12 13  1  0  0  0
 13 14  2  0  0  0
 13 36  1  0  0  0
 14 15  1  0  0  0
 14 37  1  0  0  0
 15 16  2  0  0  0
 15 19  1  0  0  0
 16 17  1  0  0  0
 16 38  1  0  0  0
 17 18  1  0  0  0
 20 21  1  0  0  0
 21 22  2  0  0  0
 21 23  2  0  0  0
 21 24  1  0  0  0
 24 29  2  0  0  0
 24 25  1  0  0  0
 25 26  2  0  0  0
 25 39  1  0  0  0
 26 27  1  0  0  0
 26 40  1  0  0  0
 27 28  2  0  0  0
 27 30  1  0  0  0
 28 29  1  0  0  0
 28 41  1  0  0  0
 29 42  1  0  0  0
M  CHG  1  20  -1
M  END
> <i_i_glide_confnum>
21

> <i_i_glide_lignum>
5637

> <i_i_glide_posenum>
361

> <i_i_glide_rotatable_bonds>
6

> <i_m_Source_File_Index>
2178

> <b_m_subgroup_collapsed>
0

> <r_i_docking_score>
-4.05519

> <r_i_glide_ecoul>
-4.80288

> <r_i_glide_eff_state_penalty>
0

> <r_i_glide_einternal>
10.9128

> <r_i_glide_emodel>
-49.7444

> <r_i_glide_energy>
-43.7893

> <r_i_glide_erotb>
0.5686

> <r_i_glide_esite>
-0.0777598

> <r_i_glide_evdw>
-38.9864

> <r_i_glide_gscore>
-4.05519

> <r_i_glide_hbond>
0

> <r_i_glide_ligand_efficiency>
-0.135173

> <r_i_glide_ligand_efficiency_ln>
-0.921383

> <r_i_glide_ligand_efficiency_sa>
-0.420014

> <r_i_glide_lipo>
-1.52552

> <r_i_glide_metal>
0

> <r_i_glide_rewards>
-0.350756

> <s_i_glide_gridfile>
wee1_glide-grid

> <s_m_Source_File>
wee1_decoys_glide_SP.sdf

> <s_m_Source_Path>
/Users/zhangxujun/Desktop

> <s_m_entry_id>
2453

> <s_m_entry_name>
wee1_decoys_glide_SP.2178

> <s_m_subgroup_title>
wee1_decoys_glide_SP

> <s_m_subgroupid>
wee1_decoys_glide_SP


$$$$
