@<TRIPOS>MOLECULE
ZINC63058670_4763
36   38    1
SMALL
USER_CHARGES


@<TRIPOS>ATOM
      1 C1          3.8583   53.0730   19.5355 C.3       1 UNK         0.0000 
      2 C2          4.9164   53.8200   20.3417 C.ar      1 UNK         0.0000 
      3 C3          4.8072   53.7876   21.7342 C.ar      1 UNK         0.0000 
      4 C4          5.6940   54.4980   22.5597 C.ar      1 UNK         0.0000 
      5 C5          6.7044   55.2549   21.9527 C.ar      1 UNK         0.0000 
      6 C6          6.8201   55.2967   20.5632 C.ar      1 UNK         0.0000 
      7 C7          5.9545   54.5646   19.7418 C.ar      1 UNK         0.0000 
      8 N8          6.1977   54.6181   18.3591 N.pl3     1 UNK         0.0000 
      9 N9          6.0532   53.4376   17.5256 N.3       1 UNK         0.0000 
     10 C10         5.5554   54.4853   24.0670 C.2       1 UNK         0.0000 
     11 O11         6.5206   54.7437   24.7896 O.2       1 UNK         0.0000 
     12 N12         4.3091   54.2055   24.5093 N.am      1 UNK         0.0000 
     13 C13         3.8510   53.9047   25.8012 C.ar      1 UNK         0.0000 
     14 C14         2.4622   53.6968   25.9317 C.ar      1 UNK         0.0000 
     15 C15         1.8987   53.2973   27.1519 C.ar      1 UNK         0.0000 
     16 C16         2.7634   53.0918   28.2185 C.ar      1 UNK         0.0000 
     17 C17         4.1076   53.2992   28.0997 C.ar      1 UNK         0.0000 
     18 C18         4.6947   53.7188   26.9147 C.ar      1 UNK         0.0000 
     19 O19         4.7049   53.0230   29.2818 O.3       1 UNK         0.0000 
     20 C20         3.7308   52.3712   30.0449 C.3       1 UNK         0.0000 
     21 O21         2.4836   52.6797   29.4842 O.3       1 UNK         0.0000 
     22 H22         2.9418   52.9255   20.1090 H         1 UNK         0.0000 
     23 H23         3.5670   53.6469   18.6549 H         1 UNK         0.0000 
     24 H24         4.2294   52.0991   19.2140 H         1 UNK         0.0000 
     25 H25         4.0133   53.1933   22.1642 H         1 UNK         0.0000 
     26 H26         7.4111   55.8115   22.5534 H         1 UNK         0.0000 
     27 H27         7.6209   55.8752   20.1263 H         1 UNK         0.0000 
     28 H28         7.0188   55.1266   18.0573 H         1 UNK         0.0000 
     29 H29         6.2134   52.6038   18.0820 H         1 UNK         0.0000 
     30 H30         5.1188   53.4248   17.1381 H         1 UNK         0.0000 
     31 H31         3.6051   54.1422   23.7917 H         1 UNK         0.0000 
     32 H32         1.8083   53.8301   25.0819 H         1 UNK         0.0000 
     33 H33         0.8358   53.1310   27.2452 H         1 UNK         0.0000 
     34 H34         5.7643   53.8419   26.8644 H         1 UNK         0.0000 
     35 H35         3.7885   52.6595   31.0948 H         1 UNK         0.0000 
     36 H36         3.9044   51.2972   29.9755 H         1 UNK         0.0000 
@<TRIPOS>BOND
     1    1    2 1    
     2    1   22 1    
     3    1   23 1    
     4    1   24 1    
     5    2    7 ar   
     6    2    3 ar   
     7    3    4 ar   
     8    3   25 1    
     9    4    5 ar   
    10    4   10 1    
    11    5    6 ar   
    12    5   26 1    
    13    6    7 ar   
    14    6   27 1    
    15    7    8 1    
    16    8    9 1    
    17    8   28 1    
    18    9   29 1    
    19    9   30 1    
    20   10   11 2    
    21   10   12 am   BACKBONE|DICT|INTERRES
    22   12   13 1    
    23   12   31 1    
    24   13   18 ar   
    25   13   14 ar   
    26   14   15 ar   
    27   14   32 1    
    28   15   16 ar   
    29   15   33 1    
    30   16   21 1    
    31   16   17 ar   
    32   17   18 ar   
    33   17   19 1    
    34   18   34 1    
    35   19   20 1    
    36   20   21 1    
    37   20   35 1    
    38   20   36 1    
@<TRIPOS>SUBSTRUCTURE
     1 UNK         1 GROUP             0       ****    0 ROOT    
