ZINC08919164_3455
                    3D
 Schrodinger Suite 2024-2.
 62 65  0  0  1  0            999 V2000
    6.6340   56.4093   17.0670 C   0  0  0  0  0  0
    5.9683   55.9494   18.3777 C   0  0  1  0  0  0
    5.2471   56.7257   18.6454 H   0  0  0  0  0  0
    5.2694   54.5908   18.2037 C   0  0  0  0  0  0
    4.3934   54.2376   19.4229 C   0  0  0  0  0  0
    5.1639   54.4713   20.7382 C   0  0  0  0  0  0
    6.3589   55.2148   20.7319 C   0  0  0  0  0  0
    7.0942   55.2972   22.2863 S   0  0  0  0  0  0
    5.7699   54.4244   23.0084 C   0  0  0  0  0  0
    4.8172   54.0069   22.0498 C   0  0  0  0  0  0
    3.5910   53.3018   22.4285 C   0  0  0  0  0  0
    3.1205   53.4219   23.5636 O   0  0  0  0  0  0
    3.0880   52.4752   21.4872 N   0  0  0  0  0  0
    2.0633   51.5177   21.6071 C   0  0  0  0  0  0
    1.6394   50.9696   22.8314 C   0  0  0  0  0  0
    0.6317   50.0035   22.8614 C   0  0  0  0  0  0
    0.0370   49.5778   21.6737 C   0  0  0  0  0  0
    0.4492   50.1188   20.4567 C   0  0  0  0  0  0
    1.4593   51.0811   20.4189 C   0  0  0  0  0  0
    1.8430   51.5888   19.2224 F   0  0  0  0  0  0
    5.7621   54.0968   24.3645 N   0  0  0  0  0  0
    6.4294   54.6734   25.3847 C   0  0  0  0  0  0
    7.1021   55.6966   25.2893 O   0  0  0  0  0  0
    6.3559   53.9842   26.7556 C   0  0  0  0  0  0
    3.8788   53.3884   27.0200 C   0  0  0  0  0  0
    2.5476   54.1491   27.1480 C   0  0  0  0  0  0
    1.7562   53.8305   28.4064 C   0  0  0  0  0  0
    1.1894   52.5613   28.5572 C   0  0  0  0  0  0
    0.4211   52.2717   29.6809 C   0  0  0  0  0  0
    0.2262   53.2488   30.6546 C   0  0  0  0  0  0
    0.7778   54.5190   30.5033 C   0  0  0  0  0  0
    1.5492   54.8126   29.3805 C   0  0  0  0  0  0
    7.0207   55.8327   19.5032 C   0  0  0  0  0  0
    7.3786   55.6908   16.7179 H   0  0  0  0  0  0
    5.8970   56.5304   16.2705 H   0  0  0  0  0  0
    7.1329   57.3726   17.1902 H   0  0  0  0  0  0
    4.6272   54.6225   17.3209 H   0  0  0  0  0  0
    5.9959   53.8075   17.9787 H   0  0  0  0  0  0
    4.0714   53.2052   19.2847 H   0  0  0  0  0  0
    3.5040   54.8617   19.4161 H   0  0  0  0  0  0
    3.4943   52.5395   20.5660 H   0  0  0  0  0  0
    2.0898   51.2566   23.7692 H   0  0  0  0  0  0
    0.3184   49.5813   23.8042 H   0  0  0  0  0  0
   -0.7433   48.8326   21.6971 H   0  0  0  0  0  0
   -0.0076   49.7906   19.5340 H   0  0  0  0  0  0
    5.1371   53.3384   24.5988 H   0  0  0  0  0  0
    7.1175   54.3735   27.4356 H   0  0  0  0  0  0
    6.4323   52.8979   26.7080 H   0  0  0  0  0  0
    3.9601   52.4977   27.6480 H   0  0  0  0  0  0
    4.0382   53.1032   25.9857 H   0  0  0  0  0  0
    1.9077   53.8832   26.3037 H   0  0  0  0  0  0
    2.7048   55.2245   27.0608 H   0  0  0  0  0  0
    1.3292   51.8028   27.8006 H   0  0  0  0  0  0
   -0.0343   51.2966   29.7919 H   0  0  0  0  0  0
   -0.3659   53.0132   31.5302 H   0  0  0  0  0  0
    0.6145   55.2719   31.2599 H   0  0  0  0  0  0
    1.9657   55.8041   29.2649 H   0  0  0  0  0  0
    7.4447   56.8113   19.7301 H   0  0  0  0  0  0
    7.8470   55.1974   19.1793 H   0  0  0  0  0  0
    5.0501   54.3197   27.4080 N   0  3  0  0  0  0
    4.8011   55.2775   27.1909 H   0  0  0  0  0  0
    5.1486   54.2721   28.4157 H   0  0  0  0  0  0
  1  2  1  0  0  0
  1 34  1  0  0  0
  1 35  1  0  0  0
  1 36  1  0  0  0
  2  3  1  0  0  0
  2 33  1  0  0  0
  2  4  1  0  0  0
  4  5  1  0  0  0
  4 37  1  0  0  0
  4 38  1  0  0  0
  5  6  1  0  0  0
  5 39  1  0  0  0
  5 40  1  0  0  0
  6 10  1  0  0  0
  6  7  2  0  0  0
  7  8  1  0  0  0
  7 33  1  0  0  0
  8  9  1  0  0  0
  9 10  2  0  0  0
  9 21  1  0  0  0
 10 11  1  0  0  0
 11 12  2  0  0  0
 11 13  1  0  0  0
 13 14  1  0  0  0
 13 41  1  0  0  0
 14 19  2  0  0  0
 14 15  1  0  0  0
 15 16  2  0  0  0
 15 42  1  0  0  0
 16 17  1  0  0  0
 16 43  1  0  0  0
 17 18  2  0  0  0
 17 44  1  0  0  0
 18 19  1  0  0  0
 18 45  1  0  0  0
 19 20  1  0  0  0
 21 22  1  0  0  0
 21 46  1  0  0  0
 22 23  2  0  0  0
 22 24  1  0  0  0
 24 47  1  0  0  0
 24 48  1  0  0  0
 24 60  1  0  0  0
 25 26  1  0  0  0
 25 49  1  0  0  0
 25 50  1  0  0  0
 25 60  1  0  0  0
 26 27  1  0  0  0
 26 51  1  0  0  0
 26 52  1  0  0  0
 27 32  2  0  0  0
 27 28  1  0  0  0
 28 29  2  0  0  0
 28 53  1  0  0  0
 29 30  1  0  0  0
 29 54  1  0  0  0
 30 31  2  0  0  0
 30 55  1  0  0  0
 31 32  1  0  0  0
 31 56  1  0  0  0
 32 57  1  0  0  0
 33 58  1  0  0  0
 33 59  1  0  0  0
 60 61  1  0  0  0
 60 62  1  0  0  0
M  CHG  1  60   1
M  END
> <i_i_glide_confnum>
104

> <i_i_glide_lignum>
3456

> <i_i_glide_posenum>
92

> <i_i_glide_rotatable_bonds>
10

> <i_m_Source_File_Index>
3321

> <b_m_subgroup_collapsed>
0

> <r_i_docking_score>
-6.03357

> <r_i_glide_ecoul>
-4.9227

> <r_i_glide_eff_state_penalty>
0

> <r_i_glide_einternal>
14.1733

> <r_i_glide_emodel>
-66.2119

> <r_i_glide_energy>
-51.5412

> <r_i_glide_erotb>
0.834068

> <r_i_glide_esite>
-0.0290026

> <r_i_glide_evdw>
-46.6185

> <r_i_glide_gscore>
-6.03357

> <r_i_glide_hbond>
-0.32

> <r_i_glide_ligand_efficiency>
-0.182836

> <r_i_glide_ligand_efficiency_ln>
-1.34184

> <r_i_glide_ligand_efficiency_sa>
-0.586451

> <r_i_glide_lipo>
-2.61307

> <r_i_glide_metal>
0

> <r_i_glide_rewards>
-0.83624

> <s_i_glide_gridfile>
wee1_glide-grid

> <s_m_Source_File>
wee1_decoys_glide_SP.sdf

> <s_m_Source_Path>
/Users/zhangxujun/Desktop

> <s_m_entry_id>
3596

> <s_m_entry_name>
wee1_decoys_glide_SP.3321

> <s_m_subgroup_title>
wee1_decoys_glide_SP

> <s_m_subgroupid>
wee1_decoys_glide_SP


$$$$
