@<TRIPOS>MOLECULE
ZINC61603837_1342
48   50    1
SMALL
USER_CHARGES


@<TRIPOS>ATOM
      1 C1          8.3000   51.6965   15.8156 C.ar      1 UNK         0.0000 
      2 C2          9.4318   51.2095   15.1653 C.ar      1 UNK         0.0000 
      3 C3         10.6888   51.7064   15.5021 C.ar      1 UNK         0.0000 
      4 C4         10.8231   52.6872   16.4804 C.ar      1 UNK         0.0000 
      5 C5          9.6922   53.1763   17.1300 C.ar      1 UNK         0.0000 
      6 C6          8.4211   52.6788   16.7985 C.ar      1 UNK         0.0000 
      7 N7          7.2332   53.0818   17.4374 N.am      1 UNK         0.0000 
      8 C8          6.9990   54.2522   18.0606 C.2       1 UNK         0.0000 
      9 O9          7.7831   55.1989   18.1005 O.2       1 UNK         0.0000 
     10 N10         5.7872   54.2780   18.6388 N.am      1 UNK         0.0000 
     11 C11         5.2585   55.4124   19.4114 C.3       1 UNK         0.0000 
     12 C12         6.1011   55.6973   20.6785 C.2       1 UNK         0.0000 
     13 O13         6.6956   56.7778   20.7354 O.2       1 UNK         0.0000 
     14 N14         6.1734   54.7783   21.6823 N.am      1 UNK         0.0000 
     15 C15         7.1042   55.0108   22.7982 C.3       1 UNK         0.0000 
     16 C16         6.7643   54.3691   24.1589 C.3       1 UNK         0.0000 
     17 C17         5.3823   54.6782   24.7393 C.3       1 UNK         0.0000 
     18 N18         4.2321   53.8512   24.1226 N.4       1 UNK         0.0000 
     19 C19         4.0133   53.9202   22.5925 C.3       1 UNK         0.0000 
     20 C20         5.2798   53.6148   21.7790 C.3       1 UNK         0.0000 
     21 C21         2.9256   54.2159   24.8397 C.3       1 UNK         0.0000 
     22 C22         1.8290   53.1825   24.9632 C.3       1 UNK         0.0000 
     23 C23         2.6210   53.5925   26.1829 C.3       1 UNK         0.0000 
     24 Br24       12.2382   51.0270   14.6293 Br        1 UNK         0.0000 
     25 H25         7.3291   51.2967   15.5556 H         1 UNK         0.0000 
     26 H26         9.3384   50.4443   14.4075 H         1 UNK         0.0000 
     27 H27        11.8011   53.0609   16.7444 H         1 UNK         0.0000 
     28 H28         9.8284   53.9149   17.9061 H         1 UNK         0.0000 
     29 H29         6.4780   52.4123   17.3890 H         1 UNK         0.0000 
     30 H30         5.1718   53.4900   18.4998 H         1 UNK         0.0000 
     31 H31         4.2170   55.2410   19.6794 H         1 UNK         0.0000 
     32 H32         5.2572   56.2974   18.7696 H         1 UNK         0.0000 
     33 H33         8.0413   54.5517   22.4815 H         1 UNK         0.0000 
     34 H34         7.2737   56.0782   22.9533 H         1 UNK         0.0000 
     35 H35         7.5078   54.7036   24.8797 H         1 UNK         0.0000 
     36 H36         6.9141   53.2967   24.1028 H         1 UNK         0.0000 
     37 H37         5.1146   55.7249   24.6530 H         1 UNK         0.0000 
     38 H38         5.3601   54.4028   25.7963 H         1 UNK         0.0000 
     39 H39         3.2437   53.1727   22.3922 H         1 UNK         0.0000 
     40 H40         3.5871   54.8985   22.3600 H         1 UNK         0.0000 
     41 H41         5.8071   52.7311   22.1407 H         1 UNK         0.0000 
     42 H42         4.9584   53.3058   20.7854 H         1 UNK         0.0000 
     43 H43         2.7042   55.2681   24.6517 H         1 UNK         0.0000 
     44 H44         1.9835   52.1894   24.5381 H         1 UNK         0.0000 
     45 H45         0.7924   53.5103   24.8677 H         1 UNK         0.0000 
     46 H46         2.1436   54.2064   26.9482 H         1 UNK         0.0000 
     47 H47         3.3423   52.8966   26.6134 H         1 UNK         0.0000 
     48 H48         4.4314   52.8873   24.3483 H         1 UNK         0.0000 
@<TRIPOS>BOND
     1    1    6 ar   
     2    1    2 ar   
     3    1   25 1    
     4    2    3 ar   
     5    2   26 1    
     6    3    4 ar   
     7    3   24 1    
     8    4    5 ar   
     9    4   27 1    
    10    5    6 ar   
    11    5   28 1    
    12    6    7 1    
    13    7    8 am   BACKBONE|DICT|INTERRES
    14    7   29 1    
    15    8    9 2    
    16    8   10 am   BACKBONE|DICT|INTERRES
    17   10   11 1    
    18   10   30 1    
    19   11   12 1    
    20   11   31 1    
    21   11   32 1    
    22   12   13 2    
    23   12   14 am   BACKBONE|DICT|INTERRES
    24   14   20 1    
    25   14   15 1    
    26   15   16 1    
    27   15   33 1    
    28   15   34 1    
    29   16   17 1    
    30   16   35 1    
    31   16   36 1    
    32   17   18 1    
    33   17   37 1    
    34   17   38 1    
    35   18   19 1    
    36   18   21 1    
    37   18   48 1    
    38   19   20 1    
    39   19   39 1    
    40   19   40 1    
    41   20   41 1    
    42   20   42 1    
    43   21   23 1    
    44   21   22 1    
    45   21   43 1    
    46   22   23 1    
    47   22   44 1    
    48   22   45 1    
    49   23   46 1    
    50   23   47 1    
@<TRIPOS>SUBSTRUCTURE
     1 UNK         1 GROUP             0       ****    0 ROOT    
