ZINC37353046_6147
                    3D
 Schrodinger Suite 2024-2.
 32 34  0  0  1  0            999 V2000
    6.7048   54.8590   25.6893 C   0  0  0  0  0  0
    5.2709   54.4688   25.9401 C   0  0  0  0  0  0
    4.6359   54.2849   27.1650 C   0  0  0  0  0  0
    3.2930   53.9867   26.9576 N   0  0  0  0  0  0
    3.0702   53.9007   25.5894 C   0  0  0  0  0  0
    4.2959   54.1767   24.9311 C   0  0  0  0  0  0
    4.2578   54.0965   23.5249 C   0  0  0  0  0  0
    3.1127   53.8099   22.8636 N   0  0  0  0  0  0
    2.0079   53.5924   23.6155 C   0  0  0  0  0  0
    1.9127   53.6126   24.9697 N   0  0  0  0  0  0
    5.3945   54.2849   22.7468 N   0  0  0  0  0  0
    2.3296   53.7456   27.9654 C   0  0  0  0  0  0
    1.6733   52.5091   27.9976 C   0  0  0  0  0  0
    0.7213   52.2459   28.9779 C   0  0  0  0  0  0
    0.4199   53.2140   29.9310 C   0  0  0  0  0  0
    1.0564   54.4561   29.9010 C   0  0  0  0  0  0
    2.0077   54.7286   28.9152 C   0  0  0  0  0  0
    2.5945   55.9486   28.8823 F   0  0  0  0  0  0
    0.7466   55.3973   30.8238 F   0  0  0  0  0  0
   -0.4946   52.9396   30.8815 F   0  0  0  0  0  0
    5.2272   54.3520   28.5642 C   0  0  0  0  0  0
    7.2578   55.0047   26.6161 H   0  0  0  0  0  0
    7.2324   54.0945   25.1193 H   0  0  0  0  0  0
    6.7740   55.7896   25.1252 H   0  0  0  0  0  0
    1.1019   53.3655   23.0724 H   0  0  0  0  0  0
    6.2750   54.4948   23.1916 H   0  0  0  0  0  0
    5.3058   54.2058   21.7442 H   0  0  0  0  0  0
    1.9017   51.7415   27.2746 H   0  0  0  0  0  0
    0.2127   51.2930   29.0016 H   0  0  0  0  0  0
    6.3112   54.2433   28.5585 H   0  0  0  0  0  0
    5.0128   55.2964   29.0621 H   0  0  0  0  0  0
    4.8514   53.5550   29.2062 H   0  0  0  0  0  0
  1  2  1  0  0  0
  1 22  1  0  0  0
  1 23  1  0  0  0
  1 24  1  0  0  0
  2  6  1  0  0  0
  2  3  2  0  0  0
  3  4  1  0  0  0
  3 21  1  0  0  0
  4  5  1  0  0  0
  4 12  1  0  0  0
  5 10  2  0  0  0
  5  6  1  0  0  0
  6  7  2  0  0  0
  7  8  1  0  0  0
  7 11  1  0  0  0
  8  9  2  0  0  0
  9 10  1  0  0  0
  9 25  1  0  0  0
 11 26  1  0  0  0
 11 27  1  0  0  0
 12 17  2  0  0  0
 12 13  1  0  0  0
 13 14  2  0  0  0
 13 28  1  0  0  0
 14 15  1  0  0  0
 14 29  1  0  0  0
 15 16  2  0  0  0
 15 20  1  0  0  0
 16 17  1  0  0  0
 16 19  1  0  0  0
 17 18  1  0  0  0
 21 30  1  0  0  0
 21 31  1  0  0  0
 21 32  1  0  0  0
M  END
> <i_i_glide_confnum>
3

> <i_i_glide_lignum>
6148

> <i_i_glide_posenum>
384

> <i_i_glide_rotatable_bonds>
1

> <i_m_Source_File_Index>
2744

> <b_m_subgroup_collapsed>
0

> <r_i_docking_score>
-7.39485

> <r_i_glide_ecoul>
0.467652

> <r_i_glide_eff_state_penalty>
0

> <r_i_glide_einternal>
0.218619

> <r_i_glide_emodel>
-54.4022

> <r_i_glide_energy>
-36.177

> <r_i_glide_erotb>
0.21371

> <r_i_glide_esite>
-0.1

> <r_i_glide_evdw>
-36.6446

> <r_i_glide_gscore>
-7.39485

> <r_i_glide_hbond>
0

> <r_i_glide_ligand_efficiency>
-0.352136

> <r_i_glide_ligand_efficiency_ln>
-1.82836

> <r_i_glide_ligand_efficiency_sa>
-0.971516

> <r_i_glide_lipo>
-2.62029

> <r_i_glide_metal>
0

> <r_i_glide_rewards>
-3.12619

> <s_i_glide_gridfile>
wee1_glide-grid

> <s_m_Source_File>
wee1_decoys_glide_SP.sdf

> <s_m_Source_Path>
/Users/zhangxujun/Desktop

> <s_m_entry_id>
3019

> <s_m_entry_name>
wee1_decoys_glide_SP.2744

> <s_m_subgroup_title>
wee1_decoys_glide_SP

> <s_m_subgroupid>
wee1_decoys_glide_SP


$$$$
