@<TRIPOS>MOLECULE
ZINC39667111_4081
72   75    1
SMALL
USER_CHARGES


@<TRIPOS>ATOM
      1 C1          2.7197   53.8753   28.1575 C.3       1 UNK         0.0000 
      2 C2          3.4858   54.0072   26.8546 C.ar      1 UNK         0.0000 
      3 C3          2.8051   54.0966   25.6439 C.ar      1 UNK         0.0000 
      4 C4          3.5077   54.2583   24.4501 C.ar      1 UNK         0.0000 
      5 C5          4.9112   54.2552   24.4264 C.ar      1 UNK         0.0000 
      6 C6          5.5889   54.1800   25.6589 C.ar      1 UNK         0.0000 
      7 C7          4.8783   54.0674   26.8583 C.ar      1 UNK         0.0000 
      8 C8          7.1041   54.1977   25.7203 C.3       1 UNK         0.0000 
      9 C9          5.7357   54.2779   23.1172 C.3       1 UNK         0.0000 
     10 C10         5.0545   54.4860   21.7376 C.3       1 UNK         0.0000 
     11 N11         3.8680   53.6690   21.4912 N.am      1 UNK         0.0000 
     12 C12         3.8605   52.3286   21.3889 C.2       1 UNK         0.0000 
     13 O13         4.9052   51.6949   21.2808 O.2       1 UNK         0.0000 
     14 C14         2.5259   51.5465   21.5558 C.3       1 UNK         0.0000 
     15 H15         2.6889   50.8457   22.3804 H         1 UNK         0.0000 
     16 C16         1.3725   52.4645   22.0290 C.3       1 UNK         0.0000 
     17 N17         0.1724   51.7245   21.6398 N.am      1 UNK         0.0000 
     18 C18         0.4964   50.6470   20.7016 C.3       1 UNK         0.0000 
     19 C19         1.9726   50.8501   20.2909 C.3       1 UNK         0.0000 
     20 C20         2.6968   49.5293   19.9565 C.3       1 UNK         0.0000 
     21 C21         1.9517   48.7474   18.8613 C.3       1 UNK         0.0000 
     22 N22         1.9040   49.6395   17.6043 N.4       1 UNK         0.0000 
     23 C23         1.3774   51.0800   17.8000 C.3       1 UNK         0.0000 
     24 C24         2.1058   51.7162   19.0020 C.3       1 UNK         0.0000 
     25 C25        -0.9789   51.8042   22.3579 C.2       1 UNK         0.0000 
     26 O26        -1.0777   52.4963   23.3733 O.2       1 UNK         0.0000 
     27 C27        -2.1993   51.0514   21.8765 C.ar      1 UNK         0.0000 
     28 C28        -3.0138   50.3887   22.7977 C.ar      1 UNK         0.0000 
     29 C29        -4.1622   49.7219   22.3776 C.ar      1 UNK         0.0000 
     30 C30        -4.5395   49.7221   21.0254 C.ar      1 UNK         0.0000 
     31 C31        -3.7408   50.4077   20.0954 C.ar      1 UNK         0.0000 
     32 C32        -2.5815   51.0661   20.5294 C.ar      1 UNK         0.0000 
     33 C33        -4.1411   50.4558   18.6182 C.3       1 UNK         0.0000 
     34 F34        -5.3301   51.0466   18.4948 F         1 UNK         0.0000 
     35 F35        -3.2673   51.1411   17.8767 F         1 UNK         0.0000 
     36 F36        -4.2165   49.2205   18.1228 F         1 UNK         0.0000 
     37 O37        -5.6758   49.0881   20.5535 O.3       1 UNK         0.0000 
     38 C38        -6.5773   48.4778   21.4726 C.3       1 UNK         0.0000 
     39 H39         3.2167   54.4364   28.9499 H         1 UNK         0.0000 
     40 H40         1.7105   54.2833   28.0708 H         1 UNK         0.0000 
     41 H41         2.6542   52.8276   28.4572 H         1 UNK         0.0000 
     42 H42         1.7256   54.0688   25.6223 H         1 UNK         0.0000 
     43 H43         2.9187   54.3719   23.5599 H         1 UNK         0.0000 
     44 H44         5.4129   54.0004   27.7945 H         1 UNK         0.0000 
     45 H45         7.5042   53.4004   25.0926 H         1 UNK         0.0000 
     46 H46         7.4880   55.1408   25.3355 H         1 UNK         0.0000 
     47 H47         7.4868   54.0496   26.7307 H         1 UNK         0.0000 
     48 H48         6.5099   55.0414   23.2056 H         1 UNK         0.0000 
     49 H49         6.2632   53.3227   23.0745 H         1 UNK         0.0000 
     50 H50         4.7045   55.5103   21.6813 H         1 UNK         0.0000 
     51 H51         5.7685   54.3323   20.9268 H         1 UNK         0.0000 
     52 H52         2.9921   54.1644   21.4095 H         1 UNK         0.0000 
     53 H53         1.4674   52.6528   23.1011 H         1 UNK         0.0000 
     54 H54         1.3749   53.3648   21.4180 H         1 UNK         0.0000 
     55 H55        -0.1968   50.4528   19.8892 H         1 UNK         0.0000 
     56 H56         0.4682   49.7352   21.3012 H         1 UNK         0.0000 
     57 H57         3.7352   49.7025   19.6824 H         1 UNK         0.0000 
     58 H58         2.7101   48.8939   20.8427 H         1 UNK         0.0000 
     59 H59         2.4880   47.8456   18.5622 H         1 UNK         0.0000 
     60 H60         0.9232   48.4856   19.1169 H         1 UNK         0.0000 
     61 H61         2.8737   49.6831   17.2558 H         1 UNK         0.0000 
     62 H62         1.5956   51.6053   16.8694 H         1 UNK         0.0000 
     63 H63         0.2955   51.0125   17.9151 H         1 UNK         0.0000 
     64 H64         1.6601   52.6988   19.1679 H         1 UNK         0.0000 
     65 H65         3.1508   51.9141   18.7537 H         1 UNK         0.0000 
     66 H66        -2.7598   50.3782   23.8496 H         1 UNK         0.0000 
     67 H67        -4.7545   49.2168   23.1251 H         1 UNK         0.0000 
     68 H68        -1.9885   51.6213   19.8159 H         1 UNK         0.0000 
     69 H69        -7.4256   48.0702   20.9242 H         1 UNK         0.0000 
     70 H70        -6.1078   47.6517   22.0074 H         1 UNK         0.0000 
     71 H71        -6.9658   49.2028   22.1906 H         1 UNK         0.0000 
     72 H72         1.3890   49.1741   16.8702 H         1 UNK         0.0000 
@<TRIPOS>BOND
     1    1    2 1    
     2    1   39 1    
     3    1   40 1    
     4    1   41 1    
     5    2    7 ar   
     6    2    3 ar   
     7    3    4 ar   
     8    3   42 1    
     9    4    5 ar   
    10    4   43 1    
    11    5    6 ar   
    12    5    9 1    
    13    6    7 ar   
    14    6    8 1    
    15    7   44 1    
    16    8   45 1    
    17    8   46 1    
    18    8   47 1    
    19    9   10 1    
    20    9   48 1    
    21    9   49 1    
    22   10   11 1    
    23   10   50 1    
    24   10   51 1    
    25   11   12 am   BACKBONE|DICT|INTERRES
    26   11   52 1    
    27   12   13 2    
    28   12   14 1    
    29   14   15 1    
    30   14   19 1    
    31   14   16 1    
    32   16   17 1    
    33   16   53 1    
    34   16   54 1    
    35   17   18 1    
    36   17   25 am   BACKBONE|DICT|INTERRES
    37   18   19 1    
    38   18   55 1    
    39   18   56 1    
    40   19   24 1    
    41   19   20 1    
    42   20   21 1    
    43   20   57 1    
    44   20   58 1    
    45   21   22 1    
    46   21   59 1    
    47   21   60 1    
    48   22   23 1    
    49   22   61 1    
    50   22   72 1    
    51   23   24 1    
    52   23   62 1    
    53   23   63 1    
    54   24   64 1    
    55   24   65 1    
    56   25   26 2    
    57   25   27 1    
    58   27   32 ar   
    59   27   28 ar   
    60   28   29 ar   
    61   28   66 1    
    62   29   30 ar   
    63   29   67 1    
    64   30   31 ar   
    65   30   37 1    
    66   31   32 ar   
    67   31   33 1    
    68   32   68 1    
    69   33   34 1    
    70   33   35 1    
    71   33   36 1    
    72   37   38 1    
    73   38   69 1    
    74   38   70 1    
    75   38   71 1    
@<TRIPOS>SUBSTRUCTURE
     1 UNK         1 GROUP             0       ****    0 ROOT    
