ZINC45950153_2323
                    3D
 Schrodinger Suite 2024-2.
 54 56  0  0  1  0            999 V2000
    3.7966   53.5729   20.3596 C   0  0  0  0  0  0
    4.7760   54.1205   21.3936 C   0  0  0  0  0  0
    4.5108   53.8998   22.7467 C   0  0  0  0  0  0
    5.3792   54.3590   23.7392 C   0  0  0  0  0  0
    6.5506   55.0302   23.3647 C   0  0  0  0  0  0
    6.8122   55.2780   22.0200 C   0  0  0  0  0  0
    5.9230   54.8427   21.0213 C   0  0  0  0  0  0
    6.1697   55.0304   19.6476 N   0  0  0  0  0  0
    6.9068   55.9868   19.0545 C   0  0  0  0  0  0
    7.4816   56.8970   19.6464 O   0  0  0  0  0  0
    6.9835   55.9103   17.5352 C   0  0  0  0  0  0
    4.9823   54.1037   25.0578 N   0  0  0  0  0  0
    5.6084   54.3601   26.2231 C   0  0  0  0  0  0
    6.7061   54.8988   26.3602 O   0  0  0  0  0  0
    4.8458   53.8465   27.4069 C   0  0  0  0  0  0
    5.4394   52.9180   28.2626 C   0  0  0  0  0  0
    4.6923   52.3420   29.2890 C   0  0  0  0  0  0
    3.3706   52.7036   29.4997 C   0  0  0  0  0  0
    2.7820   53.6482   28.6712 C   0  0  0  0  0  0
    3.5143   54.2230   27.6263 C   0  0  0  0  0  0
    1.0641   54.0212   28.9105 S   0  0  0  0  0  0
    0.8323   54.0609   30.3595 O   0  0  0  0  0  0
    0.7810   55.1923   28.0817 O   0  0  0  0  0  0
    0.1651   52.6078   28.2261 N   0  0  0  0  0  0
   -0.5554   51.7715   29.1917 C   0  0  0  0  0  0
    0.3769   52.0970   26.9115 C   0  0  0  0  0  0
    0.9475   52.8947   25.9047 C   0  0  0  0  0  0
    1.1253   52.4163   24.6063 C   0  0  0  0  0  0
    0.7665   51.1106   24.2892 C   0  0  0  0  0  0
    0.2224   50.2876   25.2696 C   0  0  0  0  0  0
    0.0189   50.7785   26.5602 C   0  0  0  0  0  0
   -0.2044   48.6592   24.8816 Cl  0  0  0  0  0  0
    2.8765   53.2037   20.8152 H   0  0  0  0  0  0
    3.5062   54.3552   19.6564 H   0  0  0  0  0  0
    4.2551   52.7649   19.7871 H   0  0  0  0  0  0
    3.6192   53.3589   23.0221 H   0  0  0  0  0  0
    7.2641   55.3889   24.0889 H   0  0  0  0  0  0
    7.7336   55.7836   21.7751 H   0  0  0  0  0  0
    5.6654   54.4042   19.0377 H   0  0  0  0  0  0
    7.3324   54.9268   17.2145 H   0  0  0  0  0  0
    7.6762   56.6599   17.1483 H   0  0  0  0  0  0
    6.0015   56.0975   17.0960 H   0  0  0  0  0  0
    4.1060   53.6134   25.1441 H   0  0  0  0  0  0
    6.4587   52.5985   28.0876 H   0  0  0  0  0  0
    5.1044   51.5944   29.9403 H   0  0  0  0  0  0
    2.8009   52.2411   30.2930 H   0  0  0  0  0  0
    3.0454   54.9472   26.9753 H   0  0  0  0  0  0
   -1.5027   51.4212   28.7770 H   0  0  0  0  0  0
    0.0377   50.8987   29.4641 H   0  0  0  0  0  0
   -0.8025   52.3075   30.1095 H   0  0  0  0  0  0
    1.2345   53.9142   26.0925 H   0  0  0  0  0  0
    1.5355   53.0615   23.8450 H   0  0  0  0  0  0
    0.9130   50.7353   23.2875 H   0  0  0  0  0  0
   -0.4177   50.1019   27.2802 H   0  0  0  0  0  0
  1  2  1  0  0  0
  1 33  1  0  0  0
  1 34  1  0  0  0
  1 35  1  0  0  0
  2  7  2  0  0  0
  2  3  1  0  0  0
  3  4  2  0  0  0
  3 36  1  0  0  0
  4  5  1  0  0  0
  4 12  1  0  0  0
  5  6  2  0  0  0
  5 37  1  0  0  0
  6  7  1  0  0  0
  6 38  1  0  0  0
  7  8  1  0  0  0
  8  9  1  0  0  0
  8 39  1  0  0  0
  9 10  2  0  0  0
  9 11  1  0  0  0
 11 40  1  0  0  0
 11 41  1  0  0  0
 11 42  1  0  0  0
 12 13  1  0  0  0
 12 43  1  0  0  0
 13 14  2  0  0  0
 13 15  1  0  0  0
 15 20  2  0  0  0
 15 16  1  0  0  0
 16 17  2  0  0  0
 16 44  1  0  0  0
 17 18  1  0  0  0
 17 45  1  0  0  0
 18 19  2  0  0  0
 18 46  1  0  0  0
 19 20  1  0  0  0
 19 21  1  0  0  0
 20 47  1  0  0  0
 21 22  2  0  0  0
 21 23  2  0  0  0
 21 24  1  0  0  0
 24 25  1  0  0  0
 24 26  1  0  0  0
 25 48  1  0  0  0
 25 49  1  0  0  0
 25 50  1  0  0  0
 26 31  2  0  0  0
 26 27  1  0  0  0
 27 28  2  0  0  0
 27 51  1  0  0  0
 28 29  1  0  0  0
 28 52  1  0  0  0
 29 30  2  0  0  0
 29 53  1  0  0  0
 30 31  1  0  0  0
 30 32  1  0  0  0
 31 54  1  0  0  0
M  END
> <i_i_glide_confnum>
4

> <i_i_glide_lignum>
2324

> <i_i_glide_posenum>
19

> <i_i_glide_rotatable_bonds>
8

> <i_m_Source_File_Index>
2638

> <b_m_subgroup_collapsed>
0

> <r_i_docking_score>
-6.60312

> <r_i_glide_ecoul>
-6.33599

> <r_i_glide_eff_state_penalty>
0

> <r_i_glide_einternal>
8.81085

> <r_i_glide_emodel>
-68.8398

> <r_i_glide_energy>
-51.4744

> <r_i_glide_erotb>
0.635328

> <r_i_glide_esite>
0

> <r_i_glide_evdw>
-45.1385

> <r_i_glide_gscore>
-6.60312

> <r_i_glide_hbond>
-0.459721

> <r_i_glide_ligand_efficiency>
-0.206348

> <r_i_glide_ligand_efficiency_ln>
-1.47862

> <r_i_glide_ligand_efficiency_sa>
-0.655113

> <r_i_glide_lipo>
-2.81698

> <r_i_glide_metal>
0

> <r_i_glide_rewards>
-0.754434

> <s_i_glide_gridfile>
wee1_glide-grid

> <s_m_Source_File>
wee1_decoys_glide_SP.sdf

> <s_m_Source_Path>
/Users/zhangxujun/Desktop

> <s_m_entry_id>
2913

> <s_m_entry_name>
wee1_decoys_glide_SP.2638

> <s_m_subgroup_title>
wee1_decoys_glide_SP

> <s_m_subgroupid>
wee1_decoys_glide_SP


$$$$
