@<TRIPOS>MOLECULE
ZINC38752825_4074
64   67    1
SMALL
USER_CHARGES


@<TRIPOS>ATOM
      1 C1         11.6671   51.9415   16.6639 C.3       1 UNK         0.0000 
      2 C2         10.3833   52.7333   16.8722 C.ar      1 UNK         0.0000 
      3 C3          9.1544   52.0758   16.7572 C.ar      1 UNK         0.0000 
      4 C4          7.9612   52.7734   16.9219 C.ar      1 UNK         0.0000 
      5 C5          7.9774   54.1346   17.2207 C.ar      1 UNK         0.0000 
      6 C6          9.2049   54.7956   17.3486 C.ar      1 UNK         0.0000 
      7 C7         10.4101   54.1060   17.1708 C.ar      1 UNK         0.0000 
      8 C8         11.7288   54.8598   17.2871 C.3       1 UNK         0.0000 
      9 N9          6.7541   54.8139   17.2577 N.pl3     1 UNK         0.0000 
     10 S10         6.2360   55.8645   18.5890 S.o2      1 UNK         0.0000 
     11 O11         5.0261   56.5485   18.1182 O.2       1 UNK         0.0000 
     12 O12         7.3960   56.6384   19.0425 O.2       1 UNK         0.0000 
     13 C13         5.7073   54.8037   19.9443 C.ar      1 UNK         0.0000 
     14 C14         6.2405   55.0635   21.2132 C.ar      1 UNK         0.0000 
     15 C15         5.7826   54.3856   22.3506 C.ar      1 UNK         0.0000 
     16 C16         4.7802   53.4196   22.1845 C.ar      1 UNK         0.0000 
     17 C17         4.2794   53.1150   20.9246 C.ar      1 UNK         0.0000 
     18 C18         4.7262   53.8032   19.7951 C.ar      1 UNK         0.0000 
     19 C19         4.0926   53.4487   18.4574 C.3       1 UNK         0.0000 
     20 C20         6.3307   54.7402   23.7158 C.2       1 UNK         0.0000 
     21 O21         7.0755   55.6974   23.8742 O.2       1 UNK         0.0000 
     22 N22         5.9280   53.9899   24.7456 N.am      1 UNK         0.0000 
     23 C23         6.1939   54.2311   26.1618 C.3       1 UNK         0.0000 
     24 C24         4.9617   54.1293   27.0606 C.ar      1 UNK         0.0000 
     25 C25         3.7216   53.6894   26.5737 C.ar      1 UNK         0.0000 
     26 C26         2.6301   53.5709   27.4234 C.ar      1 UNK         0.0000 
     27 C27         2.7691   53.9227   28.7642 C.ar      1 UNK         0.0000 
     28 C28         3.9921   54.3858   29.2579 C.ar      1 UNK         0.0000 
     29 C29         5.0841   54.4912   28.4044 C.ar      1 UNK         0.0000 
     30 N30         1.6731   53.7844   29.6262 N.pl3     1 UNK         0.0000 
     31 C31         0.9775   52.6045   29.8578 C.ar      1 UNK         0.0000 
     32 C32         0.0116   52.8448   30.8184 C.ar      1 UNK         0.0000 
     33 N33         0.1185   54.1788   31.1647 N.pl3     1 UNK         0.0000 
     34 C34         1.0808   54.7824   30.3863 C.ar      1 UNK         0.0000 
     35 C35         1.4033   56.2669   30.3688 C.3       1 UNK         0.0000 
     36 H36        12.2882   51.9759   17.5585 H         1 UNK         0.0000 
     37 H37        11.4755   50.8940   16.4305 H         1 UNK         0.0000 
     38 H38        12.2506   52.3635   15.8459 H         1 UNK         0.0000 
     39 H39         9.1194   51.0205   16.5310 H         1 UNK         0.0000 
     40 H40         7.0241   52.2468   16.8182 H         1 UNK         0.0000 
     41 H41         9.2270   55.8548   17.5509 H         1 UNK         0.0000 
     42 H42        12.2904   54.7951   16.3536 H         1 UNK         0.0000 
     43 H43        11.5891   55.9145   17.5280 H         1 UNK         0.0000 
     44 H44        12.3490   54.4228   18.0695 H         1 UNK         0.0000 
     45 H45         5.9840   54.3760   16.7742 H         1 UNK         0.0000 
     46 H46         6.9994   55.8223   21.3258 H         1 UNK         0.0000 
     47 H47         4.3577   52.9048   23.0315 H         1 UNK         0.0000 
     48 H48         3.5125   52.3602   20.8320 H         1 UNK         0.0000 
     49 H49         3.1520   52.9121   18.5910 H         1 UNK         0.0000 
     50 H50         3.8457   54.3339   17.8754 H         1 UNK         0.0000 
     51 H51         4.7584   52.8176   17.8691 H         1 UNK         0.0000 
     52 H52         5.5073   53.1023   24.5294 H         1 UNK         0.0000 
     53 H53         6.6537   55.2072   26.3238 H         1 UNK         0.0000 
     54 H54         6.9295   53.4989   26.4958 H         1 UNK         0.0000 
     55 H55         3.5948   53.4048   25.5418 H         1 UNK         0.0000 
     56 H56         1.6887   53.2104   27.0357 H         1 UNK         0.0000 
     57 H57         4.1136   54.6474   30.2960 H         1 UNK         0.0000 
     58 H58         6.0259   54.8489   28.7925 H         1 UNK         0.0000 
     59 H59         1.2428   51.6974   29.3340 H         1 UNK         0.0000 
     60 H60        -0.7247   52.1928   31.2794 H         1 UNK         0.0000 
     61 H61         1.5781   56.6227   29.3537 H         1 UNK         0.0000 
     62 H62         0.6054   56.8812   30.7804 H         1 UNK         0.0000 
     63 H63         2.2953   56.5188   30.9410 H         1 UNK         0.0000 
     64 H64        -0.4437   54.6464   31.8659 H         1 UNK         0.0000 
@<TRIPOS>BOND
     1    1    2 1    
     2    1   36 1    
     3    1   37 1    
     4    1   38 1    
     5    2    7 ar   
     6    2    3 ar   
     7    3    4 ar   
     8    3   39 1    
     9    4    5 ar   
    10    4   40 1    
    11    5    6 ar   
    12    5    9 1    
    13    6    7 ar   
    14    6   41 1    
    15    7    8 1    
    16    8   42 1    
    17    8   43 1    
    18    8   44 1    
    19    9   10 1    
    20    9   45 1    
    21   10   11 2    
    22   10   12 2    
    23   10   13 1    
    24   13   18 ar   
    25   13   14 ar   
    26   14   15 ar   
    27   14   46 1    
    28   15   16 ar   
    29   15   20 1    
    30   16   17 ar   
    31   16   47 1    
    32   17   18 ar   
    33   17   48 1    
    34   18   19 1    
    35   19   49 1    
    36   19   50 1    
    37   19   51 1    
    38   20   21 2    
    39   20   22 am   BACKBONE|DICT|INTERRES
    40   22   23 1    
    41   22   52 1    
    42   23   24 1    
    43   23   53 1    
    44   23   54 1    
    45   24   29 ar   
    46   24   25 ar   
    47   25   26 ar   
    48   25   55 1    
    49   26   27 ar   
    50   26   56 1    
    51   27   28 ar   
    52   27   30 1    
    53   28   29 ar   
    54   28   57 1    
    55   29   58 1    
    56   30   34 ar   
    57   30   31 ar   
    58   31   32 ar   
    59   31   59 1    
    60   32   33 ar   
    61   32   60 1    
    62   33   34 ar   
    63   33   64 1    
    64   34   35 1    
    65   35   61 1    
    66   35   62 1    
    67   35   63 1    
@<TRIPOS>SUBSTRUCTURE
     1 UNK         1 GROUP             0       ****    0 ROOT    
