@<TRIPOS>MOLECULE
ZINC27545816_1147
60   62    1
SMALL
USER_CHARGES


@<TRIPOS>ATOM
      1 C1         -3.3776   52.4776   25.6749 C.3       1 UNK         0.0000 
      2 C2         -2.0778   51.8481   26.1310 C.ar      1 UNK         0.0000 
      3 C3         -1.1618   52.4967   26.9588 C.ar      1 UNK         0.0000 
      4 C4          0.0163   51.8373   27.3510 C.ar      1 UNK         0.0000 
      5 N5          0.2813   50.5843   26.8817 N.ar      1 UNK         0.0000 
      6 C6         -0.6386   49.9968   26.0712 C.ar      1 UNK         0.0000 
      7 N7         -1.7819   50.6089   25.7114 N.pl3     1 UNK         0.0000 
      8 C8         -0.2903   48.6605   25.4347 C.3       1 UNK         0.0000 
      9 C9         -1.4962   47.7075   25.2820 C.3       1 UNK         0.0000 
     10 C10         0.4170   48.8771   24.0905 C.3       1 UNK         0.0000 
     11 N11         0.9314   52.4086   28.2439 N.pl3     1 UNK         0.0000 
     12 C12         2.2184   51.7979   28.6297 C.3       1 UNK         0.0000 
     13 C13         3.4073   52.5034   27.9527 C.3       1 UNK         0.0000 
     14 N14         3.4473   53.9365   28.2450 N.3       1 UNK         0.0000 
     15 C15         2.1648   54.5594   27.8933 C.3       1 UNK         0.0000 
     16 C16         0.9932   53.8377   28.6065 C.3       1 UNK         0.0000 
     17 C17         4.6552   54.6209   27.7186 C.3       1 UNK         0.0000 
     18 H18         4.4399   55.6801   27.6887 H         1 UNK         0.0000 
     19 C19         5.7902   54.4332   28.7262 C.3       1 UNK         0.0000 
     20 C20         5.0853   54.3041   26.2431 C.2       1 UNK         0.0000 
     21 O21         6.2769   54.0986   25.9953 O.2       1 UNK         0.0000 
     22 N22         4.1196   54.2910   25.2919 N.am      1 UNK         0.0000 
     23 C23         4.2511   54.0968   23.8944 C.ar      1 UNK         0.0000 
     24 C24         5.4440   54.4028   23.2135 C.ar      1 UNK         0.0000 
     25 C25         5.5409   54.2378   21.8355 C.ar      1 UNK         0.0000 
     26 C26         4.4657   53.7403   21.1141 C.ar      1 UNK         0.0000 
     27 C27         3.2776   53.4340   21.7672 C.ar      1 UNK         0.0000 
     28 C28         3.1421   53.6281   23.1491 C.ar      1 UNK         0.0000 
     29 C29         1.7823   53.3438   23.7989 C.3       1 UNK         0.0000 
     30 F30         1.9051   52.4984   24.8192 F         1 UNK         0.0000 
     31 F31         1.2950   54.4966   24.2488 F         1 UNK         0.0000 
     32 F32         0.8894   52.8263   22.9524 F         1 UNK         0.0000 
     33 Cl33        4.6005   53.5275   19.4075 Cl        1 UNK         0.0000 
     34 H34        -3.5060   53.4790   26.0864 H         1 UNK         0.0000 
     35 H35        -3.4057   52.5545   24.5878 H         1 UNK         0.0000 
     36 H36        -4.2269   51.8751   26.0003 H         1 UNK         0.0000 
     37 H37        -1.3784   53.4948   27.2814 H         1 UNK         0.0000 
     38 H38         0.4195   48.1723   26.0971 H         1 UNK         0.0000 
     39 H39        -2.0183   47.5737   26.2314 H         1 UNK         0.0000 
     40 H40        -2.2192   48.0690   24.5501 H         1 UNK         0.0000 
     41 H41        -1.1680   46.7191   24.9579 H         1 UNK         0.0000 
     42 H42         1.3250   49.4736   24.2015 H         1 UNK         0.0000 
     43 H43         0.7075   47.9172   23.6818 H         1 UNK         0.0000 
     44 H44        -0.2252   49.3720   23.3598 H         1 UNK         0.0000 
     45 H45         2.3145   51.8405   29.7155 H         1 UNK         0.0000 
     46 H46         2.2718   50.7407   28.3716 H         1 UNK         0.0000 
     47 H47         3.2949   52.3639   26.8818 H         1 UNK         0.0000 
     48 H48         4.3409   52.0590   28.2910 H         1 UNK         0.0000 
     49 H49         2.1660   55.6070   28.1981 H         1 UNK         0.0000 
     50 H50         1.9783   54.4969   26.8219 H         1 UNK         0.0000 
     51 H51         1.0948   53.9253   29.6906 H         1 UNK         0.0000 
     52 H52         0.0735   54.3655   28.3695 H         1 UNK         0.0000 
     53 H53         6.7041   54.8967   28.3633 H         1 UNK         0.0000 
     54 H54         5.5251   54.8922   29.6818 H         1 UNK         0.0000 
     55 H55         6.0037   53.3771   28.8812 H         1 UNK         0.0000 
     56 H56         3.1723   54.3358   25.6307 H         1 UNK         0.0000 
     57 H57         6.3042   54.8040   23.7265 H         1 UNK         0.0000 
     58 H58         6.4590   54.4975   21.3317 H         1 UNK         0.0000 
     59 H59         2.4494   53.0765   21.1720 H         1 UNK         0.0000 
     60 H60        -2.4229   50.1224   25.1025 H         1 UNK         0.0000 
@<TRIPOS>BOND
     1    1    2 1    
     2    1   34 1    
     3    1   35 1    
     4    1   36 1    
     5    2    7 ar   
     6    2    3 ar   
     7    3    4 ar   
     8    3   37 1    
     9    4    5 ar   
    10    4   11 1    
    11    5    6 ar   
    12    6    7 ar   
    13    6    8 1    
    14    7   60 1    
    15    8    9 1    
    16    8   10 1    
    17    8   38 1    
    18    9   39 1    
    19    9   40 1    
    20    9   41 1    
    21   10   42 1    
    22   10   43 1    
    23   10   44 1    
    24   11   16 1    
    25   11   12 1    
    26   12   13 1    
    27   12   45 1    
    28   12   46 1    
    29   13   14 1    
    30   13   47 1    
    31   13   48 1    
    32   14   15 1    
    33   14   17 1    
    34   15   16 1    
    35   15   49 1    
    36   15   50 1    
    37   16   51 1    
    38   16   52 1    
    39   17   18 1    
    40   17   19 1    
    41   17   20 1    
    42   19   53 1    
    43   19   54 1    
    44   19   55 1    
    45   20   21 2    
    46   20   22 am   BACKBONE|DICT|INTERRES
    47   22   23 1    
    48   22   56 1    
    49   23   28 ar   
    50   23   24 ar   
    51   24   25 ar   
    52   24   57 1    
    53   25   26 ar   
    54   25   58 1    
    55   26   27 ar   
    56   26   33 1    
    57   27   28 ar   
    58   27   59 1    
    59   28   29 1    
    60   29   30 1    
    61   29   31 1    
    62   29   32 1    
@<TRIPOS>SUBSTRUCTURE
     1 UNK         1 GROUP             0       ****    0 ROOT    
