@<TRIPOS>MOLECULE
ZINC24976263_2717
53   56    1
SMALL
USER_CHARGES


@<TRIPOS>ATOM
      1 C1          2.9567   53.6264   29.5112 C.3       1 UNK         0.0000 
      2 C2          3.5710   53.8599   28.1430 C.ar      1 UNK         0.0000 
      3 C3          2.8002   53.6976   26.9914 C.ar      1 UNK         0.0000 
      4 C4          3.3617   53.9011   25.7324 C.ar      1 UNK         0.0000 
      5 C5          4.7130   54.2634   25.6061 C.ar      1 UNK         0.0000 
      6 C6          5.4875   54.4321   26.7702 C.ar      1 UNK         0.0000 
      7 C7          4.9148   54.2221   28.0278 C.ar      1 UNK         0.0000 
      8 C8          6.9553   54.8336   26.6972 C.3       1 UNK         0.0000 
      9 N9          5.3359   54.4961   24.3612 N.am      1 UNK         0.0000 
     10 C10         4.9788   54.0968   23.1186 C.2       1 UNK         0.0000 
     11 O11         3.9991   53.3945   22.8699 O.2       1 UNK         0.0000 
     12 C12         5.8601   54.6095   21.9949 C.ar      1 UNK         0.0000 
     13 C13         5.4258   54.5090   20.6650 C.ar      1 UNK         0.0000 
     14 C14         6.1993   55.0167   19.6235 C.ar      1 UNK         0.0000 
     15 C15         7.4342   55.6205   19.8849 C.ar      1 UNK         0.0000 
     16 C16         7.8815   55.6960   21.2013 C.ar      1 UNK         0.0000 
     17 C17         7.1041   55.2095   22.2459 C.ar      1 UNK         0.0000 
     18 N18         8.2420   56.2293   18.9112 N.pl3     1 UNK         0.0000 
     19 S19         8.2952   55.8678   17.1752 S.o2      1 UNK         0.0000 
     20 O20         6.9459   55.5146   16.7125 O.2       1 UNK         0.0000 
     21 O21         9.0147   56.9927   16.5713 O.2       1 UNK         0.0000 
     22 C22         9.3509   54.4341   16.9957 C.ar      1 UNK         0.0000 
     23 C23        10.7379   54.5909   17.1052 C.ar      1 UNK         0.0000 
     24 C24        11.5901   53.5081   16.8821 C.ar      1 UNK         0.0000 
     25 C25        11.0550   52.2650   16.5566 C.ar      1 UNK         0.0000 
     26 C26         9.6631   52.0942   16.4827 C.ar      1 UNK         0.0000 
     27 C27         8.8097   53.1777   16.6936 C.ar      1 UNK         0.0000 
     28 O28         9.0929   50.8900   16.1268 O.3       1 UNK         0.0000 
     29 C29         9.9560   49.7619   16.2998 C.3       1 UNK         0.0000 
     30 C30        11.3673   50.0692   15.7416 C.3       1 UNK         0.0000 
     31 O31        11.9324   51.2105   16.3976 O.3       1 UNK         0.0000 
     32 H32         2.1952   52.8470   29.4649 H         1 UNK         0.0000 
     33 H33         2.4942   54.5433   29.8782 H         1 UNK         0.0000 
     34 H34         3.7083   53.2910   30.2276 H         1 UNK         0.0000 
     35 H35         1.7589   53.4160   27.0681 H         1 UNK         0.0000 
     36 H36         2.7271   53.7802   24.8693 H         1 UNK         0.0000 
     37 H37         5.5137   54.3449   28.9185 H         1 UNK         0.0000 
     38 H38         7.0571   55.8002   26.2034 H         1 UNK         0.0000 
     39 H39         7.4209   54.8975   27.6811 H         1 UNK         0.0000 
     40 H40         7.5016   54.0962   26.1116 H         1 UNK         0.0000 
     41 H41         6.2037   54.9992   24.4222 H         1 UNK         0.0000 
     42 H42         4.4696   54.0598   20.4267 H         1 UNK         0.0000 
     43 H43         5.7926   54.9445   18.6294 H         1 UNK         0.0000 
     44 H44         8.8404   56.1353   21.4296 H         1 UNK         0.0000 
     45 H45         7.5029   55.3047   23.2443 H         1 UNK         0.0000 
     46 H46         8.9981   56.8119   19.2405 H         1 UNK         0.0000 
     47 H47        11.1589   55.5573   17.3458 H         1 UNK         0.0000 
     48 H48        12.6595   53.6303   16.9602 H         1 UNK         0.0000 
     49 H49         7.7417   53.0419   16.5948 H         1 UNK         0.0000 
     50 H50         9.5250   48.9022   15.7888 H         1 UNK         0.0000 
     51 H51        10.0305   49.5230   17.3629 H         1 UNK         0.0000 
     52 H52        11.2944   50.2657   14.6699 H         1 UNK         0.0000 
     53 H53        12.0267   49.2130   15.8793 H         1 UNK         0.0000 
@<TRIPOS>BOND
     1    1    2 1    
     2    1   32 1    
     3    1   33 1    
     4    1   34 1    
     5    2    7 ar   
     6    2    3 ar   
     7    3    4 ar   
     8    3   35 1    
     9    4    5 ar   
    10    4   36 1    
    11    5    6 ar   
    12    5    9 1    
    13    6    7 ar   
    14    6    8 1    
    15    7   37 1    
    16    8   38 1    
    17    8   39 1    
    18    8   40 1    
    19    9   10 am   BACKBONE|DICT|INTERRES
    20    9   41 1    
    21   10   11 2    
    22   10   12 1    
    23   12   17 ar   
    24   12   13 ar   
    25   13   14 ar   
    26   13   42 1    
    27   14   15 ar   
    28   14   43 1    
    29   15   16 ar   
    30   15   18 1    
    31   16   17 ar   
    32   16   44 1    
    33   17   45 1    
    34   18   19 1    
    35   18   46 1    
    36   19   20 2    
    37   19   21 2    
    38   19   22 1    
    39   22   27 ar   
    40   22   23 ar   
    41   23   24 ar   
    42   23   47 1    
    43   24   25 ar   
    44   24   48 1    
    45   25   31 1    
    46   25   26 ar   
    47   26   27 ar   
    48   26   28 1    
    49   27   49 1    
    50   28   29 1    
    51   29   30 1    
    52   29   50 1    
    53   29   51 1    
    54   30   31 1    
    55   30   52 1    
    56   30   53 1    
@<TRIPOS>SUBSTRUCTURE
     1 UNK         1 GROUP             0       ****    0 ROOT    
