@<TRIPOS>MOLECULE
ZINC12679102_721
58   62    1
SMALL
USER_CHARGES


@<TRIPOS>ATOM
      1 C1          0.1502   53.6334   16.5518 C.2       1 UNK         0.0000 
      2 C2          1.2438   54.1049   17.2813 C.2       1 UNK         0.0000 
      3 C3          2.2777   53.1794   17.4456 C.2       1 UNK         0.0000 
      4 S4          1.8539   51.6961   16.6291 S.3       1 UNK         0.0000 
      5 C5          0.3259   52.3290   16.1276 C.2       1 UNK         0.0000 
      6 C6          3.6220   53.3159   18.1542 C.3       1 UNK         0.0000 
      7 H7          4.2737   52.4982   17.8346 H         1 UNK         0.0000 
      8 C8          4.3429   54.6567   17.9367 C.2       1 UNK         0.0000 
      9 C9          4.2167   55.5033   16.8219 C.2       1 UNK         0.0000 
     10 C10         4.9926   56.6509   16.9072 C.2       1 UNK         0.0000 
     11 S11         5.9185   56.7020   18.3663 S.3       1 UNK         0.0000 
     12 C12         5.2558   55.1770   18.8655 C.2       1 UNK         0.0000 
     13 C13         5.5557   54.5551   20.2187 C.3       1 UNK         0.0000 
     14 C14         4.9469   53.1392   20.2952 C.3       1 UNK         0.0000 
     15 C15         2.7526   51.8567   20.1276 C.3       1 UNK         0.0000 
     16 C16         2.3499   51.8084   21.6204 C.2       1 UNK         0.0000 
     17 O17         1.9197   50.7421   22.0535 O.2       1 UNK         0.0000 
     18 N18         2.5214   52.9140   22.3835 N.am      1 UNK         0.0000 
     19 C19         2.3327   53.0481   23.7716 C.ar      1 UNK         0.0000 
     20 C20         3.1706   53.9504   24.4299 C.ar      1 UNK         0.0000 
     21 C21         3.0924   54.0980   25.8131 C.ar      1 UNK         0.0000 
     22 C22         2.1515   53.3707   26.5444 C.ar      1 UNK         0.0000 
     23 C23         1.2837   52.4967   25.8822 C.ar      1 UNK         0.0000 
     24 C24         1.3764   52.3294   24.5008 C.ar      1 UNK         0.0000 
     25 S25         1.9662   53.6147   28.3209 S.o2      1 UNK         0.0000 
     26 O26         1.3672   54.9436   28.4906 O.2       1 UNK         0.0000 
     27 O27         1.2869   52.4253   28.8457 O.2       1 UNK         0.0000 
     28 N28         3.5801   53.6610   29.0607 N.pl3     1 UNK         0.0000 
     29 C29         4.4478   52.4703   29.0111 C.3       1 UNK         0.0000 
     30 C30         5.5042   52.8964   27.9948 C.3       1 UNK         0.0000 
     31 C31         5.7098   54.3723   28.2510 C.3       1 UNK         0.0000 
     32 C32         4.4317   54.8676   28.9374 C.3       1 UNK         0.0000 
     33 H33        -0.7275   54.2258   16.3371 H         1 UNK         0.0000 
     34 H34         1.2898   55.1069   17.6820 H         1 UNK         0.0000 
     35 H35        -0.3496   51.7209   15.5444 H         1 UNK         0.0000 
     36 H36         3.5750   55.2854   15.9796 H         1 UNK         0.0000 
     37 H37         5.0648   57.4581   16.1927 H         1 UNK         0.0000 
     38 H38         6.6282   54.5014   20.4066 H         1 UNK         0.0000 
     39 H39         5.1133   55.1743   20.9996 H         1 UNK         0.0000 
     40 H40         5.5079   52.3978   19.7192 H         1 UNK         0.0000 
     41 H41         4.9234   52.8076   21.3327 H         1 UNK         0.0000 
     42 H42         1.8393   51.7953   19.5388 H         1 UNK         0.0000 
     43 H43         3.3895   51.0158   19.8429 H         1 UNK         0.0000 
     44 H44         2.9794   53.6963   21.9489 H         1 UNK         0.0000 
     45 H45         3.9050   54.5222   23.8812 H         1 UNK         0.0000 
     46 H46         3.7429   54.8055   26.3028 H         1 UNK         0.0000 
     47 H47         0.5374   51.9402   26.4330 H         1 UNK         0.0000 
     48 H48         0.6990   51.6433   24.0142 H         1 UNK         0.0000 
     49 H49         4.8873   52.3105   29.9954 H         1 UNK         0.0000 
     50 H50         3.8883   51.5516   28.8500 H         1 UNK         0.0000 
     51 H51         6.4345   52.3373   28.0815 H         1 UNK         0.0000 
     52 H52         5.1392   52.7238   26.9815 H         1 UNK         0.0000 
     53 H53         5.9217   54.9191   27.3306 H         1 UNK         0.0000 
     54 H54         6.5700   54.4967   28.9090 H         1 UNK         0.0000 
     55 H55         3.8992   55.6967   28.4808 H         1 UNK         0.0000 
     56 H56         4.7266   55.1885   29.9362 H         1 UNK         0.0000 
     57 N57         3.5045   53.1594   19.7055 N.4       1 UNK         0.0000 
     58 H58         2.9643   53.9402   20.0643 H         1 UNK         0.0000 
@<TRIPOS>BOND
     1    1    5 2    
     2    1    2 1    
     3    1   33 1    
     4    2    3 2    
     5    2   34 1    
     6    3    4 1    
     7    3    6 1    
     8    4    5 1    
     9    5   35 1    
    10    6    7 1    
    11    6    8 1    
    12    6   57 1    
    13    8   12 2    
    14    8    9 1    
    15    9   10 2    
    16    9   36 1    
    17   10   11 1    
    18   10   37 1    
    19   11   12 1    
    20   12   13 1    
    21   13   14 1    
    22   13   38 1    
    23   13   39 1    
    24   14   40 1    
    25   14   41 1    
    26   14   57 1    
    27   15   16 1    
    28   15   42 1    
    29   15   43 1    
    30   15   57 1    
    31   16   17 2    
    32   16   18 am   BACKBONE|DICT|INTERRES
    33   18   19 1    
    34   18   44 1    
    35   19   24 ar   
    36   19   20 ar   
    37   20   21 ar   
    38   20   45 1    
    39   21   22 ar   
    40   21   46 1    
    41   22   23 ar   
    42   22   25 1    
    43   23   24 ar   
    44   23   47 1    
    45   24   48 1    
    46   25   26 2    
    47   25   27 2    
    48   25   28 1    
    49   28   32 1    
    50   28   29 1    
    51   29   30 1    
    52   29   49 1    
    53   29   50 1    
    54   30   31 1    
    55   30   51 1    
    56   30   52 1    
    57   31   32 1    
    58   31   53 1    
    59   31   54 1    
    60   32   55 1    
    61   32   56 1    
    62   57   58 1    
@<TRIPOS>SUBSTRUCTURE
     1 UNK         1 GROUP             0       ****    0 ROOT    
