@<TRIPOS>MOLECULE
ZINC37551626_1737
39   39    1
SMALL
USER_CHARGES


@<TRIPOS>ATOM
      1 C1          5.7843   54.2576   26.1283 C.3       1 UNK         0.0000 
      2 C2          4.5995   54.0965   25.1785 C.ar      1 UNK         0.0000 
      3 C3          4.8317   54.1682   23.7990 C.ar      1 UNK         0.0000 
      4 C4          3.7781   54.0216   22.8819 C.ar      1 UNK         0.0000 
      5 C5          2.4896   53.7848   23.3608 C.ar      1 UNK         0.0000 
      6 C6          2.2492   53.6970   24.7292 C.ar      1 UNK         0.0000 
      7 C7          3.2928   53.8500   25.6452 C.ar      1 UNK         0.0000 
      8 C8          2.9800   53.7123   27.0640 C.1       1 UNK         0.0000 
      9 C9          2.7037   53.5362   28.2405 C.1       1 UNK         0.0000 
     10 C10         2.3705   53.2655   29.6442 C.3       1 UNK         0.0000 
     11 O11         3.5050   53.2601   30.4817 O.3       1 UNK         0.0000 
     12 N12         3.9039   54.0967   21.4843 N.am      1 UNK         0.0000 
     13 C13         4.9446   54.4967   20.7328 C.2       1 UNK         0.0000 
     14 O14         6.0572   54.8089   21.1539 O.2       1 UNK         0.0000 
     15 N15         4.5795   54.5448   19.4386 N.am      1 UNK         0.0000 
     16 C16         5.4214   54.6392   18.2370 C.3       1 UNK         0.0000 
     17 C17         6.1435   53.2968   18.0005 C.3       1 UNK         0.0000 
     18 C18         6.4517   55.7948   18.3139 C.3       1 UNK         0.0000 
     19 C19         4.4844   54.9149   17.0414 C.3       1 UNK         0.0000 
     20 H20         6.7226   54.4333   25.6003 H         1 UNK         0.0000 
     21 H21         5.6125   55.0937   26.8075 H         1 UNK         0.0000 
     22 H22         5.9019   53.3588   26.7359 H         1 UNK         0.0000 
     23 H23         5.8407   54.3391   23.4604 H         1 UNK         0.0000 
     24 H24         1.6621   53.6661   22.6755 H         1 UNK         0.0000 
     25 H25         1.2415   53.5033   25.0695 H         1 UNK         0.0000 
     26 H26         1.8652   52.3005   29.6989 H         1 UNK         0.0000 
     27 H27         1.6671   54.0262   29.9850 H         1 UNK         0.0000 
     28 H28         4.1262   52.6158   30.1328 H         1 UNK         0.0000 
     29 H29         3.0491   53.9049   20.9829 H         1 UNK         0.0000 
     30 H30         3.5915   54.4807   19.2451 H         1 UNK         0.0000 
     31 H31         5.4348   52.4973   17.7768 H         1 UNK         0.0000 
     32 H32         6.8415   53.3513   17.1644 H         1 UNK         0.0000 
     33 H33         6.7044   52.9862   18.8815 H         1 UNK         0.0000 
     34 H34         5.9740   56.7408   18.5752 H         1 UNK         0.0000 
     35 H35         7.2286   55.6027   19.0551 H         1 UNK         0.0000 
     36 H36         6.9619   55.9416   17.3605 H         1 UNK         0.0000 
     37 H37         3.9447   55.8557   17.1636 H         1 UNK         0.0000 
     38 H38         5.0396   54.9797   16.1046 H         1 UNK         0.0000 
     39 H39         3.7393   54.1255   16.9197 H         1 UNK         0.0000 
@<TRIPOS>BOND
     1    1    2 1    
     2    1   20 1    
     3    1   21 1    
     4    1   22 1    
     5    2    7 ar   
     6    2    3 ar   
     7    3    4 ar   
     8    3   23 1    
     9    4    5 ar   
    10    4   12 1    
    11    5    6 ar   
    12    5   24 1    
    13    6    7 ar   
    14    6   25 1    
    15    7    8 1    
    16    8    9 3    
    17    9   10 1    
    18   10   11 1    
    19   10   26 1    
    20   10   27 1    
    21   11   28 1    
    22   12   13 am   BACKBONE|DICT|INTERRES
    23   12   29 1    
    24   13   14 2    
    25   13   15 am   BACKBONE|DICT|INTERRES
    26   15   16 1    
    27   15   30 1    
    28   16   17 1    
    29   16   18 1    
    30   16   19 1    
    31   17   31 1    
    32   17   32 1    
    33   17   33 1    
    34   18   34 1    
    35   18   35 1    
    36   18   36 1    
    37   19   37 1    
    38   19   38 1    
    39   19   39 1    
@<TRIPOS>SUBSTRUCTURE
     1 UNK         1 GROUP             0       ****    0 ROOT    
