@<TRIPOS>MOLECULE
ZINC39448854_4996
56   60    1
SMALL
USER_CHARGES


@<TRIPOS>ATOM
      1 C1         -0.0247   52.2693   29.6593 C.ar      1 UNK         0.0000 
      2 C2          0.5513   52.8238   28.5222 C.ar      1 UNK         0.0000 
      3 C3         -0.0453   52.6223   27.2796 C.ar      1 UNK         0.0000 
      4 C4         -1.2234   51.8704   27.1420 C.ar      1 UNK         0.0000 
      5 C5         -1.7904   51.2970   28.2958 C.ar      1 UNK         0.0000 
      6 C6         -1.1861   51.5106   29.5408 C.ar      1 UNK         0.0000 
      7 C7         -3.0734   50.4963   28.1639 C.3       1 UNK         0.0000 
      8 C8         -4.3114   51.2681   27.7074 C.3       1 UNK         0.0000 
      9 C9         -4.2247   52.2206   26.5107 C.ar      1 UNK         0.0000 
     10 C10        -5.3724   52.9849   26.2628 C.ar      1 UNK         0.0000 
     11 C11        -5.4180   53.9138   25.2359 C.ar      1 UNK         0.0000 
     12 C12        -4.3105   54.0812   24.4219 C.ar      1 UNK         0.0000 
     13 C13        -3.1790   53.2966   24.6126 C.ar      1 UNK         0.0000 
     14 C14        -3.0866   52.3698   25.6653 C.ar      1 UNK         0.0000 
     15 N15        -1.8832   51.6483   25.9093 N.am      1 UNK         0.0000 
     16 C16        -1.2914   50.9041   24.9173 C.2       1 UNK         0.0000 
     17 O17        -1.7979   50.7673   23.8000 O.2       1 UNK         0.0000 
     18 C18         0.0741   50.2185   25.1814 C.3       1 UNK         0.0000 
     19 S19         0.7030   49.1342   23.8442 S.3       1 UNK         0.0000 
     20 C20         1.4573   50.2555   22.6334 C.2       1 UNK         0.0000 
     21 N21         1.3734   51.6220   22.8496 N.pl3     1 UNK         0.0000 
     22 C22         2.1642   52.6515   22.1393 C.3       1 UNK         0.0000 
     23 H23         1.4956   53.4587   21.8328 H         1 UNK         0.0000 
     24 N24         2.5940   51.9809   20.8935 N.pl3     1 UNK         0.0000 
     25 C25         2.5815   50.6460   20.7610 C.cat     1 UNK         0.0000 
     26 N26         2.0665   49.7794   21.6313 N.2       1 UNK         0.0000 
     27 N27         3.1044   50.0979   19.6814 N.pl3     1 UNK         0.0000 
     28 C28         3.2763   53.3141   22.9616 C.ar      1 UNK         0.0000 
     29 C29         3.0088   53.7331   24.2717 C.ar      1 UNK         0.0000 
     30 C30         4.0096   54.3194   25.0455 C.ar      1 UNK         0.0000 
     31 C31         5.2857   54.4973   24.5114 C.ar      1 UNK         0.0000 
     32 C32         5.5614   54.1001   23.2050 C.ar      1 UNK         0.0000 
     33 C33         4.5592   53.5226   22.4294 C.ar      1 UNK         0.0000 
     34 Cl34        6.5299   55.2192   25.4691 Cl        1 UNK         0.0000 
     35 H35         0.4225   52.4174   30.6322 H         1 UNK         0.0000 
     36 H36         1.4543   53.4099   28.6017 H         1 UNK         0.0000 
     37 H37         0.4114   53.0643   26.4060 H         1 UNK         0.0000 
     38 H38        -1.6181   51.0708   30.4308 H         1 UNK         0.0000 
     39 H39        -3.2940   49.9912   29.1058 H         1 UNK         0.0000 
     40 H40        -2.8962   49.6966   27.4476 H         1 UNK         0.0000 
     41 H41        -4.6703   51.8416   28.5627 H         1 UNK         0.0000 
     42 H42        -5.0895   50.5385   27.4836 H         1 UNK         0.0000 
     43 H43        -6.2449   52.8607   26.8892 H         1 UNK         0.0000 
     44 H44        -6.3104   54.4962   25.0684 H         1 UNK         0.0000 
     45 H45        -4.3351   54.8105   23.6281 H         1 UNK         0.0000 
     46 H46        -2.3346   53.4423   23.9532 H         1 UNK         0.0000 
     47 H47         0.8377   50.9615   25.4022 H         1 UNK         0.0000 
     48 H48        -0.0309   49.5920   26.0678 H         1 UNK         0.0000 
     49 H49         3.7294   50.5763   19.0348 H         1 UNK         0.0000 
     50 H50         3.0208   49.0957   19.6049 H         1 UNK         0.0000 
     51 H51         2.0263   53.6016   24.6969 H         1 UNK         0.0000 
     52 H52         3.7976   54.6323   26.0577 H         1 UNK         0.0000 
     53 H53         6.5505   54.2447   22.7942 H         1 UNK         0.0000 
     54 H54         4.7988   53.2242   21.4189 H         1 UNK         0.0000 
     55 H55         0.6322   51.9837   23.4325 H         1 UNK         0.0000 
     56 H56         2.8663   52.5313   20.0959 H         1 UNK         0.0000 
@<TRIPOS>BOND
     1    1    6 ar   
     2    1    2 ar   
     3    1   35 1    
     4    2    3 ar   
     5    2   36 1    
     6    3    4 ar   
     7    3   37 1    
     8    4   15 1    
     9    4    5 ar   
    10    5    6 ar   
    11    5    7 1    
    12    6   38 1    
    13    7    8 1    
    14    7   39 1    
    15    7   40 1    
    16    8    9 1    
    17    8   41 1    
    18    8   42 1    
    19    9   14 ar   
    20    9   10 ar   
    21   10   11 ar   
    22   10   43 1    
    23   11   12 ar   
    24   11   44 1    
    25   12   13 ar   
    26   12   45 1    
    27   13   14 ar   
    28   13   46 1    
    29   14   15 1    
    30   15   16 am   BACKBONE|DICT|INTERRES
    31   16   17 2    
    32   16   18 1    
    33   18   19 1    
    34   18   47 1    
    35   18   48 1    
    36   19   20 1    
    37   20   26 2    
    38   20   21 1    
    39   21   22 1    
    40   21   55 1    
    41   22   23 1    
    42   22   24 1    
    43   22   28 1    
    44   24   25 ar   
    45   24   56 1    
    46   25   26 1    
    47   25   27 ar   
    48   27   49 1    
    49   27   50 1    
    50   28   33 ar   
    51   28   29 ar   
    52   29   30 ar   
    53   29   51 1    
    54   30   31 ar   
    55   30   52 1    
    56   31   32 ar   
    57   31   34 1    
    58   32   33 ar   
    59   32   53 1    
    60   33   54 1    
@<TRIPOS>SUBSTRUCTURE
     1 UNK         1 GROUP             0       ****    0 ROOT    
