ZINC39666270_5547
                    3D
 Schrodinger Suite 2024-2.
 75 79  0  0  1  0            999 V2000
   -5.7788   54.2010   15.1707 C   0  0  0  0  0  0
   -4.5608   53.6570   15.8972 C   0  0  0  0  0  0
   -3.5671   54.5304   16.3355 C   0  0  0  0  0  0
   -2.4551   54.0369   17.0104 C   0  0  0  0  0  0
   -2.3048   52.6679   17.2283 C   0  0  0  0  0  0
   -3.3013   51.7919   16.7712 C   0  0  0  0  0  0
   -4.4249   52.2865   16.1128 C   0  0  0  0  0  0
   -1.1478   52.3034   17.8910 O   0  0  0  0  0  0
   -0.7084   50.9479   18.0483 C   0  0  2  0  0  0
    0.2761   51.0731   18.5004 H   0  0  0  0  0  0
   -0.4408   50.2281   16.7102 C   0  0  0  0  0  0
   -1.5445   50.1300   19.0699 C   0  0  0  0  0  0
   -1.5844   50.7170   20.4130 N   0  0  0  0  0  0
   -0.5602   50.6809   21.2819 C   0  0  0  0  0  0
    0.5188   50.1551   21.0022 O   0  0  0  0  0  0
   -0.7640   51.4163   22.6290 C   0  0  2  0  0  0
   -1.6589   52.0385   22.5707 H   0  0  0  0  0  0
    0.4416   52.3525   22.8245 C   0  0  0  0  0  0
    0.5504   52.4950   24.2777 N   0  0  0  0  0  0
   -0.2765   51.5145   24.9741 C   0  0  0  0  0  0
   -0.7947   50.5246   23.9044 C   0  0  0  0  0  0
   -2.2059   49.9627   24.1970 C   0  0  0  0  0  0
   -2.2712   49.3325   25.6028 C   0  0  0  0  0  0
   -1.2429   48.1834   25.6817 N   0  3  0  0  0  0
    0.1874   48.5186   25.1911 C   0  0  0  0  0  0
    0.1188   49.2637   23.8419 C   0  0  0  0  0  0
    1.3740   53.4294   24.8200 C   0  0  0  0  0  0
    1.8132   54.3551   24.1352 O   0  0  0  0  0  0
    1.8276   53.2756   26.1995 C   0  0  0  0  0  0
    1.0859   53.0139   27.3602 C   0  0  0  0  0  0
    1.9174   52.9481   28.4208 O   0  0  0  0  0  0
    3.1888   53.2964   28.0042 N   0  0  0  0  0  0
    3.1221   53.5718   26.7157 C   0  0  0  0  0  0
    4.3777   54.0957   26.0544 C   0  0  0  0  0  0
    5.3450   54.7214   26.8530 C   0  0  0  0  0  0
    6.5036   55.2361   26.2958 C   0  0  0  0  0  0
    6.7042   55.1553   24.9231 C   0  0  0  0  0  0
    5.7875   54.4994   24.1138 C   0  0  0  0  0  0
    4.6375   53.9660   24.6824 C   0  0  0  0  0  0
   -0.3669   52.8367   27.7425 C   0  0  0  0  0  0
   -6.2649   53.4308   14.5712 H   0  0  0  0  0  0
   -5.4898   55.0049   14.4908 H   0  0  0  0  0  0
   -6.4998   54.6050   15.8827 H   0  0  0  0  0  0
   -3.6588   55.5933   16.1608 H   0  0  0  0  0  0
   -1.6888   54.7186   17.3508 H   0  0  0  0  0  0
   -3.2313   50.7264   16.8968 H   0  0  0  0  0  0
   -5.1852   51.6019   15.7671 H   0  0  0  0  0  0
    0.0007   49.2466   16.8804 H   0  0  0  0  0  0
   -1.3298   50.0802   16.1017 H   0  0  0  0  0  0
    0.2696   50.7958   16.1094 H   0  0  0  0  0  0
   -2.5753   50.0156   18.7465 H   0  0  0  0  0  0
   -1.1534   49.1112   19.1281 H   0  0  0  0  0  0
   -2.4390   51.1763   20.6834 H   0  0  0  0  0  0
    1.3736   51.8679   22.5227 H   0  0  0  0  0  0
    0.3187   53.2950   22.2950 H   0  0  0  0  0  0
   -1.1540   52.0631   25.3129 H   0  0  0  0  0  0
    0.1726   51.0359   25.8403 H   0  0  0  0  0  0
   -2.9252   50.7832   24.1962 H   0  0  0  0  0  0
   -2.5437   49.2798   23.4156 H   0  0  0  0  0  0
   -2.0179   50.0188   26.4133 H   0  0  0  0  0  0
   -3.2414   48.8871   25.8252 H   0  0  0  0  0  0
   -1.1979   47.9079   26.6674 H   0  0  0  0  0  0
    0.6779   49.0638   25.9958 H   0  0  0  0  0  0
    0.7043   47.5720   25.0717 H   0  0  0  0  0  0
   -0.1858   48.5794   23.0488 H   0  0  0  0  0  0
    1.1388   49.5634   23.5895 H   0  0  0  0  0  0
    5.2110   54.8295   27.9191 H   0  0  0  0  0  0
    7.2217   55.6967   26.9511 H   0  0  0  0  0  0
    7.5865   55.5849   24.4798 H   0  0  0  0  0  0
    5.9645   54.4023   23.0519 H   0  0  0  0  0  0
    3.9747   53.4196   24.0340 H   0  0  0  0  0  0
   -1.0622   53.2964   27.0431 H   0  0  0  0  0  0
   -0.6360   51.7879   27.8699 H   0  0  0  0  0  0
   -0.5530   53.3154   28.7028 H   0  0  0  0  0  0
   -1.5893   47.3846   25.1718 H   0  0  0  0  0  0
  1  2  1  0  0  0
  1 41  1  0  0  0
  1 42  1  0  0  0
  1 43  1  0  0  0
  2  7  2  0  0  0
  2  3  1  0  0  0
  3  4  2  0  0  0
  3 44  1  0  0  0
  4  5  1  0  0  0
  4 45  1  0  0  0
  5  6  2  0  0  0
  5  8  1  0  0  0
  6  7  1  0  0  0
  6 46  1  0  0  0
  7 47  1  0  0  0
  8  9  1  0  0  0
  9 10  1  0  0  0
  9 11  1  0  0  0
  9 12  1  0  0  0
 11 48  1  0  0  0
 11 49  1  0  0  0
 11 50  1  0  0  0
 12 13  1  0  0  0
 12 51  1  0  0  0
 12 52  1  0  0  0
 13 14  1  0  0  0
 13 53  1  0  0  0
 14 15  2  0  0  0
 14 16  1  0  0  0
 16 17  1  0  0  0
 16 21  1  0  0  0
 16 18  1  0  0  0
 18 19  1  0  0  0
 18 54  1  0  0  0
 18 55  1  0  0  0
 19 20  1  0  0  0
 19 27  1  0  0  0
 20 21  1  0  0  0
 20 56  1  0  0  0
 20 57  1  0  0  0
 21 26  1  0  0  0
 21 22  1  0  0  0
 22 23  1  0  0  0
 22 58  1  0  0  0
 22 59  1  0  0  0
 23 24  1  0  0  0
 23 60  1  0  0  0
 23 61  1  0  0  0
 24 25  1  0  0  0
 24 62  1  0  0  0
 24 75  1  0  0  0
 25 26  1  0  0  0
 25 63  1  0  0  0
 25 64  1  0  0  0
 26 65  1  0  0  0
 26 66  1  0  0  0
 27 28  2  0  0  0
 27 29  1  0  0  0
 29 33  1  0  0  0
 29 30  2  0  0  0
 30 31  1  0  0  0
 30 40  1  0  0  0
 31 32  1  0  0  0
 32 33  2  0  0  0
 33 34  1  0  0  0
 34 39  2  0  0  0
 34 35  1  0  0  0
 35 36  2  0  0  0
 35 67  1  0  0  0
 36 37  1  0  0  0
 36 68  1  0  0  0
 37 38  2  0  0  0
 37 69  1  0  0  0
 38 39  1  0  0  0
 38 70  1  0  0  0
 39 71  1  0  0  0
 40 72  1  0  0  0
 40 73  1  0  0  0
 40 74  1  0  0  0
M  CHG  1  24   1
M  END
> <i_i_glide_confnum>
119

> <i_i_glide_lignum>
5548

> <i_i_glide_posenum>
310

> <i_i_glide_rotatable_bonds>
9

> <i_m_Source_File_Index>
2290

> <b_m_subgroup_collapsed>
0

> <r_i_docking_score>
-4.78612

> <r_i_glide_ecoul>
-4.58925

> <r_i_glide_eff_state_penalty>
0

> <r_i_glide_einternal>
8.46385

> <r_i_glide_emodel>
-48.3694

> <r_i_glide_energy>
-38.426

> <r_i_glide_erotb>
0.689678

> <r_i_glide_esite>
-0.100451

> <r_i_glide_evdw>
-33.8368

> <r_i_glide_gscore>
-4.78612

> <r_i_glide_hbond>
-0.198146

> <r_i_glide_ligand_efficiency>
-0.12595

> <r_i_glide_ligand_efficiency_ln>
-1.03203

> <r_i_glide_ligand_efficiency_sa>
-0.423442

> <r_i_glide_lipo>
-2.22508

> <r_i_glide_metal>
0

> <r_i_glide_rewards>
-0.571893

> <s_i_glide_gridfile>
wee1_glide-grid

> <s_m_Source_File>
wee1_decoys_glide_SP.sdf

> <s_m_Source_Path>
/Users/zhangxujun/Desktop

> <s_m_entry_id>
2565

> <s_m_entry_name>
wee1_decoys_glide_SP.2290

> <s_m_subgroup_title>
wee1_decoys_glide_SP

> <s_m_subgroupid>
wee1_decoys_glide_SP


$$$$
