ZINC09884196_3203
                    3D
 Schrodinger Suite 2024-2.
 64 68  0  0  1  0            999 V2000
    4.5751   54.6166   18.1369 C   0  0  0  0  0  0
    5.1499   53.4157   18.9056 C   0  0  0  0  0  0
    4.6238   53.3468   20.2277 O   0  0  0  0  0  0
    5.1046   54.1211   21.2364 C   0  0  0  0  0  0
    6.0519   54.8995   21.1050 O   0  0  0  0  0  0
    4.3575   53.9332   22.5030 C   0  0  0  0  0  0
    4.8533   54.3043   23.7900 C   0  0  0  0  0  0
    3.9227   54.0955   24.8255 C   0  0  0  0  0  0
    2.4480   53.4145   24.2527 S   0  0  0  0  0  0
    3.0671   53.3608   22.6257 C   0  0  0  0  0  0
    2.3300   52.8240   21.5731 N   0  0  0  0  0  0
    1.1198   52.2357   21.5555 C   0  0  0  0  0  0
    0.3795   52.0944   22.5301 O   0  0  0  0  0  0
    0.7149   51.7380   20.1522 C   0  0  0  0  0  0
   -0.4710   50.8610   20.1974 N   0  0  0  0  0  0
   -1.7275   51.3009   19.9614 C   0  0  0  0  0  0
   -2.0956   52.4450   19.6818 O   0  0  0  0  0  0
   -2.6251   50.0658   20.0476 C   0  0  2  0  0  0
   -3.3854   49.9368   18.6946 C   0  0  0  0  0  0
   -4.5067   48.8978   18.7919 C   0  0  0  0  0  0
   -5.5503   49.3730   19.8136 C   0  0  0  0  0  0
   -4.9285   49.7254   21.1646 C   0  0  0  0  0  0
   -3.5645   50.1009   21.2820 C   0  0  0  0  0  0
   -3.0742   50.4072   22.5657 C   0  0  0  0  0  0
   -3.8913   50.3782   23.6911 C   0  0  0  0  0  0
   -5.2265   50.0186   23.5626 C   0  0  0  0  0  0
   -5.7325   49.6905   22.3104 C   0  0  0  0  0  0
   -1.6101   49.0561   20.1867 N   0  0  0  0  0  0
   -0.3774   49.5228   20.3961 C   0  0  0  0  0  0
    0.5659   48.8952   20.8735 O   0  0  0  0  0  0
    4.1202   54.4522   26.2984 C   0  0  0  0  0  0
    5.6000   54.8199   26.5676 C   0  0  2  0  0  0
    5.6044   55.4451   27.4604 H   0  0  0  0  0  0
    6.1424   55.7029   25.4267 C   0  0  0  0  0  0
    6.2233   54.9402   24.0932 C   0  0  0  0  0  0
    6.4931   53.6160   26.9140 C   0  0  0  0  0  0
    4.9334   54.6232   17.1076 H   0  0  0  0  0  0
    3.4843   54.5821   18.1118 H   0  0  0  0  0  0
    4.8694   55.5620   18.5951 H   0  0  0  0  0  0
    6.2431   53.4447   18.9208 H   0  0  0  0  0  0
    4.8742   52.4971   18.3858 H   0  0  0  0  0  0
    2.8097   52.8782   20.6839 H   0  0  0  0  0  0
    0.5114   52.6165   19.5356 H   0  0  0  0  0  0
    1.5493   51.2123   19.6837 H   0  0  0  0  0  0
   -3.8635   50.8830   18.4232 H   0  0  0  0  0  0
   -2.7105   49.6698   17.8773 H   0  0  0  0  0  0
   -4.1053   47.9255   19.0833 H   0  0  0  0  0  0
   -4.9768   48.7584   17.8172 H   0  0  0  0  0  0
   -6.3227   48.6103   19.9318 H   0  0  0  0  0  0
   -6.0589   50.2584   19.4296 H   0  0  0  0  0  0
   -2.0345   50.6708   22.7009 H   0  0  0  0  0  0
   -3.4850   50.6234   24.6609 H   0  0  0  0  0  0
   -5.8661   49.9900   24.4341 H   0  0  0  0  0  0
   -6.7742   49.4170   22.2285 H   0  0  0  0  0  0
   -1.7827   48.1047   19.9083 H   0  0  0  0  0  0
    3.8121   53.6253   26.9400 H   0  0  0  0  0  0
    3.4887   55.2968   26.5646 H   0  0  0  0  0  0
    7.1328   56.0770   25.6774 H   0  0  0  0  0  0
    5.5061   56.5749   25.2818 H   0  0  0  0  0  0
    6.5392   55.6536   23.3338 H   0  0  0  0  0  0
    7.0006   54.1768   24.1233 H   0  0  0  0  0  0
    6.5699   52.9176   26.0840 H   0  0  0  0  0  0
    7.5027   53.9366   27.1705 H   0  0  0  0  0  0
    6.1007   53.0626   27.7682 H   0  0  0  0  0  0
  1  2  1  0  0  0
  1 37  1  0  0  0
  1 38  1  0  0  0
  1 39  1  0  0  0
  2  3  1  0  0  0
  2 40  1  0  0  0
  2 41  1  0  0  0
  3  4  1  0  0  0
  4  5  2  0  0  0
  4  6  1  0  0  0
  6 10  2  0  0  0
  6  7  1  0  0  0
  7 35  1  0  0  0
  7  8  2  0  0  0
  8  9  1  0  0  0
  8 31  1  0  0  0
  9 10  1  0  0  0
 10 11  1  0  0  0
 11 12  1  0  0  0
 11 42  1  0  0  0
 12 13  2  0  0  0
 12 14  1  0  0  0
 14 15  1  0  0  0
 14 43  1  0  0  0
 14 44  1  0  0  0
 15 29  1  0  0  0
 15 16  1  0  0  0
 16 17  2  0  0  0
 16 18  1  0  0  0
 18 23  1  0  0  0
 18 19  1  0  0  0
 18 28  1  0  0  0
 19 20  1  0  0  0
 19 45  1  0  0  0
 19 46  1  0  0  0
 20 21  1  0  0  0
 20 47  1  0  0  0
 20 48  1  0  0  0
 21 22  1  0  0  0
 21 49  1  0  0  0
 21 50  1  0  0  0
 22 27  2  0  0  0
 22 23  1  0  0  0
 23 24  2  0  0  0
 24 25  1  0  0  0
 24 51  1  0  0  0
 25 26  2  0  0  0
 25 52  1  0  0  0
 26 27  1  0  0  0
 26 53  1  0  0  0
 27 54  1  0  0  0
 28 29  1  0  0  0
 28 55  1  0  0  0
 29 30  2  0  0  0
 31 32  1  0  0  0
 31 56  1  0  0  0
 31 57  1  0  0  0
 32 33  1  0  0  0
 32 34  1  0  0  0
 32 36  1  0  0  0
 34 35  1  0  0  0
 34 58  1  0  0  0
 34 59  1  0  0  0
 35 60  1  0  0  0
 35 61  1  0  0  0
 36 62  1  0  0  0
 36 63  1  0  0  0
 36 64  1  0  0  0
M  END
> <i_i_glide_confnum>
106

> <i_i_glide_lignum>
3204

> <i_i_glide_posenum>
395

> <i_i_glide_rotatable_bonds>
7

> <i_m_Source_File_Index>
4375

> <b_m_subgroup_collapsed>
0

> <r_i_docking_score>
-5.37414

> <r_i_glide_ecoul>
-6.91169

> <r_i_glide_eff_state_penalty>
0

> <r_i_glide_einternal>
2.33605

> <r_i_glide_emodel>
-56.2911

> <r_i_glide_energy>
-42.2301

> <r_i_glide_erotb>
0.415015

> <r_i_glide_esite>
-0.0244685

> <r_i_glide_evdw>
-35.3184

> <r_i_glide_gscore>
-5.37414

> <r_i_glide_hbond>
-0.32

> <r_i_glide_ligand_efficiency>
-0.153547

> <r_i_glide_ligand_efficiency_ln>
-1.17974

> <r_i_glide_ligand_efficiency_sa>
-0.502262

> <r_i_glide_lipo>
-2.4551

> <r_i_glide_metal>
0

> <r_i_glide_rewards>
-0.186912

> <s_i_glide_gridfile>
wee1_glide-grid

> <s_m_Source_File>
wee1_decoys_glide_SP.sdf

> <s_m_Source_Path>
/Users/zhangxujun/Desktop

> <s_m_entry_id>
4650

> <s_m_entry_name>
wee1_decoys_glide_SP.4375

> <s_m_subgroup_title>
wee1_decoys_glide_SP

> <s_m_subgroupid>
wee1_decoys_glide_SP


$$$$
