@<TRIPOS>MOLECULE
ZINC34755944_5243
68   72    1
SMALL
USER_CHARGES


@<TRIPOS>ATOM
      1 C1         -2.2244   51.8957   26.4215 C.3       1 UNK         0.0000 
      2 C2         -1.2033   51.2880   27.3941 C.3       1 UNK         0.0000 
      3 S3          0.0641   52.4379   28.0106 S.3       1 UNK         0.0000 
      4 C4          1.1907   52.8180   26.7013 C.ar      1 UNK         0.0000 
      5 N5          0.9500   52.2957   25.4723 N.ar      1 UNK         0.0000 
      6 C6          1.8241   52.5986   24.4746 C.ar      1 UNK         0.0000 
      7 C7          2.9702   53.4051   24.7190 C.ar      1 UNK         0.0000 
      8 C8          4.0940   53.8089   23.9165 C.2       1 UNK         0.0000 
      9 C9          5.0481   54.4972   24.6668 C.2       1 UNK         0.0000 
     10 S10         4.6035   54.7067   26.3409 S.3       1 UNK         0.0000 
     11 C11         3.1046   53.8528   26.0675 C.ar      1 UNK         0.0000 
     12 N12         2.2390   53.6034   27.0505 N.ar      1 UNK         0.0000 
     13 C13         6.4067   54.9547   24.1493 C.3       1 UNK         0.0000 
     14 C14         6.4599   54.8522   22.6098 C.3       1 UNK         0.0000 
     15 C15         5.7959   53.5767   22.0829 C.3       1 UNK         0.0000 
     16 C16         4.3074   53.4955   22.4420 C.3       1 UNK         0.0000 
     17 N17         1.6003   51.9984   23.2418 N.pl3     1 UNK         0.0000 
     18 C18         1.3180   50.5628   23.1258 C.3       1 UNK         0.0000 
     19 C19         1.9785   49.9607   21.8744 C.3       1 UNK         0.0000 
     20 N20         1.4016   50.6479   20.6186 N.4       1 UNK         0.0000 
     21 C21         1.6347   52.1756   20.6814 C.3       1 UNK         0.0000 
     22 C22         1.2069   52.7704   22.0509 C.3       1 UNK         0.0000 
     23 C23         2.0217   50.0697   19.3119 C.3       1 UNK         0.0000 
     24 C24         1.4137   48.7097   18.9364 C.2       1 UNK         0.0000 
     25 O25         0.5298   48.1899   19.6201 O.2       1 UNK         0.0000 
     26 N26         1.9044   48.1526   17.8187 N.am      1 UNK         0.0000 
     27 C27         1.4703   46.8987   17.2043 C.3       1 UNK         0.0000 
     28 C28         0.0006   46.8870   16.7021 C.3       1 UNK         0.0000 
     29 C29        -0.4018   45.5757   15.9988 C.3       1 UNK         0.0000 
     30 C30         0.5876   45.1912   14.8878 C.3       1 UNK         0.0000 
     31 C31         2.0250   45.1026   15.4247 C.3       1 UNK         0.0000 
     32 C32         2.4693   46.3968   16.1331 C.3       1 UNK         0.0000 
     33 H33        -2.9564   51.1492   26.1135 H         1 UNK         0.0000 
     34 H34        -2.7675   52.7205   26.8814 H         1 UNK         0.0000 
     35 H35        -1.7469   52.2751   25.5184 H         1 UNK         0.0000 
     36 H36        -0.7080   50.4304   26.9373 H         1 UNK         0.0000 
     37 H37        -1.7350   50.8963   28.2640 H         1 UNK         0.0000 
     38 H38         6.6297   55.9763   24.4613 H         1 UNK         0.0000 
     39 H39         7.1861   54.3161   24.5697 H         1 UNK         0.0000 
     40 H40         5.9558   55.6968   22.1475 H         1 UNK         0.0000 
     41 H41         7.4978   54.9065   22.2758 H         1 UNK         0.0000 
     42 H42         5.8932   53.5351   20.9977 H         1 UNK         0.0000 
     43 H43         6.3045   52.6983   22.4820 H         1 UNK         0.0000 
     44 H44         3.9829   52.4840   22.2111 H         1 UNK         0.0000 
     45 H45         3.7320   54.1811   21.8177 H         1 UNK         0.0000 
     46 H46         0.2326   50.4430   23.0862 H         1 UNK         0.0000 
     47 H47         1.6529   50.0317   24.0193 H         1 UNK         0.0000 
     48 H48         1.7338   48.8992   21.8058 H         1 UNK         0.0000 
     49 H49         3.0638   50.0834   21.8677 H         1 UNK         0.0000 
     50 H50         2.6901   52.3469   20.4595 H         1 UNK         0.0000 
     51 H51         1.0200   52.5991   19.8846 H         1 UNK         0.0000 
     52 H52         1.4778   53.8249   22.1364 H         1 UNK         0.0000 
     53 H53         0.1177   52.7289   22.0921 H         1 UNK         0.0000 
     54 H54         3.1058   50.0260   19.4364 H         1 UNK         0.0000 
     55 H55         1.8038   50.7848   18.5181 H         1 UNK         0.0000 
     56 H56         2.6449   48.6448   17.3190 H         1 UNK         0.0000 
     57 H57         1.4994   46.1464   17.9984 H         1 UNK         0.0000 
     58 H58        -0.1307   47.7059   15.9921 H         1 UNK         0.0000 
     59 H59        -0.6873   47.0726   17.5269 H         1 UNK         0.0000 
     60 H60        -1.4060   45.6708   15.5866 H         1 UNK         0.0000 
     61 H61        -0.4515   44.7713   16.7337 H         1 UNK         0.0000 
     62 H62         0.5421   45.9303   14.0847 H         1 UNK         0.0000 
     63 H63         0.2962   44.2377   14.4428 H         1 UNK         0.0000 
     64 H64         2.7041   44.8926   14.6010 H         1 UNK         0.0000 
     65 H65         2.1076   44.2630   16.1159 H         1 UNK         0.0000 
     66 H66         3.4582   46.2536   16.5716 H         1 UNK         0.0000 
     67 H67         2.5780   47.1714   15.3722 H         1 UNK         0.0000 
     68 H68         0.4050   50.4709   20.6174 H         1 UNK         0.0000 
@<TRIPOS>BOND
     1    1    2 1    
     2    1   33 1    
     3    1   34 1    
     4    1   35 1    
     5    2    3 1    
     6    2   36 1    
     7    2   37 1    
     8    3    4 1    
     9    4   12 ar   
    10    4    5 ar   
    11    5    6 ar   
    12    6    7 ar   
    13    6   17 1    
    14    7   11 ar   
    15    7    8 1    
    16    8   16 1    
    17    8    9 2    
    18    9   10 1    
    19    9   13 1    
    20   10   11 1    
    21   11   12 ar   
    22   13   14 1    
    23   13   38 1    
    24   13   39 1    
    25   14   15 1    
    26   14   40 1    
    27   14   41 1    
    28   15   16 1    
    29   15   42 1    
    30   15   43 1    
    31   16   44 1    
    32   16   45 1    
    33   17   22 1    
    34   17   18 1    
    35   18   19 1    
    36   18   46 1    
    37   18   47 1    
    38   19   20 1    
    39   19   48 1    
    40   19   49 1    
    41   20   21 1    
    42   20   23 1    
    43   20   68 1    
    44   21   22 1    
    45   21   50 1    
    46   21   51 1    
    47   22   52 1    
    48   22   53 1    
    49   23   24 1    
    50   23   54 1    
    51   23   55 1    
    52   24   25 2    
    53   24   26 am   BACKBONE|DICT|INTERRES
    54   26   27 1    
    55   26   56 1    
    56   27   32 1    
    57   27   28 1    
    58   27   57 1    
    59   28   29 1    
    60   28   58 1    
    61   28   59 1    
    62   29   30 1    
    63   29   60 1    
    64   29   61 1    
    65   30   31 1    
    66   30   62 1    
    67   30   63 1    
    68   31   32 1    
    69   31   64 1    
    70   31   65 1    
    71   32   66 1    
    72   32   67 1    
@<TRIPOS>SUBSTRUCTURE
     1 UNK         1 GROUP             0       ****    0 ROOT    
