@<TRIPOS>MOLECULE
ZINC13260397_2593
40   42    1
SMALL
USER_CHARGES


@<TRIPOS>ATOM
      1 C1          1.1515   52.2132   27.7873 C.ar      1 UNK         0.0000 
      2 C2          1.8663   52.8533   26.7734 C.ar      1 UNK         0.0000 
      3 C3          1.3207   52.9738   25.4818 C.ar      1 UNK         0.0000 
      4 C4          0.0291   52.4791   25.2513 C.ar      1 UNK         0.0000 
      5 C5         -0.6918   51.8533   26.2700 C.ar      1 UNK         0.0000 
      6 C6         -0.1216   51.7048   27.5356 C.ar      1 UNK         0.0000 
      7 S7         -2.3475   51.2496   25.9639 S.o2      1 UNK         0.0000 
      8 O8         -3.0965   51.4333   27.2117 O.2       1 UNK         0.0000 
      9 O9         -2.8211   51.8525   24.7118 O.2       1 UNK         0.0000 
     10 N10        -2.1681   49.5213   25.7033 N.pl3     1 UNK         0.0000 
     11 C11        -1.8525   48.9551   24.3797 C.3       1 UNK         0.0000 
     12 C12        -0.4706   49.2569   23.8246 C.3       1 UNK         0.0000 
     13 C13        -0.7794   47.8883   24.3425 C.3       1 UNK         0.0000 
     14 C14         2.0723   53.6285   24.3453 C.2       1 UNK         0.0000 
     15 O15         1.4593   54.0433   23.3595 O.2       1 UNK         0.0000 
     16 N16         3.4125   53.6974   24.4869 N.am      1 UNK         0.0000 
     17 C17         4.3967   54.0968   23.5619 C.ar      1 UNK         0.0000 
     18 C18         4.1526   54.0451   22.1756 C.ar      1 UNK         0.0000 
     19 C19         5.1015   54.4935   21.2637 C.ar      1 UNK         0.0000 
     20 C20         6.3060   55.0040   21.7212 C.ar      1 UNK         0.0000 
     21 C21         6.5764   55.0219   23.0847 C.ar      1 UNK         0.0000 
     22 C22         5.6538   54.5626   24.0383 C.ar      1 UNK         0.0000 
     23 C23         6.0330   54.6438   25.5031 C.2       1 UNK         0.0000 
     24 O24         7.0981   55.2372   25.8028 O.co2     1 UNK         0.0000 
     25 Br25        7.5809   55.6968   20.4908 Br        1 UNK         0.0000 
     26 H26         1.5869   52.1097   28.7704 H         1 UNK         0.0000 
     27 H27         2.8506   53.2357   27.0096 H         1 UNK         0.0000 
     28 H28        -0.4215   52.5741   24.2723 H         1 UNK         0.0000 
     29 H29        -0.6685   51.2041   28.3232 H         1 UNK         0.0000 
     30 H30        -2.2623   48.8980   26.5169 H         1 UNK         0.0000 
     31 H31        -2.6909   48.8914   23.6847 H         1 UNK         0.0000 
     32 H32        -0.3688   49.4143   22.7519 H         1 UNK         0.0000 
     33 H33         0.2237   49.8713   24.3970 H         1 UNK         0.0000 
     34 H34        -0.3309   47.5694   25.2829 H         1 UNK         0.0000 
     35 H35        -0.8970   47.0656   23.6376 H         1 UNK         0.0000 
     36 H36         3.8071   53.5051   25.4033 H         1 UNK         0.0000 
     37 H37         3.2256   53.6630   21.7752 H         1 UNK         0.0000 
     38 H38         4.8895   54.4637   20.2045 H         1 UNK         0.0000 
     39 H39         7.5047   55.4527   23.4062 H         1 UNK         0.0000 
     40 O40         5.2725   54.1219   26.3525 O.co2     1 UNK         0.0000 
@<TRIPOS>BOND
     1    1    6 ar   
     2    1    2 ar   
     3    1   26 1    
     4    2    3 ar   
     5    2   27 1    
     6    3    4 ar   
     7    3   14 1    
     8    4    5 ar   
     9    4   28 1    
    10    5    6 ar   
    11    5    7 1    
    12    6   29 1    
    13    7    8 2    
    14    7    9 2    
    15    7   10 1    
    16   10   11 1    
    17   10   30 1    
    18   11   13 1    
    19   11   12 1    
    20   11   31 1    
    21   12   13 1    
    22   12   32 1    
    23   12   33 1    
    24   13   34 1    
    25   13   35 1    
    26   14   15 2    
    27   14   16 am   BACKBONE|DICT|INTERRES
    28   16   17 1    
    29   16   36 1    
    30   17   22 ar   
    31   17   18 ar   
    32   18   19 ar   
    33   18   37 1    
    34   19   20 ar   
    35   19   38 1    
    36   20   21 ar   
    37   20   25 1    
    38   21   22 ar   
    39   21   39 1    
    40   22   23 1    
    41   23   24 2    
    42   23   40 1    
@<TRIPOS>SUBSTRUCTURE
     1 UNK         1 GROUP             0       ****    0 ROOT    
