@<TRIPOS>MOLECULE
ZINC03226725_3402
57   61    1
SMALL
USER_CHARGES


@<TRIPOS>ATOM
      1 C1          1.1003   48.2481   19.8206 C.3       1 UNK         0.0000 
      2 C2          1.6387   49.4507   20.5724 C.ar      1 UNK         0.0000 
      3 C3          2.7064   50.2611   20.2460 C.ar      1 UNK         0.0000 
      4 C4          2.8546   51.2510   21.2169 C.ar      1 UNK         0.0000 
      5 C5          1.8467   51.0375   22.1692 C.ar      1 UNK         0.0000 
      6 N6          1.1286   49.9070   21.7818 N.pl3     1 UNK         0.0000 
      7 C7          0.0738   49.2976   22.5054 C.ar      1 UNK         0.0000 
      8 C8         -1.1623   49.0683   21.8911 C.ar      1 UNK         0.0000 
      9 C9         -2.1735   48.4181   22.5937 C.ar      1 UNK         0.0000 
     10 C10        -1.9516   48.0042   23.9053 C.ar      1 UNK         0.0000 
     11 C11        -0.7307   48.2486   24.5295 C.ar      1 UNK         0.0000 
     12 C12         0.2844   48.8966   23.8306 C.ar      1 UNK         0.0000 
     13 F13        -2.9292   47.3514   24.5729 F         1 UNK         0.0000 
     14 C14         1.5178   51.8215   23.4378 C.3       1 UNK         0.0000 
     15 C15         3.9387   52.1992   21.2527 C.2       1 UNK         0.0000 
     16 O16         5.0723   51.8841   20.8822 O.2       1 UNK         0.0000 
     17 N17         3.5937   53.4109   21.7298 N.am      1 UNK         0.0000 
     18 N18         4.4881   54.4967   21.6697 N.pl3     1 UNK         0.0000 
     19 C19         5.5766   54.5958   22.5439 C.2       1 UNK         0.0000 
     20 C20         6.7451   54.8969   21.9431 C.2       1 UNK         0.0000 
     21 C21         5.4446   54.4307   24.0321 C.ar      1 UNK         0.0000 
     22 C22         6.5713   54.3551   24.8669 C.ar      1 UNK         0.0000 
     23 C23         6.4459   54.2174   26.2474 C.ar      1 UNK         0.0000 
     24 C24         5.1872   54.1463   26.8360 C.ar      1 UNK         0.0000 
     25 C25         4.0445   54.1898   26.0250 C.ar      1 UNK         0.0000 
     26 C26         4.1824   54.3601   24.6464 C.ar      1 UNK         0.0000 
     27 N27         2.7516   54.0165   26.5521 N.pl3     1 UNK         0.0000 
     28 C28         2.4619   53.5485   27.8460 C.ar      1 UNK         0.0000 
     29 C29         1.1573   53.1325   28.1251 C.ar      1 UNK         0.0000 
     30 C30         0.8376   52.6098   29.3787 C.ar      1 UNK         0.0000 
     31 C31         1.8240   52.4947   30.3569 C.ar      1 UNK         0.0000 
     32 C32         3.1292   52.9007   30.0815 C.ar      1 UNK         0.0000 
     33 C33         3.4519   53.4511   28.8396 C.ar      1 UNK         0.0000 
     34 S34         5.0753   54.0954   28.5926 S.3       1 UNK         0.0000 
     35 H35         1.8322   47.8659   19.1074 H         1 UNK         0.0000 
     36 H36         0.8473   47.4206   20.4811 H         1 UNK         0.0000 
     37 H37         0.2053   48.4956   19.2505 H         1 UNK         0.0000 
     38 H38         3.3395   50.1386   19.3744 H         1 UNK         0.0000 
     39 H39        -1.3401   49.3814   20.8719 H         1 UNK         0.0000 
     40 H40        -3.1268   48.2277   22.1238 H         1 UNK         0.0000 
     41 H41        -0.5707   47.9289   25.5509 H         1 UNK         0.0000 
     42 H42         1.2368   49.0589   24.3163 H         1 UNK         0.0000 
     43 H43         2.2938   51.6994   24.1932 H         1 UNK         0.0000 
     44 H44         1.4397   52.8890   23.2394 H         1 UNK         0.0000 
     45 H45         0.5690   51.5495   23.9000 H         1 UNK         0.0000 
     46 H46         2.6255   53.6990   21.7265 H         1 UNK         0.0000 
     47 H47         4.7579   54.5644   20.6975 H         1 UNK         0.0000 
     48 H48         6.8153   55.0060   20.8697 H         1 UNK         0.0000 
     49 H49         7.6654   55.0474   22.4826 H         1 UNK         0.0000 
     50 H50         7.5670   54.3924   24.4601 H         1 UNK         0.0000 
     51 H51         7.3305   54.1759   26.8659 H         1 UNK         0.0000 
     52 H52         3.2876   54.4273   24.0486 H         1 UNK         0.0000 
     53 H53         1.9806   54.0804   25.9062 H         1 UNK         0.0000 
     54 H54         0.3885   53.1989   27.3691 H         1 UNK         0.0000 
     55 H55        -0.1718   52.2858   29.5902 H         1 UNK         0.0000 
     56 H56         1.5725   52.0950   31.3295 H         1 UNK         0.0000 
     57 H57         3.8876   52.8191   30.8473 H         1 UNK         0.0000 
@<TRIPOS>BOND
     1    1    2 1    
     2    1   35 1    
     3    1   36 1    
     4    1   37 1    
     5    2    6 ar   
     6    2    3 ar   
     7    3    4 ar   
     8    3   38 1    
     9    4    5 ar   
    10    4   15 1    
    11    5    6 ar   
    12    5   14 1    
    13    6    7 1    
    14    7   12 ar   
    15    7    8 ar   
    16    8    9 ar   
    17    8   39 1    
    18    9   10 ar   
    19    9   40 1    
    20   10   11 ar   
    21   10   13 1    
    22   11   12 ar   
    23   11   41 1    
    24   12   42 1    
    25   14   43 1    
    26   14   44 1    
    27   14   45 1    
    28   15   16 2    
    29   15   17 am   BACKBONE|DICT|INTERRES
    30   17   18 1    
    31   17   46 1    
    32   18   19 1    
    33   18   47 1    
    34   19   20 2    
    35   19   21 1    
    36   20   48 1    
    37   20   49 1    
    38   21   26 ar   
    39   21   22 ar   
    40   22   23 ar   
    41   22   50 1    
    42   23   24 ar   
    43   23   51 1    
    44   24   34 1    
    45   24   25 ar   
    46   25   26 ar   
    47   25   27 1    
    48   26   52 1    
    49   27   28 1    
    50   27   53 1    
    51   28   33 ar   
    52   28   29 ar   
    53   29   30 ar   
    54   29   54 1    
    55   30   31 ar   
    56   30   55 1    
    57   31   32 ar   
    58   31   56 1    
    59   32   33 ar   
    60   32   57 1    
    61   33   34 1    
@<TRIPOS>SUBSTRUCTURE
     1 UNK         1 GROUP             0       ****    0 ROOT    
