@<TRIPOS>MOLECULE
ZINC00718366_5123
59   63    1
SMALL
USER_CHARGES


@<TRIPOS>ATOM
      1 C1         -5.0157   54.1277   25.8530 C.3       1 UNK         0.0000 
      2 O2         -3.8216   53.5140   25.3865 O.3       1 UNK         0.0000 
      3 C3         -3.9003   52.3953   24.5755 C.ar      1 UNK         0.0000 
      4 C4         -5.1177   51.8667   24.1146 C.ar      1 UNK         0.0000 
      5 C5         -5.1440   50.7574   23.2802 C.ar      1 UNK         0.0000 
      6 C6         -3.9540   50.1706   22.8721 C.ar      1 UNK         0.0000 
      7 C7         -2.7237   50.6602   23.3247 C.ar      1 UNK         0.0000 
      8 C8         -2.6960   51.7696   24.1975 C.ar      1 UNK         0.0000 
      9 O9         -1.4856   52.2457   24.6663 O.3       1 UNK         0.0000 
     10 C10        -1.2473   52.0456   26.0660 C.3       1 UNK         0.0000 
     11 C11         0.1562   52.4830   26.4904 C.ar      1 UNK         0.0000 
     12 C12         0.4921   52.4111   27.8454 C.ar      1 UNK         0.0000 
     13 C13         1.7512   52.8211   28.2768 C.ar      1 UNK         0.0000 
     14 C14         2.6777   53.2968   27.3524 C.ar      1 UNK         0.0000 
     15 C15         2.3600   53.3516   25.9977 C.ar      1 UNK         0.0000 
     16 C16         1.1026   52.9395   25.5659 C.ar      1 UNK         0.0000 
     17 F17         3.8961   53.7045   27.7738 F         1 UNK         0.0000 
     18 C18        -1.4480   49.8994   22.9322 C.3       1 UNK         0.0000 
     19 H19        -1.7630   49.1870   22.1667 H         1 UNK         0.0000 
     20 C20        -0.9228   49.0950   24.1228 C.2       1 UNK         0.0000 
     21 C21         0.2779   49.3779   24.6557 C.2       1 UNK         0.0000 
     22 O22         1.1843   50.1977   24.0766 O.3       1 UNK         0.0000 
     23 C23         0.9166   50.7757   22.8778 C.2       1 UNK         0.0000 
     24 C24        -0.3054   50.7271   22.2848 C.2       1 UNK         0.0000 
     25 C25        -0.5692   51.5042   21.0548 C.2       1 UNK         0.0000 
     26 O26        -1.7048   51.6488   20.6001 O.2       1 UNK         0.0000 
     27 C27         0.6123   52.2929   20.4556 C.3       1 UNK         0.0000 
     28 C28         1.9964   51.6952   20.7980 C.3       1 UNK         0.0000 
     29 H29         2.0278   50.7077   20.3306 H         1 UNK         0.0000 
     30 C30         2.1426   51.4880   22.3214 C.3       1 UNK         0.0000 
     31 C31         3.1407   52.4969   20.2055 C.2       1 UNK         0.0000 
     32 C32         4.2648   53.1281   20.7297 C.2       1 UNK         0.0000 
     33 C33         4.9517   53.7012   19.6587 C.2       1 UNK         0.0000 
     34 C34         4.2217   53.3916   18.5244 C.2       1 UNK         0.0000 
     35 O35         3.1255   52.6630   18.8567 O.3       1 UNK         0.0000 
     36 N36         0.8072   48.8967   25.8132 N.pl3     1 UNK         0.0000 
     37 C37        -1.7559   48.0788   24.6834 C.1       1 UNK         0.0000 
     38 N38        -2.4184   47.2053   25.0545 N.1       1 UNK         0.0000 
     39 H39        -4.7594   54.9783   26.4823 H         1 UNK         0.0000 
     40 H40        -5.6247   54.4972   25.0287 H         1 UNK         0.0000 
     41 H41        -5.6088   53.4378   26.4547 H         1 UNK         0.0000 
     42 H42        -6.0631   52.3107   24.3858 H         1 UNK         0.0000 
     43 H43        -6.0885   50.3647   22.9328 H         1 UNK         0.0000 
     44 H44        -3.9976   49.3088   22.2219 H         1 UNK         0.0000 
     45 H45        -1.9622   52.6113   26.6632 H         1 UNK         0.0000 
     46 H46        -1.3779   50.9934   26.3264 H         1 UNK         0.0000 
     47 H47        -0.2242   52.0425   28.5665 H         1 UNK         0.0000 
     48 H48         2.0082   52.7742   29.3237 H         1 UNK         0.0000 
     49 H49         3.0869   53.7164   25.2880 H         1 UNK         0.0000 
     50 H50         0.8498   53.0092   24.5201 H         1 UNK         0.0000 
     51 H51         0.5718   53.2957   20.8802 H         1 UNK         0.0000 
     52 H52         0.4650   52.4103   19.3811 H         1 UNK         0.0000 
     53 H53         3.0202   50.8600   22.4814 H         1 UNK         0.0000 
     54 H54         2.3094   52.4141   22.8704 H         1 UNK         0.0000 
     55 H55         4.5524   53.1684   21.7695 H         1 UNK         0.0000 
     56 H56         5.8722   54.2646   19.7003 H         1 UNK         0.0000 
     57 H57         4.3539   53.5946   17.4719 H         1 UNK         0.0000 
     58 H58         0.2416   48.3216   26.4286 H         1 UNK         0.0000 
     59 H59         1.8039   48.7460   25.8659 H         1 UNK         0.0000 
@<TRIPOS>BOND
     1    1    2 1    
     2    1   39 1    
     3    1   40 1    
     4    1   41 1    
     5    2    3 1    
     6    3    8 ar   
     7    3    4 ar   
     8    4    5 ar   
     9    4   42 1    
    10    5    6 ar   
    11    5   43 1    
    12    6    7 ar   
    13    6   44 1    
    14    7    8 ar   
    15    7   18 1    
    16    8    9 1    
    17    9   10 1    
    18   10   11 1    
    19   10   45 1    
    20   10   46 1    
    21   11   16 ar   
    22   11   12 ar   
    23   12   13 ar   
    24   12   47 1    
    25   13   14 ar   
    26   13   48 1    
    27   14   15 ar   
    28   14   17 1    
    29   15   16 ar   
    30   15   49 1    
    31   16   50 1    
    32   18   19 1    
    33   18   24 1    
    34   18   20 1    
    35   20   21 2    
    36   20   37 1    
    37   21   22 1    
    38   21   36 1    
    39   22   23 1    
    40   23   30 1    
    41   23   24 2    
    42   24   25 1    
    43   25   26 2    
    44   25   27 1    
    45   27   28 1    
    46   27   51 1    
    47   27   52 1    
    48   28   29 1    
    49   28   30 1    
    50   28   31 1    
    51   30   53 1    
    52   30   54 1    
    53   31   35 1    
    54   31   32 2    
    55   32   33 1    
    56   32   55 1    
    57   33   34 2    
    58   33   56 1    
    59   34   35 1    
    60   34   57 1    
    61   36   58 1    
    62   36   59 1    
    63   37   38 3    
@<TRIPOS>SUBSTRUCTURE
     1 UNK         1 GROUP             0       ****    0 ROOT    
