@<TRIPOS>MOLECULE
ZINC37352982_3770
35   37    1
SMALL
USER_CHARGES


@<TRIPOS>ATOM
      1 C1          6.9209   55.0019   26.3084 C.3       1 UNK         0.0000 
      2 C2          5.4652   54.6109   26.4017 C.ar      1 UNK         0.0000 
      3 C3          4.7002   54.4082   27.5476 C.ar      1 UNK         0.0000 
      4 N4          3.3882   54.1068   27.1956 N.pl3     1 UNK         0.0000 
      5 C5          3.3183   54.0216   25.8132 C.ar      1 UNK         0.0000 
      6 C6          4.6047   54.3215   25.2917 C.ar      1 UNK         0.0000 
      7 C7          4.7174   54.2502   23.8891 C.ar      1 UNK         0.0000 
      8 N8          3.6569   53.9351   23.1087 N.ar      1 UNK         0.0000 
      9 C9          2.4870   53.6761   23.7413 C.ar      1 UNK         0.0000 
     10 N10         2.2437   53.6965   25.0764 N.ar      1 UNK         0.0000 
     11 C11         1.3230   53.2973   22.8512 C.3       1 UNK         0.0000 
     12 N12         5.9188   54.4943   23.2328 N.pl3     1 UNK         0.0000 
     13 C13         2.3378   53.8128   28.0971 C.ar      1 UNK         0.0000 
     14 C14         1.8023   52.5193   28.0765 C.ar      1 UNK         0.0000 
     15 C15         0.8347   52.1442   29.0023 C.ar      1 UNK         0.0000 
     16 C16         0.4007   53.0583   29.9551 C.ar      1 UNK         0.0000 
     17 C17         0.8836   54.3625   29.9530 C.ar      1 UNK         0.0000 
     18 C18         1.8347   54.7567   29.0135 C.ar      1 UNK         0.0000 
     19 Cl19        2.3044   56.4192   29.0011 Cl        1 UNK         0.0000 
     20 F20        -0.4956   52.6800   30.8815 F         1 UNK         0.0000 
     21 C21         5.1340   54.4339   29.0027 C.3       1 UNK         0.0000 
     22 H22         7.3661   55.2023   27.2815 H         1 UNK         0.0000 
     23 H23         7.5043   54.2110   25.8410 H         1 UNK         0.0000 
     24 H24         7.0492   55.9012   25.7054 H         1 UNK         0.0000 
     25 H25         0.4063   53.1302   23.4187 H         1 UNK         0.0000 
     26 H26         1.1375   54.0904   22.1288 H         1 UNK         0.0000 
     27 H27         1.5551   52.3897   22.2953 H         1 UNK         0.0000 
     28 H28         6.7641   54.6335   23.7661 H         1 UNK         0.0000 
     29 H29         5.9367   54.4048   22.2284 H         1 UNK         0.0000 
     30 H30         2.1400   51.7946   27.3532 H         1 UNK         0.0000 
     31 H31         0.4242   51.1455   28.9889 H         1 UNK         0.0000 
     32 H32         0.5085   55.0684   30.6790 H         1 UNK         0.0000 
     33 H33         6.2178   54.4453   29.1115 H         1 UNK         0.0000 
     34 H34         4.7611   55.2991   29.5417 H         1 UNK         0.0000 
     35 H35         4.7771   53.5519   29.5358 H         1 UNK         0.0000 
@<TRIPOS>BOND
     1    1    2 1    
     2    1   22 1    
     3    1   23 1    
     4    1   24 1    
     5    2    6 ar   
     6    2    3 ar   
     7    3    4 ar   
     8    3   21 1    
     9    4    5 ar   
    10    4   13 1    
    11    5   10 ar   
    12    5    6 ar   
    13    6    7 ar   
    14    7    8 ar   
    15    7   12 1    
    16    8    9 ar   
    17    9   10 ar   
    18    9   11 1    
    19   11   25 1    
    20   11   26 1    
    21   11   27 1    
    22   12   28 1    
    23   12   29 1    
    24   13   18 ar   
    25   13   14 ar   
    26   14   15 ar   
    27   14   30 1    
    28   15   16 ar   
    29   15   31 1    
    30   16   17 ar   
    31   16   20 1    
    32   17   18 ar   
    33   17   32 1    
    34   18   19 1    
    35   21   33 1    
    36   21   34 1    
    37   21   35 1    
@<TRIPOS>SUBSTRUCTURE
     1 UNK         1 GROUP             0       ****    0 ROOT    
