@<TRIPOS>MOLECULE
ZINC20724283_4125
70   73    1
SMALL
USER_CHARGES


@<TRIPOS>ATOM
      1 C1          1.4245   52.2035   29.0826 C.3       1 UNK         0.0000 
      2 C2          2.6509   52.8921   28.5030 C.ar      1 UNK         0.0000 
      3 C3          2.6387   53.2970   27.1647 C.ar      1 UNK         0.0000 
      4 C4          3.7642   53.8844   26.5774 C.ar      1 UNK         0.0000 
      5 C5          4.8871   54.1427   27.3735 C.ar      1 UNK         0.0000 
      6 C6          4.9018   53.7531   28.7083 C.ar      1 UNK         0.0000 
      7 C7          3.8025   53.1050   29.2748 C.ar      1 UNK         0.0000 
      8 Cl8         3.9035   52.5477   30.9087 Cl        1 UNK         0.0000 
      9 N9          3.6677   54.0962   25.1902 N.pl3     1 UNK         0.0000 
     10 C10         4.5583   54.2773   24.1698 C.2       1 UNK         0.0000 
     11 S11         6.2185   54.4969   24.3059 S.2       1 UNK         0.0000 
     12 N12         3.8918   54.1406   22.9853 N.pl3     1 UNK         0.0000 
     13 C13         4.3327   53.9846   21.6575 C.ar      1 UNK         0.0000 
     14 C14         5.2466   54.8794   21.0881 C.ar      1 UNK         0.0000 
     15 C15         5.7137   54.6881   19.7883 C.ar      1 UNK         0.0000 
     16 C16         5.2492   53.6028   19.0472 C.ar      1 UNK         0.0000 
     17 C17         4.2982   52.7428   19.5901 C.ar      1 UNK         0.0000 
     18 C18         3.8366   52.8982   20.9028 C.ar      1 UNK         0.0000 
     19 N19         2.9004   52.0105   21.4350 N.pl3     1 UNK         0.0000 
     20 C20         1.5352   52.5058   21.6984 C.3       1 UNK         0.0000 
     21 C21         0.8213   51.6559   22.7726 C.3       1 UNK         0.0000 
     22 C22         0.7301   50.1824   22.3449 C.3       1 UNK         0.0000 
     23 C23         2.1599   49.7018   22.0519 C.3       1 UNK         0.0000 
     24 C24         2.8508   50.5999   21.0007 C.3       1 UNK         0.0000 
     25 C25         0.0167   49.3088   23.3911 C.3       1 UNK         0.0000 
     26 S26         6.9577   55.7877   19.1148 S.o2      1 UNK         0.0000 
     27 O27         7.1045   56.8844   20.0821 O.2       1 UNK         0.0000 
     28 O28         8.0871   54.9235   18.7571 O.2       1 UNK         0.0000 
     29 N29         6.2807   56.4640   17.6183 N.pl3     1 UNK         0.0000 
     30 C30         5.4426   57.6853   17.6698 C.3       1 UNK         0.0000 
     31 C31         3.9809   57.3670   17.3009 C.3       1 UNK         0.0000 
     32 C32         3.9016   56.6661   15.9259 C.3       1 UNK         0.0000 
     33 C33         4.7407   55.3681   15.9699 C.3       1 UNK         0.0000 
     34 C34         6.2065   55.6494   16.3778 C.3       1 UNK         0.0000 
     35 C35         2.4467   56.3969   15.5077 C.3       1 UNK         0.0000 
     36 H36         0.5714   52.2259   28.3991 H         1 UNK         0.0000 
     37 H37         1.1161   52.6901   30.0109 H         1 UNK         0.0000 
     38 H38         1.6507   51.1619   29.3119 H         1 UNK         0.0000 
     39 H39         1.7612   53.0957   26.5649 H         1 UNK         0.0000 
     40 H40         5.7691   54.6299   26.9982 H         1 UNK         0.0000 
     41 H41         5.7944   53.9448   29.2816 H         1 UNK         0.0000 
     42 H42         2.7184   53.9628   24.8776 H         1 UNK         0.0000 
     43 H43         2.9205   53.8835   23.0820 H         1 UNK         0.0000 
     44 H44         5.6263   55.6996   21.6737 H         1 UNK         0.0000 
     45 H45         5.6205   53.4125   18.0524 H         1 UNK         0.0000 
     46 H46         3.9291   51.9324   18.9775 H         1 UNK         0.0000 
     47 H47         1.5504   53.5442   22.0302 H         1 UNK         0.0000 
     48 H48         0.9748   52.4954   20.7616 H         1 UNK         0.0000 
     49 H49         1.3328   51.7561   23.7323 H         1 UNK         0.0000 
     50 H50        -0.1807   52.0479   22.9599 H         1 UNK         0.0000 
     51 H51         0.1680   50.1445   21.4098 H         1 UNK         0.0000 
     52 H52         2.1406   48.6672   21.7101 H         1 UNK         0.0000 
     53 H53         2.7571   49.6681   22.9651 H         1 UNK         0.0000 
     54 H54         2.3487   50.5277   20.0348 H         1 UNK         0.0000 
     55 H55         3.8707   50.2397   20.8575 H         1 UNK         0.0000 
     56 H56         0.5725   49.2747   24.3300 H         1 UNK         0.0000 
     57 H57        -0.9803   49.6900   23.6115 H         1 UNK         0.0000 
     58 H58        -0.0968   48.2834   23.0391 H         1 UNK         0.0000 
     59 H59         5.5044   58.0987   18.6739 H         1 UNK         0.0000 
     60 H60         5.8806   58.4362   17.0095 H         1 UNK         0.0000 
     61 H61         3.5179   56.7500   18.0754 H         1 UNK         0.0000 
     62 H62         3.3910   58.2849   17.2820 H         1 UNK         0.0000 
     63 H63         4.3586   57.3317   15.1904 H         1 UNK         0.0000 
     64 H64         4.7059   54.8613   15.0042 H         1 UNK         0.0000 
     65 H65         4.2806   54.6632   16.6617 H         1 UNK         0.0000 
     66 H66         6.7515   56.1769   15.5936 H         1 UNK         0.0000 
     67 H67         6.7410   54.7126   16.5357 H         1 UNK         0.0000 
     68 H68         1.9391   55.7447   16.2185 H         1 UNK         0.0000 
     69 H69         1.8777   57.3257   15.4472 H         1 UNK         0.0000 
     70 H70         2.3981   55.9214   14.5281 H         1 UNK         0.0000 
@<TRIPOS>BOND
     1    1    2 1    
     2    1   36 1    
     3    1   37 1    
     4    1   38 1    
     5    2    7 ar   
     6    2    3 ar   
     7    3    4 ar   
     8    3   39 1    
     9    4    5 ar   
    10    4    9 1    
    11    5    6 ar   
    12    5   40 1    
    13    6    7 ar   
    14    6   41 1    
    15    7    8 1    
    16    9   10 1    
    17    9   42 1    
    18   10   11 2    
    19   10   12 1    
    20   12   13 1    
    21   12   43 1    
    22   13   18 ar   
    23   13   14 ar   
    24   14   15 ar   
    25   14   44 1    
    26   15   16 ar   
    27   15   26 1    
    28   16   17 ar   
    29   16   45 1    
    30   17   18 ar   
    31   17   46 1    
    32   18   19 1    
    33   19   24 1    
    34   19   20 1    
    35   20   21 1    
    36   20   47 1    
    37   20   48 1    
    38   21   22 1    
    39   21   49 1    
    40   21   50 1    
    41   22   23 1    
    42   22   25 1    
    43   22   51 1    
    44   23   24 1    
    45   23   52 1    
    46   23   53 1    
    47   24   54 1    
    48   24   55 1    
    49   25   56 1    
    50   25   57 1    
    51   25   58 1    
    52   26   27 2    
    53   26   28 2    
    54   26   29 1    
    55   29   34 1    
    56   29   30 1    
    57   30   31 1    
    58   30   59 1    
    59   30   60 1    
    60   31   32 1    
    61   31   61 1    
    62   31   62 1    
    63   32   33 1    
    64   32   35 1    
    65   32   63 1    
    66   33   34 1    
    67   33   64 1    
    68   33   65 1    
    69   34   66 1    
    70   34   67 1    
    71   35   68 1    
    72   35   69 1    
    73   35   70 1    
@<TRIPOS>SUBSTRUCTURE
     1 UNK         1 GROUP             0       ****    0 ROOT    
