@<TRIPOS>MOLECULE
ZINC32609573_4233
59   62    1
SMALL
USER_CHARGES


@<TRIPOS>ATOM
      1 C1         -0.0184   51.6369   29.6087 C.3       1 UNK         0.0000 
      2 C2         -0.8945   51.7581   28.3821 C.ar      1 UNK         0.0000 
      3 C3         -2.2135   51.2967   28.4002 C.ar      1 UNK         0.0000 
      4 C4         -3.0233   51.4832   27.2820 C.ar      1 UNK         0.0000 
      5 C5         -2.4868   52.0522   26.1259 C.ar      1 UNK         0.0000 
      6 C6         -1.1665   52.4960   26.1073 C.ar      1 UNK         0.0000 
      7 C7         -0.3728   52.3616   27.2401 C.ar      1 UNK         0.0000 
      8 S8         -3.4299   52.1202   24.6100 S.o2      1 UNK         0.0000 
      9 O9         -4.7395   51.4994   24.8380 O.2       1 UNK         0.0000 
     10 O10        -3.3018   53.4783   24.0683 O.2       1 UNK         0.0000 
     11 C11        -2.4805   51.0214   23.5324 C.2       1 UNK         0.0000 
     12 C12        -2.4830   49.6253   23.5612 C.2       1 UNK         0.0000 
     13 S13        -1.2912   49.0228   22.4464 S.3       1 UNK         0.0000 
     14 C14        -0.8722   50.6754   22.1179 C.2       1 UNK         0.0000 
     15 N15        -1.6175   51.5733   22.7064 N.2       1 UNK         0.0000 
     16 S16         0.5460   51.1363   21.1080 S.o2      1 UNK         0.0000 
     17 O17         1.2536   49.8970   20.7699 O.2       1 UNK         0.0000 
     18 O18         0.0275   52.0356   20.0715 O.2       1 UNK         0.0000 
     19 C19         1.6269   52.1023   22.1681 C.ar      1 UNK         0.0000 
     20 C20         1.4925   52.0805   23.5591 C.ar      1 UNK         0.0000 
     21 C21         2.3000   52.8963   24.3465 C.ar      1 UNK         0.0000 
     22 C22         3.2754   53.6966   23.7532 C.ar      1 UNK         0.0000 
     23 C23         3.4314   53.6961   22.3654 C.ar      1 UNK         0.0000 
     24 C24         2.6074   52.8969   21.5743 C.ar      1 UNK         0.0000 
     25 C25         4.1976   54.5133   24.6373 C.3       1 UNK         0.0000 
     26 N26        -3.2284   48.7909   24.3325 N.pl3     1 UNK         0.0000 
     27 C27        -2.8064   48.5546   25.7167 C.3       1 UNK         0.0000 
     28 C28        -4.0414   48.3528   26.6160 C.3       1 UNK         0.0000 
     29 C29        -4.9021   47.1458   26.1923 C.3       1 UNK         0.0000 
     30 C30        -5.1727   47.2564   24.6651 C.3       1 UNK         0.0000 
     31 C31        -3.9377   47.6190   23.7988 C.3       1 UNK         0.0000 
     32 C32        -4.1889   45.8213   26.5630 C.2       1 UNK         0.0000 
     33 O33        -4.0960   44.8970   25.7602 O.2       1 UNK         0.0000 
     34 N34        -3.6956   45.6967   27.7949 N.am      1 UNK         0.0000 
     35 H35         0.4274   52.6005   29.8569 H         1 UNK         0.0000 
     36 H36         0.7922   50.9387   29.3941 H         1 UNK         0.0000 
     37 H37        -0.5805   51.2968   30.4800 H         1 UNK         0.0000 
     38 H38        -2.6112   50.8130   29.2820 H         1 UNK         0.0000 
     39 H39        -4.0497   51.1541   27.3082 H         1 UNK         0.0000 
     40 H40        -0.7536   52.9353   25.2120 H         1 UNK         0.0000 
     41 H41         0.6471   52.7156   27.2284 H         1 UNK         0.0000 
     42 H42         0.7687   51.4400   24.0400 H         1 UNK         0.0000 
     43 H43         2.1954   52.8765   25.4208 H         1 UNK         0.0000 
     44 H44         4.1858   54.3106   21.8959 H         1 UNK         0.0000 
     45 H45         2.7146   52.9152   20.4982 H         1 UNK         0.0000 
     46 H46         3.6382   55.2962   25.1485 H         1 UNK         0.0000 
     47 H47         4.6360   53.8741   25.4048 H         1 UNK         0.0000 
     48 H48         5.0194   54.9611   24.0789 H         1 UNK         0.0000 
     49 H49        -2.1595   47.6755   25.7331 H         1 UNK         0.0000 
     50 H50        -2.1832   49.3637   26.0919 H         1 UNK         0.0000 
     51 H51        -3.7869   48.3294   27.6772 H         1 UNK         0.0000 
     52 H52        -4.6900   49.2273   26.5984 H         1 UNK         0.0000 
     53 H53        -5.8328   47.0834   26.7579 H         1 UNK         0.0000 
     54 H54        -5.9938   47.9538   24.4928 H         1 UNK         0.0000 
     55 H55        -5.6689   46.3536   24.3041 H         1 UNK         0.0000 
     56 H56        -4.2801   47.8535   22.7898 H         1 UNK         0.0000 
     57 H57        -3.2474   46.7791   23.7090 H         1 UNK         0.0000 
     58 H58        -3.2956   44.7926   28.0819 H         1 UNK         0.0000 
     59 H59        -3.5430   46.5122   28.3727 H         1 UNK         0.0000 
@<TRIPOS>BOND
     1    1    2 1    
     2    1   35 1    
     3    1   36 1    
     4    1   37 1    
     5    2    7 ar   
     6    2    3 ar   
     7    3    4 ar   
     8    3   38 1    
     9    4    5 ar   
    10    4   39 1    
    11    5    6 ar   
    12    5    8 1    
    13    6    7 ar   
    14    6   40 1    
    15    7   41 1    
    16    8    9 2    
    17    8   10 2    
    18    8   11 1    
    19   11   15 1    
    20   11   12 2    
    21   12   13 1    
    22   12   26 1    
    23   13   14 1    
    24   14   15 2    
    25   14   16 1    
    26   16   17 2    
    27   16   18 2    
    28   16   19 1    
    29   19   24 ar   
    30   19   20 ar   
    31   20   21 ar   
    32   20   42 1    
    33   21   22 ar   
    34   21   43 1    
    35   22   23 ar   
    36   22   25 1    
    37   23   24 ar   
    38   23   44 1    
    39   24   45 1    
    40   25   46 1    
    41   25   47 1    
    42   25   48 1    
    43   26   31 1    
    44   26   27 1    
    45   27   28 1    
    46   27   49 1    
    47   27   50 1    
    48   28   29 1    
    49   28   51 1    
    50   28   52 1    
    51   29   30 1    
    52   29   32 1    
    53   29   53 1    
    54   30   31 1    
    55   30   54 1    
    56   30   55 1    
    57   31   56 1    
    58   31   57 1    
    59   32   33 2    
    60   32   34 am   BACKBONE|DICT|INTERRES
    61   34   58 1    
    62   34   59 1    
@<TRIPOS>SUBSTRUCTURE
     1 UNK         1 GROUP             0       ****    0 ROOT    
