ZINC14668662_2862
                    3D
 Schrodinger Suite 2024-2.
 51 52  0  0  1  0            999 V2000
    3.4740   53.8601   26.6877 C   0  0  0  0  0  0
    2.4846   53.9072   27.8429 C   0  0  0  0  0  0
    2.4617   55.0350   28.6611 C   0  0  0  0  0  0
    1.5567   55.1265   29.7115 C   0  0  0  0  0  0
    0.6996   54.0666   29.9997 C   0  0  0  0  0  0
    0.7242   52.9257   29.1985 C   0  0  0  0  0  0
    1.5913   52.8531   28.1043 C   0  0  0  0  0  0
    1.5043   51.7577   27.2844 O   0  0  0  0  0  0
    0.8789   52.0344   26.0304 C   0  0  0  0  0  0
   -0.2039   50.9941   25.7368 C   0  0  0  0  0  0
   -1.2242   51.3595   25.1448 O   0  0  0  0  0  0
    0.0607   49.7110   26.0761 N   0  0  0  0  0  0
   -0.8120   48.6810   25.6807 N   0  0  0  0  0  0
   -0.9401   48.2208   24.3959 C   0  0  0  0  0  0
   -2.0953   47.0416   24.1289 S   0  0  0  0  0  0
   -0.0976   48.7943   23.4714 N   0  0  0  0  0  0
   -0.1384   48.8968   22.1201 C   0  0  0  0  0  0
   -1.0041   48.4101   21.3886 O   0  0  0  0  0  0
    0.9990   49.7074   21.5342 C   0  0  0  0  0  0
    1.4048   50.8932   22.1699 C   0  0  0  0  0  0
    2.4502   51.6611   21.6655 C   0  0  0  0  0  0
    3.1046   51.2592   20.5063 C   0  0  0  0  0  0
    2.7028   50.0968   19.8530 C   0  0  0  0  0  0
    1.6448   49.3120   20.3428 C   0  0  0  0  0  0
    1.2284   48.1429   19.7271 O   0  0  0  0  0  0
    1.6639   47.7857   18.4145 C   0  0  0  0  0  0
    1.1511   46.3577   18.1934 C   0  0  0  0  0  0
    1.0984   48.7420   17.3449 C   0  0  0  0  0  0
    2.9757   53.2523   22.5684 Br  0  0  0  0  0  0
    1.5023   56.5732   30.6305 Cl  0  0  0  0  0  0
    3.9721   52.8945   26.6540 H   0  0  0  0  0  0
    2.9656   54.0131   25.7366 H   0  0  0  0  0  0
    4.2596   54.6093   26.7913 H   0  0  0  0  0  0
    3.1323   55.8583   28.4820 H   0  0  0  0  0  0
    0.0076   54.1320   30.8262 H   0  0  0  0  0  0
    0.0448   52.1095   29.4023 H   0  0  0  0  0  0
    0.4294   53.0285   25.9721 H   0  0  0  0  0  0
    1.6219   51.9929   25.2358 H   0  0  0  0  0  0
    0.9163   49.3789   26.4958 H   0  0  0  0  0  0
   -1.5165   48.4953   26.3891 H   0  0  0  0  0  0
    0.7094   49.2414   23.8750 H   0  0  0  0  0  0
    0.9021   51.2425   23.0598 H   0  0  0  0  0  0
    3.9157   51.8478   20.1033 H   0  0  0  0  0  0
    3.2336   49.8186   18.9550 H   0  0  0  0  0  0
    2.7535   47.7597   18.3695 H   0  0  0  0  0  0
    1.4949   45.9547   17.2419 H   0  0  0  0  0  0
    1.5038   45.6970   18.9855 H   0  0  0  0  0  0
    0.0619   46.3219   18.2011 H   0  0  0  0  0  0
    1.4058   48.4346   16.3448 H   0  0  0  0  0  0
    0.0089   48.7632   17.3726 H   0  0  0  0  0  0
    1.4486   49.7656   17.4769 H   0  0  0  0  0  0
  1  2  1  0  0  0
  1 31  1  0  0  0
  1 32  1  0  0  0
  1 33  1  0  0  0
  2  7  2  0  0  0
  2  3  1  0  0  0
  3  4  2  0  0  0
  3 34  1  0  0  0
  4  5  1  0  0  0
  4 30  1  0  0  0
  5  6  2  0  0  0
  5 35  1  0  0  0
  6  7  1  0  0  0
  6 36  1  0  0  0
  7  8  1  0  0  0
  8  9  1  0  0  0
  9 10  1  0  0  0
  9 37  1  0  0  0
  9 38  1  0  0  0
 10 11  2  0  0  0
 10 12  1  0  0  0
 12 13  1  0  0  0
 12 39  1  0  0  0
 13 14  1  0  0  0
 13 40  1  0  0  0
 14 15  2  0  0  0
 14 16  1  0  0  0
 16 17  1  0  0  0
 16 41  1  0  0  0
 17 18  2  0  0  0
 17 19  1  0  0  0
 19 24  2  0  0  0
 19 20  1  0  0  0
 20 21  2  0  0  0
 20 42  1  0  0  0
 21 22  1  0  0  0
 21 29  1  0  0  0
 22 23  2  0  0  0
 22 43  1  0  0  0
 23 24  1  0  0  0
 23 44  1  0  0  0
 24 25  1  0  0  0
 25 26  1  0  0  0
 26 27  1  0  0  0
 26 28  1  0  0  0
 26 45  1  0  0  0
 27 46  1  0  0  0
 27 47  1  0  0  0
 27 48  1  0  0  0
 28 49  1  0  0  0
 28 50  1  0  0  0
 28 51  1  0  0  0
M  END
> <i_i_glide_confnum>
155

> <i_i_glide_lignum>
2863

> <i_i_glide_posenum>
353

> <i_i_glide_rotatable_bonds>
11

> <i_m_Source_File_Index>
2961

> <b_m_subgroup_collapsed>
0

> <r_i_docking_score>
-4.80463

> <r_i_glide_ecoul>
-5.80225

> <r_i_glide_eff_state_penalty>
0

> <r_i_glide_einternal>
12.8132

> <r_i_glide_emodel>
-54.4943

> <r_i_glide_energy>
-46.1999

> <r_i_glide_erotb>
0.774036

> <r_i_glide_esite>
-0.288824

> <r_i_glide_evdw>
-40.3976

> <r_i_glide_gscore>
-4.80463

> <r_i_glide_hbond>
-0.107979

> <r_i_glide_ligand_efficiency>
-0.160154

> <r_i_glide_ligand_efficiency_ln>
-1.09166

> <r_i_glide_ligand_efficiency_sa>
-0.497637

> <r_i_glide_lipo>
-2.26685

> <r_i_glide_metal>
0

> <r_i_glide_rewards>
-0.02479

> <s_i_glide_gridfile>
wee1_glide-grid

> <s_m_Source_File>
wee1_decoys_glide_SP.sdf

> <s_m_Source_Path>
/Users/zhangxujun/Desktop

> <s_m_entry_id>
3236

> <s_m_entry_name>
wee1_decoys_glide_SP.2961

> <s_m_subgroup_title>
wee1_decoys_glide_SP

> <s_m_subgroupid>
wee1_decoys_glide_SP


$$$$
