ZINC33432030_4864
                    3D
 Schrodinger Suite 2024-2.
 56 59  0  0  1  0            999 V2000
    6.0696   59.2980   15.5528 C   0  0  0  0  0  0
    4.9861   58.6629   16.4356 C   0  0  0  0  0  0
    5.4583   57.3050   17.0129 N   0  3  0  0  0  0
    6.6234   57.4612   18.0123 C   0  0  0  0  0  0
    7.0194   56.0627   18.5293 C   0  0  0  0  0  0
    5.9113   55.3546   19.1972 N   0  0  0  0  0  0
    4.7430   55.2512   18.2957 C   0  0  0  0  0  0
    4.2802   56.6051   17.7169 C   0  0  0  0  0  0
    5.8728   55.0341   20.5581 C   0  0  0  0  0  0
    4.9618   54.0798   21.0407 C   0  0  0  0  0  0
    4.9113   53.7499   22.3908 C   0  0  0  0  0  0
    5.7756   54.3621   23.2980 C   0  0  0  0  0  0
    6.7044   55.2964   22.8298 C   0  0  0  0  0  0
    6.7480   55.6289   21.4779 C   0  0  0  0  0  0
    5.6970   53.9336   24.6342 N   0  0  0  0  0  0
    6.1981   54.4974   25.7511 C   0  0  0  0  0  0
    6.7042   55.6184   25.7988 O   0  0  0  0  0  0
    6.1367   53.6305   27.0158 C   0  0  0  0  0  0
    5.5043   54.4966   28.4808 S   0  0  0  0  0  0
    4.0247   53.5937   28.7564 C   0  0  0  0  0  0
    3.5258   53.1842   29.8952 N   0  0  0  0  0  0
    2.3038   52.5963   29.5846 N   0  0  0  0  0  0
    2.1534   52.7278   28.2865 C   0  0  0  0  0  0
    3.2093   53.3520   27.7014 O   0  0  0  0  0  0
    1.0020   52.2998   27.4393 C   0  0  0  0  0  0
    1.0394   52.4971   26.0543 C   0  0  0  0  0  0
   -0.0333   52.0987   25.2603 C   0  0  0  0  0  0
   -1.1476   51.5052   25.8493 C   0  0  0  0  0  0
   -1.1909   51.2970   27.2272 C   0  0  0  0  0  0
   -0.1194   51.6969   28.0215 C   0  0  0  0  0  0
   -2.6143   50.9741   24.7596 Br  0  0  0  0  0  0
    5.6651   60.1768   15.0501 H   0  0  0  0  0  0
    6.4334   58.6129   14.7882 H   0  0  0  0  0  0
    6.9150   59.6525   16.1385 H   0  0  0  0  0  0
    4.7016   59.2961   17.2769 H   0  0  0  0  0  0
    4.0955   58.4426   15.8413 H   0  0  0  0  0  0
    7.4571   57.8883   17.4572 H   0  0  0  0  0  0
    6.3105   58.1467   18.8014 H   0  0  0  0  0  0
    7.3265   55.4267   17.6964 H   0  0  0  0  0  0
    7.9019   56.1395   19.1626 H   0  0  0  0  0  0
    3.8811   54.7924   18.7781 H   0  0  0  0  0  0
    5.0432   54.5726   17.4956 H   0  0  0  0  0  0
    3.9044   57.2860   18.4814 H   0  0  0  0  0  0
    3.5202   56.4417   16.9498 H   0  0  0  0  0  0
    4.2922   53.5571   20.3750 H   0  0  0  0  0  0
    4.2011   53.0034   22.7191 H   0  0  0  0  0  0
    7.4210   55.7589   23.4911 H   0  0  0  0  0  0
    7.4805   56.3565   21.1696 H   0  0  0  0  0  0
    5.2003   53.0658   24.7651 H   0  0  0  0  0  0
    5.5692   52.7145   26.8589 H   0  0  0  0  0  0
    7.1576   53.3217   27.2378 H   0  0  0  0  0  0
    1.8961   52.9577   25.5870 H   0  0  0  0  0  0
   -0.0027   52.2515   24.1920 H   0  0  0  0  0  0
   -2.0431   50.8101   27.6787 H   0  0  0  0  0  0
   -0.1643   51.5195   29.0870 H   0  0  0  0  0  0
    5.7658   56.7147   16.2524 H   0  0  0  0  0  0
  1  2  1  0  0  0
  1 32  1  0  0  0
  1 33  1  0  0  0
  1 34  1  0  0  0
  2  3  1  0  0  0
  2 35  1  0  0  0
  2 36  1  0  0  0
  3  8  1  0  0  0
  3  4  1  0  0  0
  3 56  1  0  0  0
  4  5  1  0  0  0
  4 37  1  0  0  0
  4 38  1  0  0  0
  5  6  1  0  0  0
  5 39  1  0  0  0
  5 40  1  0  0  0
  6  7  1  0  0  0
  6  9  1  0  0  0
  7  8  1  0  0  0
  7 41  1  0  0  0
  7 42  1  0  0  0
  8 43  1  0  0  0
  8 44  1  0  0  0
  9 14  2  0  0  0
  9 10  1  0  0  0
 10 11  2  0  0  0
 10 45  1  0  0  0
 11 12  1  0  0  0
 11 46  1  0  0  0
 12 13  2  0  0  0
 12 15  1  0  0  0
 13 14  1  0  0  0
 13 47  1  0  0  0
 14 48  1  0  0  0
 15 16  1  0  0  0
 15 49  1  0  0  0
 16 17  2  0  0  0
 16 18  1  0  0  0
 18 19  1  0  0  0
 18 50  1  0  0  0
 18 51  1  0  0  0
 19 20  1  0  0  0
 20 24  1  0  0  0
 20 21  2  0  0  0
 21 22  1  0  0  0
 22 23  2  0  0  0
 23 24  1  0  0  0
 23 25  1  0  0  0
 25 30  2  0  0  0
 25 26  1  0  0  0
 26 27  2  0  0  0
 26 52  1  0  0  0
 27 28  1  0  0  0
 27 53  1  0  0  0
 28 29  2  0  0  0
 28 31  1  0  0  0
 29 30  1  0  0  0
 29 54  1  0  0  0
 30 55  1  0  0  0
M  CHG  1   3   1
M  END
> <i_i_glide_confnum>
70

> <i_i_glide_lignum>
4865

> <i_i_glide_posenum>
19

> <i_i_glide_rotatable_bonds>
8

> <i_m_Source_File_Index>
3173

> <b_m_subgroup_collapsed>
0

> <r_i_docking_score>
-6.06587

> <r_i_glide_ecoul>
-7.28492

> <r_i_glide_eff_state_penalty>
0

> <r_i_glide_einternal>
4.48745

> <r_i_glide_emodel>
-74.3602

> <r_i_glide_energy>
-53.8538

> <r_i_glide_erotb>
0.564532

> <r_i_glide_esite>
-0.0126082

> <r_i_glide_evdw>
-46.5688

> <r_i_glide_gscore>
-6.06587

> <r_i_glide_hbond>
-0.32

> <r_i_glide_ligand_efficiency>
-0.195673

> <r_i_glide_ligand_efficiency_ln>
-1.36804

> <r_i_glide_ligand_efficiency_sa>
-0.614684

> <r_i_glide_lipo>
-2.34012

> <r_i_glide_metal>
0

> <r_i_glide_rewards>
-0.536496

> <s_i_glide_gridfile>
wee1_glide-grid

> <s_m_Source_File>
wee1_decoys_glide_SP.sdf

> <s_m_Source_Path>
/Users/zhangxujun/Desktop

> <s_m_entry_id>
3448

> <s_m_entry_name>
wee1_decoys_glide_SP.3173

> <s_m_subgroup_title>
wee1_decoys_glide_SP

> <s_m_subgroupid>
wee1_decoys_glide_SP


$$$$
