@<TRIPOS>MOLECULE
ZINC35361144_82
72   76    1
SMALL
USER_CHARGES


@<TRIPOS>ATOM
      1 C1         -4.8822   47.4540   30.1917 C.3       1 UNK         0.0000 
      2 C2         -5.6255   47.8450   28.9119 C.3       1 UNK         0.0000 
      3 O3         -4.7078   47.8227   27.8278 O.3       1 UNK         0.0000 
      4 C4         -5.0764   48.2694   26.6101 C.2       1 UNK         0.0000 
      5 O5         -6.1768   48.7509   26.3322 O.2       1 UNK         0.0000 
      6 C6         -3.9595   48.1712   25.5492 C.3       1 UNK         0.0000 
      7 C7         -3.2858   49.4492   25.0443 C.3       1 UNK         0.0000 
      8 O8         -4.2426   48.7461   24.2892 O.3       1 UNK         0.0000 
      9 C9         -3.7003   50.8335   25.5943 C.3       1 UNK         0.0000 
     10 C10        -2.6854   51.8418   25.0369 C.3       1 UNK         0.0000 
     11 C11        -1.9806   51.0845   23.9023 C.3       1 UNK         0.0000 
     12 H12        -2.7109   51.0789   23.0880 H         1 UNK         0.0000 
     13 C13        -1.8726   49.6149   24.3893 C.3       1 UNK         0.0000 
     14 C14        -1.6234   48.7936   23.0998 C.3       1 UNK         0.0000 
     15 C15        -0.3024   49.1744   22.4014 C.3       1 UNK         0.0000 
     16 C16        -0.0167   50.7148   22.2322 C.3       1 UNK         0.0000 
     17 H17        -0.6252   50.9590   21.3598 H         1 UNK         0.0000 
     18 C18        -0.6875   51.6892   23.2771 C.3       1 UNK         0.0000 
     19 H19        -1.0282   52.5691   22.7245 H         1 UNK         0.0000 
     20 C20         0.3704   52.2127   24.2795 C.3       1 UNK         0.0000 
     21 C21         1.4367   53.0748   23.5912 C.3       1 UNK         0.0000 
     22 C22         1.7873   52.6014   22.1596 C.3       1 UNK         0.0000 
     23 H23         1.0761   53.1435   21.5319 H         1 UNK         0.0000 
     24 C24         1.4676   51.0982   21.8151 C.3       1 UNK         0.0000 
     25 C25         1.6732   50.9569   20.2752 C.3       1 UNK         0.0000 
     26 C26         3.1040   51.3342   19.8132 C.3       1 UNK         0.0000 
     27 C27         3.4336   52.7984   20.1990 C.3       1 UNK         0.0000 
     28 H28         2.7631   53.4542   19.6465 H         1 UNK         0.0000 
     29 C29         3.1838   53.0826   21.6936 C.3       1 UNK         0.0000 
     30 O30         4.7840   53.1665   19.9169 O.3       1 UNK         0.0000 
     31 C31         5.2337   53.6452   18.7272 C.2       1 UNK         0.0000 
     32 O32         6.3927   54.0201   18.5666 O.2       1 UNK         0.0000 
     33 C33         4.2354   53.7163   17.5700 C.3       1 UNK         0.0000 
     34 C34         2.4679   50.1586   22.5436 C.3       1 UNK         0.0000 
     35 C35        -0.7755   49.3685   25.4693 C.3       1 UNK         0.0000 
     36 C36        -3.1892   46.8419   25.4580 C.2       1 UNK         0.0000 
     37 O37        -3.2963   46.0973   24.4822 O.2       1 UNK         0.0000 
     38 N38        -2.4161   46.4968   26.4818 N.am      1 UNK         0.0000 
     39 H39        -5.5610   47.4028   31.0428 H         1 UNK         0.0000 
     40 H40        -4.3962   46.4847   30.0829 H         1 UNK         0.0000 
     41 H41        -4.1001   48.1793   30.4273 H         1 UNK         0.0000 
     42 H42        -6.0572   48.8419   29.0263 H         1 UNK         0.0000 
     43 H43        -6.4438   47.1472   28.7222 H         1 UNK         0.0000 
     44 H44        -3.6749   50.8437   26.6865 H         1 UNK         0.0000 
     45 H45        -4.7151   51.0865   25.2798 H         1 UNK         0.0000 
     46 H46        -1.9866   52.0839   25.8370 H         1 UNK         0.0000 
     47 H47        -3.1253   52.7869   24.7098 H         1 UNK         0.0000 
     48 H48        -2.4466   48.9285   22.3943 H         1 UNK         0.0000 
     49 H49        -1.6067   47.7285   23.3222 H         1 UNK         0.0000 
     50 H50        -0.1917   48.6572   21.4477 H         1 UNK         0.0000 
     51 H51         0.4548   48.7269   23.0390 H         1 UNK         0.0000 
     52 H52         0.8173   51.4259   24.8769 H         1 UNK         0.0000 
     53 H53        -0.1111   52.8562   25.0172 H         1 UNK         0.0000 
     54 H54         2.3225   52.9414   24.2158 H         1 UNK         0.0000 
     55 H55         1.2128   54.1416   23.6103 H         1 UNK         0.0000 
     56 H56         0.9406   51.5559   19.7338 H         1 UNK         0.0000 
     57 H57         1.4715   49.9276   19.9733 H         1 UNK         0.0000 
     58 H58         3.1419   51.2064   18.7311 H         1 UNK         0.0000 
     59 H59         3.8272   50.6460   20.2502 H         1 UNK         0.0000 
     60 H60         3.9556   52.6469   22.3303 H         1 UNK         0.0000 
     61 H61         3.2179   54.1635   21.8427 H         1 UNK         0.0000 
     62 H62         3.8884   52.7204   17.3038 H         1 UNK         0.0000 
     63 H63         4.7178   54.1467   16.6953 H         1 UNK         0.0000 
     64 H64         3.3865   54.3462   17.8275 H         1 UNK         0.0000 
     65 H65         2.2541   50.0774   23.6090 H         1 UNK         0.0000 
     66 H66         2.4625   49.1479   22.1310 H         1 UNK         0.0000 
     67 H67         3.4946   50.4961   22.4765 H         1 UNK         0.0000 
     68 H68        -0.8590   50.0601   26.3100 H         1 UNK         0.0000 
     69 H69        -0.8272   48.3694   25.8898 H         1 UNK         0.0000 
     70 H70         0.2378   49.4340   25.0815 H         1 UNK         0.0000 
     71 H71        -2.2136   47.1744   27.2221 H         1 UNK         0.0000 
     72 H72        -1.8898   45.6395   26.4688 H         1 UNK         0.0000 
@<TRIPOS>BOND
     1    1    2 1    
     2    1   39 1    
     3    1   40 1    
     4    1   41 1    
     5    2    3 1    
     6    2   42 1    
     7    2   43 1    
     8    3    4 1    
     9    4    5 2    
    10    4    6 1    
    11    6    8 1    
    12    6    7 1    
    13    6   36 1    
    14    7   13 1    
    15    7    8 1    
    16    7    9 1    
    17    9   10 1    
    18    9   44 1    
    19    9   45 1    
    20   10   11 1    
    21   10   46 1    
    22   10   47 1    
    23   11   12 1    
    24   11   18 1    
    25   11   13 1    
    26   13   14 1    
    27   13   35 1    
    28   14   15 1    
    29   14   48 1    
    30   14   49 1    
    31   15   16 1    
    32   15   50 1    
    33   15   51 1    
    34   16   17 1    
    35   16   24 1    
    36   16   18 1    
    37   18   19 1    
    38   18   20 1    
    39   20   21 1    
    40   20   52 1    
    41   20   53 1    
    42   21   22 1    
    43   21   54 1    
    44   21   55 1    
    45   22   23 1    
    46   22   29 1    
    47   22   24 1    
    48   24   25 1    
    49   24   34 1    
    50   25   26 1    
    51   25   56 1    
    52   25   57 1    
    53   26   27 1    
    54   26   58 1    
    55   26   59 1    
    56   27   28 1    
    57   27   29 1    
    58   27   30 1    
    59   29   60 1    
    60   29   61 1    
    61   30   31 1    
    62   31   32 2    
    63   31   33 1    
    64   33   62 1    
    65   33   63 1    
    66   33   64 1    
    67   34   65 1    
    68   34   66 1    
    69   34   67 1    
    70   35   68 1    
    71   35   69 1    
    72   35   70 1    
    73   36   37 2    
    74   36   38 am   BACKBONE|DICT|INTERRES
    75   38   71 1    
    76   38   72 1    
@<TRIPOS>SUBSTRUCTURE
     1 UNK         1 GROUP             0       ****    0 ROOT    
