@<TRIPOS>MOLECULE
ZINC39696264_184
72   76    1
SMALL
USER_CHARGES


@<TRIPOS>ATOM
      1 C1          6.7003   53.4683   27.2238 C.3       1 UNK         0.0000 
      2 C2          5.9222   54.3885   28.1670 C.3       1 UNK         0.0000 
      3 C3          4.5115   53.9060   28.4583 C.ar      1 UNK         0.0000 
      4 C4          3.4249   54.5189   27.8387 C.ar      1 UNK         0.0000 
      5 C5          2.1295   54.1399   28.1672 C.ar      1 UNK         0.0000 
      6 C6          1.9174   53.1213   29.1040 C.ar      1 UNK         0.0000 
      7 C7          3.0067   52.4893   29.6985 C.ar      1 UNK         0.0000 
      8 C8          4.2956   52.8706   29.3672 C.ar      1 UNK         0.0000 
      9 C9          0.5148   52.6235   29.4514 C.3       1 UNK         0.0000 
     10 H10         0.5916   51.5577   29.6845 H         1 UNK         0.0000 
     11 C11         0.0133   53.3369   30.7165 C.3       1 UNK         0.0000 
     12 N12        -0.4606   52.7120   28.3601 N.am      1 UNK         0.0000 
     13 C13        -0.3125   52.1593   27.1431 C.2       1 UNK         0.0000 
     14 O14         0.7101   51.5579   26.8124 O.2       1 UNK         0.0000 
     15 C15        -1.4635   52.3940   26.1300 C.3       1 UNK         0.0000 
     16 H16        -2.0051   53.2964   26.4187 H         1 UNK         0.0000 
     17 C17        -0.8755   52.5721   24.7133 C.3       1 UNK         0.0000 
     18 N18        -1.9017   52.0199   23.8178 N.am      1 UNK         0.0000 
     19 C19        -3.0473   51.5129   24.5891 C.3       1 UNK         0.0000 
     20 C20        -2.4415   51.2011   25.9757 C.3       1 UNK         0.0000 
     21 C21        -1.7122   49.8210   25.9552 C.3       1 UNK         0.0000 
     22 C22        -2.6654   48.6315   25.7329 C.3       1 UNK         0.0000 
     23 N23        -3.6956   48.6461   26.8815 N.4       1 UNK         0.0000 
     24 C24        -4.4728   49.9781   26.9817 C.3       1 UNK         0.0000 
     25 C25        -3.4521   51.1232   27.1500 C.3       1 UNK         0.0000 
     26 C26        -1.7291   51.6668   22.5095 C.2       1 UNK         0.0000 
     27 O27        -2.6349   51.1437   21.8567 O.2       1 UNK         0.0000 
     28 C28        -0.4508   51.8872   21.8487 C.2       1 UNK         0.0000 
     29 C29        -0.0423   51.5574   20.5601 C.2       1 UNK         0.0000 
     30 C30         1.2896   51.9561   20.4328 C.2       1 UNK         0.0000 
     31 C31         1.6590   52.5300   21.6413 C.2       1 UNK         0.0000 
     32 O32         0.5897   52.4978   22.4781 O.3       1 UNK         0.0000 
     33 C33         2.9133   53.1569   22.1578 C.ar      1 UNK         0.0000 
     34 C34         3.0265   53.5426   23.4996 C.ar      1 UNK         0.0000 
     35 C35         4.2137   54.0965   23.9741 C.ar      1 UNK         0.0000 
     36 C36         5.2851   54.2775   23.1040 C.ar      1 UNK         0.0000 
     37 C37         5.1704   53.9301   21.7590 C.ar      1 UNK         0.0000 
     38 C38         3.9902   53.3613   21.2886 C.ar      1 UNK         0.0000 
     39 H39         7.6715   53.9015   26.9931 H         1 UNK         0.0000 
     40 H40         6.1723   53.3171   26.2821 H         1 UNK         0.0000 
     41 H41         6.8737   52.4956   27.6828 H         1 UNK         0.0000 
     42 H42         6.4545   54.4906   29.1127 H         1 UNK         0.0000 
     43 H43         5.8882   55.3942   27.7493 H         1 UNK         0.0000 
     44 H44         3.5796   55.2970   27.1090 H         1 UNK         0.0000 
     45 H45         1.2971   54.6327   27.6863 H         1 UNK         0.0000 
     46 H46         2.8544   51.6996   30.4160 H         1 UNK         0.0000 
     47 H47         5.1069   52.3489   29.8325 H         1 UNK         0.0000 
     48 H48         0.7399   53.2696   31.5282 H         1 UNK         0.0000 
     49 H49        -0.1765   54.3945   30.5316 H         1 UNK         0.0000 
     50 H50        -0.8957   52.8797   31.0937 H         1 UNK         0.0000 
     51 H51        -1.3646   53.0720   28.6099 H         1 UNK         0.0000 
     52 H52        -0.6331   53.6111   24.4855 H         1 UNK         0.0000 
     53 H53        -0.0148   51.9084   24.6099 H         1 UNK         0.0000 
     54 H54        -3.5933   50.6748   24.1586 H         1 UNK         0.0000 
     55 H55        -3.7478   52.3333   24.7422 H         1 UNK         0.0000 
     56 H56        -0.9524   49.7960   25.1734 H         1 UNK         0.0000 
     57 H57        -1.1495   49.6965   26.8807 H         1 UNK         0.0000 
     58 H58        -3.2118   48.6548   24.7890 H         1 UNK         0.0000 
     59 H59        -2.1357   47.6820   25.8228 H         1 UNK         0.0000 
     60 H60        -4.3253   47.8598   26.8114 H         1 UNK         0.0000 
     61 H61        -5.0769   50.0650   26.0763 H         1 UNK         0.0000 
     62 H62        -5.1329   49.8788   27.8445 H         1 UNK         0.0000 
     63 H63        -2.9288   51.0170   28.1031 H         1 UNK         0.0000 
     64 H64        -4.0007   52.0631   27.2239 H         1 UNK         0.0000 
     65 H65        -0.6393   51.0677   19.8049 H         1 UNK         0.0000 
     66 H66         1.9156   51.8426   19.5591 H         1 UNK         0.0000 
     67 H67         2.2086   53.3945   24.1896 H         1 UNK         0.0000 
     68 H68         4.3060   54.3742   25.0136 H         1 UNK         0.0000 
     69 H69         6.2067   54.7078   23.4696 H         1 UNK         0.0000 
     70 H70         5.9984   54.0977   21.0848 H         1 UNK         0.0000 
     71 H71         3.9157   53.0851   20.2457 H         1 UNK         0.0000 
     72 H72        -3.1310   48.4982   27.7247 H         1 UNK         0.0000 
@<TRIPOS>BOND
     1    1    2 1    
     2    1   39 1    
     3    1   40 1    
     4    1   41 1    
     5    2    3 1    
     6    2   42 1    
     7    2   43 1    
     8    3    8 ar   
     9    3    4 ar   
    10    4    5 ar   
    11    4   44 1    
    12    5    6 ar   
    13    5   45 1    
    14    6    7 ar   
    15    6    9 1    
    16    7    8 ar   
    17    7   46 1    
    18    8   47 1    
    19    9   10 1    
    20    9   11 1    
    21    9   12 1    
    22   11   48 1    
    23   11   49 1    
    24   11   50 1    
    25   12   13 am   BACKBONE|DICT|INTERRES
    26   12   51 1    
    27   13   14 2    
    28   13   15 1    
    29   15   16 1    
    30   15   20 1    
    31   15   17 1    
    32   17   18 1    
    33   17   52 1    
    34   17   53 1    
    35   18   19 1    
    36   18   26 am   BACKBONE|DICT|INTERRES
    37   19   20 1    
    38   19   54 1    
    39   19   55 1    
    40   20   25 1    
    41   20   21 1    
    42   21   22 1    
    43   21   56 1    
    44   21   57 1    
    45   22   23 1    
    46   22   58 1    
    47   22   59 1    
    48   23   24 1    
    49   23   60 1    
    50   23   72 1    
    51   24   25 1    
    52   24   61 1    
    53   24   62 1    
    54   25   63 1    
    55   25   64 1    
    56   26   27 2    
    57   26   28 1    
    58   28   32 1    
    59   28   29 2    
    60   29   30 1    
    61   29   65 1    
    62   30   31 2    
    63   30   66 1    
    64   31   32 1    
    65   31   33 1    
    66   33   38 ar   
    67   33   34 ar   
    68   34   35 ar   
    69   34   67 1    
    70   35   36 ar   
    71   35   68 1    
    72   36   37 ar   
    73   36   69 1    
    74   37   38 ar   
    75   37   70 1    
    76   38   71 1    
@<TRIPOS>SUBSTRUCTURE
     1 UNK         1 GROUP             0       ****    0 ROOT    
