ZINC13223378_5785
                    3D
 Schrodinger Suite 2024-2.
 53 56  0  0  1  0            999 V2000
    2.9223   52.3501   20.7025 C   0  0  0  0  0  0
    2.2684   52.3510   22.0726 C   0  0  0  0  0  0
    2.0383   53.5579   22.7365 C   0  0  0  0  0  0
    1.4399   53.5580   23.9924 C   0  0  0  0  0  0
    1.0966   52.3445   24.5943 C   0  0  0  0  0  0
    1.3045   51.1371   23.9221 C   0  0  0  0  0  0
    1.9004   51.1423   22.6633 C   0  0  0  0  0  0
    0.4919   52.3366   25.8685 N   0  0  0  0  0  0
    1.0027   52.6682   27.1224 C   0  0  0  0  0  0
    0.0749   52.5245   28.0411 N   0  0  0  0  0  0
   -1.0833   52.0949   27.4129 N   0  0  0  0  0  0
   -0.8192   51.9808   26.1369 C   0  0  0  0  0  0
   -2.0167   51.4742   24.9416 S   0  0  0  0  0  0
   -2.2046   49.7288   25.4620 C   0  0  0  0  0  0
   -3.4859   49.4235   26.2548 C   0  0  0  0  0  0
   -4.2316   50.3360   26.6174 O   0  0  0  0  0  0
   -3.7207   48.1121   26.4808 N   0  0  0  0  0  0
   -4.7273   47.4952   27.2584 C   0  0  0  0  0  0
   -5.3239   48.1828   28.3320 C   0  0  0  0  0  0
   -6.3112   47.5859   29.1083 C   0  0  0  0  0  0
   -6.7264   46.2914   28.8244 C   0  0  0  0  0  0
   -6.1318   45.5864   27.7824 C   0  0  0  0  0  0
   -5.1149   46.1526   26.9903 C   0  0  0  0  0  0
   -4.4955   45.2966   25.9082 C   0  0  0  0  0  0
   -3.4863   45.6990   25.2828 O   0  0  0  0  0  0
   -7.0143   48.4456   30.4299 Cl  0  0  0  0  0  0
    2.3024   53.0516   27.4135 N   0  0  0  0  0  0
    2.7387   53.3827   28.7747 C   0  0  0  0  0  0
    4.0074   54.2309   28.6599 C   0  0  0  0  0  0
    4.5654   53.8211   27.3106 C   0  0  0  0  0  0
    3.2956   53.6038   26.4933 C   0  0  0  0  0  0
    3.3325   53.3270   20.4429 H   0  0  0  0  0  0
    3.7424   51.6312   20.6752 H   0  0  0  0  0  0
    2.2030   52.0566   19.9380 H   0  0  0  0  0  0
    2.3085   54.4963   22.2735 H   0  0  0  0  0  0
    1.2441   54.4971   24.4891 H   0  0  0  0  0  0
    1.0232   50.1968   24.3758 H   0  0  0  0  0  0
    2.0726   50.2074   22.1506 H   0  0  0  0  0  0
   -1.3423   49.4082   26.0504 H   0  0  0  0  0  0
   -2.2126   49.1206   24.5567 H   0  0  0  0  0  0
   -3.1476   47.4386   25.9822 H   0  0  0  0  0  0
   -5.0116   49.1823   28.5935 H   0  0  0  0  0  0
   -7.5011   45.8269   29.4174 H   0  0  0  0  0  0
   -6.4702   44.5754   27.5997 H   0  0  0  0  0  0
    1.9781   53.9959   29.2612 H   0  0  0  0  0  0
    2.9268   52.4837   29.3628 H   0  0  0  0  0  0
    3.7652   55.2952   28.6862 H   0  0  0  0  0  0
    4.7074   54.0341   29.4725 H   0  0  0  0  0  0
    5.1536   52.9027   27.3634 H   0  0  0  0  0  0
    5.2066   54.5890   26.8751 H   0  0  0  0  0  0
    3.4965   52.8966   25.6907 H   0  0  0  0  0  0
    2.9507   54.5453   26.0670 H   0  0  0  0  0  0
   -4.9842   44.1664   25.6821 O   0  5  0  0  0  0
  1  2  1  0  0  0
  1 32  1  0  0  0
  1 33  1  0  0  0
  1 34  1  0  0  0
  2  7  2  0  0  0
  2  3  1  0  0  0
  3  4  2  0  0  0
  3 35  1  0  0  0
  4  5  1  0  0  0
  4 36  1  0  0  0
  5  6  2  0  0  0
  5  8  1  0  0  0
  6  7  1  0  0  0
  6 37  1  0  0  0
  7 38  1  0  0  0
  8 12  1  0  0  0
  8  9  1  0  0  0
  9 10  2  0  0  0
  9 27  1  0  0  0
 10 11  1  0  0  0
 11 12  2  0  0  0
 12 13  1  0  0  0
 13 14  1  0  0  0
 14 15  1  0  0  0
 14 39  1  0  0  0
 14 40  1  0  0  0
 15 16  2  0  0  0
 15 17  1  0  0  0
 17 18  1  0  0  0
 17 41  1  0  0  0
 18 23  2  0  0  0
 18 19  1  0  0  0
 19 20  2  0  0  0
 19 42  1  0  0  0
 20 21  1  0  0  0
 20 26  1  0  0  0
 21 22  2  0  0  0
 21 43  1  0  0  0
 22 23  1  0  0  0
 22 44  1  0  0  0
 23 24  1  0  0  0
 24 25  2  0  0  0
 24 53  1  0  0  0
 27 31  1  0  0  0
 27 28  1  0  0  0
 28 29  1  0  0  0
 28 45  1  0  0  0
 28 46  1  0  0  0
 29 30  1  0  0  0
 29 47  1  0  0  0
 29 48  1  0  0  0
 30 31  1  0  0  0
 30 49  1  0  0  0
 30 50  1  0  0  0
 31 51  1  0  0  0
 31 52  1  0  0  0
M  CHG  1  53  -1
M  END
> <i_i_glide_confnum>
233

> <i_i_glide_lignum>
5786

> <i_i_glide_posenum>
365

> <i_i_glide_rotatable_bonds>
8

> <i_m_Source_File_Index>
1073

> <b_m_subgroup_collapsed>
0

> <r_i_docking_score>
-4.71282

> <r_i_glide_ecoul>
-5.25322

> <r_i_glide_eff_state_penalty>
0

> <r_i_glide_einternal>
3.80343

> <r_i_glide_emodel>
-50.4422

> <r_i_glide_energy>
-37.8125

> <r_i_glide_erotb>
0.637804

> <r_i_glide_esite>
-0.287651

> <r_i_glide_evdw>
-32.5593

> <r_i_glide_gscore>
-4.71282

> <r_i_glide_hbond>
-0.353309

> <r_i_glide_ligand_efficiency>
-0.147276

> <r_i_glide_ligand_efficiency_ln>
-1.05533

> <r_i_glide_ligand_efficiency_sa>
-0.467571

> <r_i_glide_lipo>
-1.6047

> <r_i_glide_metal>
0

> <r_i_glide_rewards>
-0.689015

> <s_i_glide_gridfile>
wee1_glide-grid

> <s_m_Source_File>
wee1_decoys_glide_SP.sdf

> <s_m_Source_Path>
/Users/zhangxujun/Desktop

> <s_m_entry_id>
1348

> <s_m_entry_name>
wee1_decoys_glide_SP.1073

> <s_m_subgroup_title>
wee1_decoys_glide_SP

> <s_m_subgroupid>
wee1_decoys_glide_SP


$$$$
