ZINC45339203_5261
                    3D
 Schrodinger Suite 2024-2.
 61 64  0  0  1  0            999 V2000
   -3.5600   51.0577   28.0179 C   0  0  0  0  0  0
   -3.5514   51.8008   26.6849 C   0  0  0  0  0  0
   -4.5169   52.7874   26.4642 C   0  0  0  0  0  0
   -4.5313   53.5203   25.2831 C   0  0  0  0  0  0
   -3.6084   53.2412   24.2825 C   0  0  0  0  0  0
   -2.6716   52.2271   24.4652 C   0  0  0  0  0  0
   -2.6146   51.5103   25.6723 C   0  0  0  0  0  0
   -1.5827   50.3863   25.8600 C   0  0  1  0  0  0
   -1.4097   50.3299   26.9361 H   0  0  0  0  0  0
   -2.2469   49.0683   25.3948 C   0  0  0  0  0  0
   -1.2975   47.9070   25.6817 N   0  3  0  0  0  0
   -0.0823   48.0792   24.7597 C   0  0  0  0  0  0
    0.7039   49.3420   25.1480 C   0  0  0  0  0  0
   -0.2132   50.5044   25.2606 N   0  0  0  0  0  0
    0.4175   51.7043   25.2124 C   0  0  0  0  0  0
    0.4889   52.3024   24.1382 O   0  0  0  0  0  0
    0.9212   52.2197   26.3742 N   0  0  0  0  0  0
    1.2141   51.3962   27.5791 C   0  0  0  0  0  0
    0.5962   52.0595   28.8329 C   0  0  0  0  0  0
    0.7293   53.5675   28.8080 C   0  0  0  0  0  0
    1.1045   54.2370   27.7038 C   0  0  0  0  0  0
    1.5028   53.5892   26.3666 C   0  0  1  0  0  0
    1.1041   54.1851   25.5526 H   0  0  0  0  0  0
    2.9817   53.7316   26.0713 C   0  0  0  0  0  0
    3.4849   53.9584   24.7841 C   0  0  0  0  0  0
    4.8662   54.1179   24.5894 C   0  0  0  0  0  0
    5.7285   54.0788   25.6968 C   0  0  0  0  0  0
    5.2109   53.8133   26.9681 C   0  0  0  0  0  0
    3.8530   53.6552   27.1373 C   0  0  0  0  0  0
    6.0344   53.6174   28.2082 C   0  0  0  0  0  0
    5.5047   52.5917   28.8808 F   0  0  0  0  0  0
    7.3148   53.3880   27.9465 F   0  0  0  0  0  0
    5.9043   54.7090   28.9433 F   0  0  0  0  0  0
    5.4551   54.2774   23.1918 C   0  0  0  0  0  0
    6.1132   53.1675   22.8819 F   0  0  0  0  0  0
    4.5187   54.4695   22.2634 F   0  0  0  0  0  0
    6.3147   55.2958   23.1639 F   0  0  0  0  0  0
   -5.4461   54.4968   25.1081 F   0  0  0  0  0  0
   -3.5444   49.9784   27.8711 H   0  0  0  0  0  0
   -2.6795   51.3128   28.6060 H   0  0  0  0  0  0
   -4.4443   51.2828   28.6142 H   0  0  0  0  0  0
   -5.2590   53.0008   27.2189 H   0  0  0  0  0  0
   -3.6259   53.8055   23.3622 H   0  0  0  0  0  0
   -1.9889   52.0020   23.6587 H   0  0  0  0  0  0
   -3.1607   48.8344   25.9455 H   0  0  0  0  0  0
   -2.4775   49.0565   24.3271 H   0  0  0  0  0  0
   -1.0610   47.9423   26.6785 H   0  0  0  0  0  0
    0.5441   47.1972   24.8815 H   0  0  0  0  0  0
   -0.4246   48.0932   23.7229 H   0  0  0  0  0  0
    1.2022   49.0898   26.0837 H   0  0  0  0  0  0
    1.4165   49.4961   24.3335 H   0  0  0  0  0  0
    0.8113   50.3894   27.5333 H   0  0  0  0  0  0
    2.2958   51.3169   27.6981 H   0  0  0  0  0  0
   -0.4642   51.8187   28.8941 H   0  0  0  0  0  0
    1.0583   51.6493   29.7301 H   0  0  0  0  0  0
    0.4618   54.1303   29.6910 H   0  0  0  0  0  0
    1.1232   55.3152   27.7614 H   0  0  0  0  0  0
    2.8031   53.9895   23.9463 H   0  0  0  0  0  0
    6.7942   54.1766   25.5513 H   0  0  0  0  0  0
    3.4673   53.4486   28.1266 H   0  0  0  0  0  0
   -1.7618   47.0225   25.5301 H   0  0  0  0  0  0
  1  2  1  0  0  0
  1 39  1  0  0  0
  1 40  1  0  0  0
  1 41  1  0  0  0
  2  7  2  0  0  0
  2  3  1  0  0  0
  3  4  2  0  0  0
  3 42  1  0  0  0
  4  5  1  0  0  0
  4 38  1  0  0  0
  5  6  2  0  0  0
  5 43  1  0  0  0
  6  7  1  0  0  0
  6 44  1  0  0  0
  7  8  1  0  0  0
  8  9  1  0  0  0
  8 14  1  0  0  0
  8 10  1  0  0  0
 10 11  1  0  0  0
 10 45  1  0  0  0
 10 46  1  0  0  0
 11 12  1  0  0  0
 11 47  1  0  0  0
 11 61  1  0  0  0
 12 13  1  0  0  0
 12 48  1  0  0  0
 12 49  1  0  0  0
 13 14  1  0  0  0
 13 50  1  0  0  0
 13 51  1  0  0  0
 14 15  1  0  0  0
 15 16  2  0  0  0
 15 17  1  0  0  0
 17 22  1  0  0  0
 17 18  1  0  0  0
 18 19  1  0  0  0
 18 52  1  0  0  0
 18 53  1  0  0  0
 19 20  1  0  0  0
 19 54  1  0  0  0
 19 55  1  0  0  0
 20 21  2  0  0  0
 20 56  1  0  0  0
 21 22  1  0  0  0
 21 57  1  0  0  0
 22 23  1  0  0  0
 22 24  1  0  0  0
 24 29  2  0  0  0
 24 25  1  0  0  0
 25 26  2  0  0  0
 25 58  1  0  0  0
 26 27  1  0  0  0
 26 34  1  0  0  0
 27 28  2  0  0  0
 27 59  1  0  0  0
 28 29  1  0  0  0
 28 30  1  0  0  0
 29 60  1  0  0  0
 30 31  1  0  0  0
 30 32  1  0  0  0
 30 33  1  0  0  0
 34 35  1  0  0  0
 34 36  1  0  0  0
 34 37  1  0  0  0
M  CHG  1  11   1
M  END
> <i_i_glide_confnum>
24

> <i_i_glide_lignum>
5262

> <i_i_glide_posenum>
27

> <i_i_glide_rotatable_bonds>
6

> <i_m_Source_File_Index>
2914

> <b_m_subgroup_collapsed>
0

> <r_i_docking_score>
-6.15693

> <r_i_glide_ecoul>
-3.9218

> <r_i_glide_eff_state_penalty>
0

> <r_i_glide_einternal>
1.83963

> <r_i_glide_emodel>
-41.5939

> <r_i_glide_energy>
-35.5461

> <r_i_glide_erotb>
0.307796

> <r_i_glide_esite>
-0.181229

> <r_i_glide_evdw>
-31.6243

> <r_i_glide_gscore>
-6.15693

> <r_i_glide_hbond>
-0.2

> <r_i_glide_ligand_efficiency>
-0.171026

> <r_i_glide_ligand_efficiency_ln>
-1.34328

> <r_i_glide_ligand_efficiency_sa>
-0.564715

> <r_i_glide_lipo>
-2.98537

> <r_i_glide_metal>
0

> <r_i_glide_rewards>
-0.92864

> <s_i_glide_gridfile>
wee1_glide-grid

> <s_m_Source_File>
wee1_decoys_glide_SP.sdf

> <s_m_Source_Path>
/Users/zhangxujun/Desktop

> <s_m_entry_id>
3189

> <s_m_entry_name>
wee1_decoys_glide_SP.2914

> <s_m_subgroup_title>
wee1_decoys_glide_SP

> <s_m_subgroupid>
wee1_decoys_glide_SP


$$$$
