@<TRIPOS>MOLECULE
ZINC63819104_4100
67   71    1
SMALL
USER_CHARGES


@<TRIPOS>ATOM
      1 C1         -1.5185   51.5779   25.0036 C.3       1 UNK         0.0000 
      2 N2         -0.4415   50.9743   24.2187 N.pl3     1 UNK         0.0000 
      3 C3         -0.1495   49.5675   24.5090 C.3       1 UNK         0.0000 
      4 C4          0.5697   51.7939   23.6437 C.ar      1 UNK         0.0000 
      5 C5          0.4924   53.1957   23.6937 C.ar      1 UNK         0.0000 
      6 C6          1.5070   53.9944   23.1735 C.ar      1 UNK         0.0000 
      7 C7          2.6434   53.4143   22.6046 C.ar      1 UNK         0.0000 
      8 C8          2.6994   52.0223   22.4827 C.ar      1 UNK         0.0000 
      9 C9          1.6815   51.2271   23.0018 C.ar      1 UNK         0.0000 
     10 C10         3.8131   54.2871   22.1145 C.3       1 UNK         0.0000 
     11 H11         3.4203   55.2956   21.9815 H         1 UNK         0.0000 
     12 C12         4.2631   53.8165   20.6928 C.3       1 UNK         0.0000 
     13 N13         5.0883   54.7384   19.8953 N.am      1 UNK         0.0000 
     14 C14         6.0142   54.3095   19.0103 C.2       1 UNK         0.0000 
     15 O15         6.3028   53.1275   18.8841 O.2       1 UNK         0.0000 
     16 C16         6.7824   55.2964   18.1226 C.3       1 UNK         0.0000 
     17 N17         6.0239   56.5126   17.7968 N.am      1 UNK         0.0000 
     18 C18         5.1141   56.5813   16.7990 C.2       1 UNK         0.0000 
     19 O19         4.6384   55.6504   16.1438 O.2       1 UNK         0.0000 
     20 C20         4.8954   58.0721   16.5461 C.3       1 UNK         0.0000 
     21 C21         3.3857   58.4428   16.6034 C.3       1 UNK         0.0000 
     22 C22         2.9801   58.9023   15.1977 C.3       1 UNK         0.0000 
     23 C23         4.2786   59.3711   14.5455 C.3       1 UNK         0.0000 
     24 C24         5.3476   58.4311   15.1005 C.3       1 UNK         0.0000 
     25 N25         5.7164   58.6033   17.6007 N.am      1 UNK         0.0000 
     26 C26         6.2775   57.6929   18.3973 C.2       1 UNK         0.0000 
     27 O27         6.7131   57.8782   19.5344 O.2       1 UNK         0.0000 
     28 C28         4.9423   54.4298   23.1649 C.2       1 UNK         0.0000 
     29 C29         4.9697   54.3461   24.5207 C.2       1 UNK         0.0000 
     30 C30         3.9096   54.0959   25.5165 C.2       1 UNK         0.0000 
     31 C31         4.1792   54.0322   26.8348 C.2       1 UNK         0.0000 
     32 C32         5.5577   54.1965   27.2582 C.2       1 UNK         0.0000 
     33 C33         6.5541   54.4277   26.3681 C.2       1 UNK         0.0000 
     34 C34         6.2787   54.5274   24.9963 C.2       1 UNK         0.0000 
     35 N35         7.1008   54.7599   24.0087 N.pl3     1 UNK         0.0000 
     36 C36         6.3494   54.8103   22.7508 C.3       1 UNK         0.0000 
     37 H37        -1.1190   52.0326   25.9107 H         1 UNK         0.0000 
     38 H38        -2.0308   52.3564   24.4424 H         1 UNK         0.0000 
     39 H39        -2.2689   50.8438   25.3025 H         1 UNK         0.0000 
     40 H40         0.1046   49.0165   23.6051 H         1 UNK         0.0000 
     41 H41         0.7001   49.4855   25.1870 H         1 UNK         0.0000 
     42 H42        -0.9896   49.0578   24.9843 H         1 UNK         0.0000 
     43 H43        -0.3477   53.6923   24.1487 H         1 UNK         0.0000 
     44 H44         1.4227   55.0645   23.2619 H         1 UNK         0.0000 
     45 H45         3.5488   51.5312   22.0319 H         1 UNK         0.0000 
     46 H46         1.7890   50.1568   22.9120 H         1 UNK         0.0000 
     47 H47         3.3802   53.6046   20.0880 H         1 UNK         0.0000 
     48 H48         4.7706   52.8567   20.7984 H         1 UNK         0.0000 
     49 H49         4.8416   55.7164   19.9078 H         1 UNK         0.0000 
     50 H50         6.9659   54.7784   17.1785 H         1 UNK         0.0000 
     51 H51         7.7608   55.5116   18.5504 H         1 UNK         0.0000 
     52 H52         3.2385   59.2885   17.2802 H         1 UNK         0.0000 
     53 H53         2.7318   57.6485   16.9655 H         1 UNK         0.0000 
     54 H54         2.2346   59.7020   15.2276 H         1 UNK         0.0000 
     55 H55         2.5480   58.0699   14.6335 H         1 UNK         0.0000 
     56 H56         4.5020   60.3989   14.8417 H         1 UNK         0.0000 
     57 H57         4.2259   59.3473   13.4545 H         1 UNK         0.0000 
     58 H58         5.3822   57.5573   14.4414 H         1 UNK         0.0000 
     59 H59         6.3476   58.8725   15.0618 H         1 UNK         0.0000 
     60 H60         5.9657   59.5880   17.6249 H         1 UNK         0.0000 
     61 H61         2.8801   53.9512   25.2446 H         1 UNK         0.0000 
     62 H62         3.3967   53.8455   27.5570 H         1 UNK         0.0000 
     63 H63         5.8012   54.1106   28.3094 H         1 UNK         0.0000 
     64 H64         7.5589   54.5052   26.7498 H         1 UNK         0.0000 
     65 H65         6.8013   54.0943   22.0818 H         1 UNK         0.0000 
     66 H66         6.4398   55.8108   22.3294 H         1 UNK         0.0000 
     67 H67         8.1167   54.8983   24.0793 H         1 UNK         0.0000 
@<TRIPOS>BOND
     1    1    2 1    
     2    1   37 1    
     3    1   38 1    
     4    1   39 1    
     5    2    3 1    
     6    2    4 1    
     7    3   40 1    
     8    3   41 1    
     9    3   42 1    
    10    4    9 ar   
    11    4    5 ar   
    12    5    6 ar   
    13    5   43 1    
    14    6    7 ar   
    15    6   44 1    
    16    7    8 ar   
    17    7   10 1    
    18    8    9 ar   
    19    8   45 1    
    20    9   46 1    
    21   10   11 1    
    22   10   12 1    
    23   10   28 1    
    24   12   13 1    
    25   12   47 1    
    26   12   48 1    
    27   13   14 am   BACKBONE|DICT|INTERRES
    28   13   49 1    
    29   14   15 2    
    30   14   16 1    
    31   16   17 1    
    32   16   50 1    
    33   16   51 1    
    34   17   26 am   BACKBONE|DICT|INTERRES
    35   17   18 am   BACKBONE|DICT|INTERRES
    36   18   19 2    
    37   18   20 1    
    38   20   24 1    
    39   20   21 1    
    40   20   25 1    
    41   21   22 1    
    42   21   52 1    
    43   21   53 1    
    44   22   23 1    
    45   22   54 1    
    46   22   55 1    
    47   23   24 1    
    48   23   56 1    
    49   23   57 1    
    50   24   58 1    
    51   24   59 1    
    52   25   26 am   BACKBONE|DICT|INTERRES
    53   25   60 1    
    54   26   27 2    
    55   28   36 1    
    56   28   29 2    
    57   29   34 1    
    58   29   30 1    
    59   30   31 2    
    60   30   61 1    
    61   31   32 1    
    62   31   62 1    
    63   32   33 2    
    64   32   63 1    
    65   33   34 1    
    66   33   64 1    
    67   34   35 2    
    68   35   36 1    
    69   35   67 1    
    70   36   65 1    
    71   36   66 1    
@<TRIPOS>SUBSTRUCTURE
     1 UNK         1 GROUP             0       ****    0 ROOT    
