@<TRIPOS>MOLECULE
ZINC40323012_1197
52   55    1
SMALL
USER_CHARGES


@<TRIPOS>ATOM
      1 C1         -4.8215   51.6966   27.2845 C.2       1 UNK         0.0000 
      2 C2         -3.5502   51.2969   27.6976 C.2       1 UNK         0.0000 
      3 C3         -2.6374   51.9170   26.8515 C.2       1 UNK         0.0000 
      4 O4         -3.3043   52.6914   25.9548 O.3       1 UNK         0.0000 
      5 C5         -4.6296   52.5550   26.2145 C.2       1 UNK         0.0000 
      6 C6         -1.1281   51.8529   26.7065 C.3       1 UNK         0.0000 
      7 H7         -0.7953   52.3354   25.7855 H         1 UNK         0.0000 
      8 C8         -0.3726   52.4020   27.9478 C.3       1 UNK         0.0000 
      9 N9          1.0191   52.8156   27.6901 N.am      1 UNK         0.0000 
     10 C10         2.0297   52.6264   28.5616 C.2       1 UNK         0.0000 
     11 O11         1.8875   52.0976   29.6659 O.2       1 UNK         0.0000 
     12 C12         3.3424   53.0295   28.1196 C.2       1 UNK         0.0000 
     13 C13         4.5625   52.8971   28.7703 C.2       1 UNK         0.0000 
     14 C14         5.5498   53.3483   27.8964 C.2       1 UNK         0.0000 
     15 C15         4.8984   53.7367   26.7370 C.2       1 UNK         0.0000 
     16 O16         3.5499   53.5856   26.8883 O.3       1 UNK         0.0000 
     17 S17         5.5815   54.4051   25.1857 S.o2      1 UNK         0.0000 
     18 O18         5.5047   55.8626   25.2819 O.2       1 UNK         0.0000 
     19 O19         6.8743   53.7345   25.0002 O.2       1 UNK         0.0000 
     20 C20         4.5097   53.9149   23.8347 C.ar      1 UNK         0.0000 
     21 C21         5.0720   53.3777   22.6732 C.ar      1 UNK         0.0000 
     22 C22         4.2462   52.9461   21.6381 C.ar      1 UNK         0.0000 
     23 C23         2.8634   53.0686   21.7648 C.ar      1 UNK         0.0000 
     24 C24         2.3027   53.6450   22.9026 C.ar      1 UNK         0.0000 
     25 C25         3.1266   54.0765   23.9369 C.ar      1 UNK         0.0000 
     26 Br26        1.7250   52.4623   20.3665 Br        1 UNK         0.0000 
     27 N27        -0.7712   50.3611   26.4814 N.4       1 UNK         0.0000 
     28 C28        -1.5566   49.6462   25.3631 C.3       1 UNK         0.0000 
     29 C29        -0.7381   48.3891   25.1383 C.3       1 UNK         0.0000 
     30 C30         0.7039   48.8617   25.2398 C.3       1 UNK         0.0000 
     31 C31         0.7037   50.1114   26.1189 C.3       1 UNK         0.0000 
     32 H32        -5.7640   51.3886   27.7141 H         1 UNK         0.0000 
     33 H33        -3.3149   50.6087   28.4990 H         1 UNK         0.0000 
     34 H34        -5.3004   53.1077   25.5729 H         1 UNK         0.0000 
     35 H35        -0.8808   53.2855   28.3291 H         1 UNK         0.0000 
     36 H36        -0.4272   51.6634   28.7531 H         1 UNK         0.0000 
     37 H37         1.1886   53.4150   26.8956 H         1 UNK         0.0000 
     38 H38         4.7040   52.4877   29.7580 H         1 UNK         0.0000 
     39 H39         6.6162   53.3718   28.0707 H         1 UNK         0.0000 
     40 H40         6.1417   53.2738   22.5847 H         1 UNK         0.0000 
     41 H41         4.6711   52.5134   20.7436 H         1 UNK         0.0000 
     42 H42         1.2314   53.7528   22.9819 H         1 UNK         0.0000 
     43 H43         2.6877   54.5151   24.8181 H         1 UNK         0.0000 
     44 H44        -2.5755   49.4625   25.7069 H         1 UNK         0.0000 
     45 H45        -1.5784   50.3163   24.5010 H         1 UNK         0.0000 
     46 H46        -0.9571   47.6712   25.9312 H         1 UNK         0.0000 
     47 H47        -0.9552   47.9115   24.1819 H         1 UNK         0.0000 
     48 H48         1.1091   49.0931   24.2532 H         1 UNK         0.0000 
     49 H49         1.3354   48.0963   25.6822 H         1 UNK         0.0000 
     50 H50         1.0681   50.9784   25.5637 H         1 UNK         0.0000 
     51 H51         1.2359   50.0017   27.0642 H         1 UNK         0.0000 
     52 H52        -0.9882   49.8402   27.3334 H         1 UNK         0.0000 
@<TRIPOS>BOND
     1    1    5 2    
     2    1    2 1    
     3    1   32 1    
     4    2    3 2    
     5    2   33 1    
     6    3    4 1    
     7    3    6 1    
     8    4    5 1    
     9    5   34 1    
    10    6    7 1    
    11    6    8 1    
    12    6   27 1    
    13    8    9 1    
    14    8   35 1    
    15    8   36 1    
    16    9   10 am   BACKBONE|DICT|INTERRES
    17    9   37 1    
    18   10   11 2    
    19   10   12 1    
    20   12   16 1    
    21   12   13 2    
    22   13   14 1    
    23   13   38 1    
    24   14   15 2    
    25   14   39 1    
    26   15   16 1    
    27   15   17 1    
    28   17   18 2    
    29   17   19 2    
    30   17   20 1    
    31   20   25 ar   
    32   20   21 ar   
    33   21   22 ar   
    34   21   40 1    
    35   22   23 ar   
    36   22   41 1    
    37   23   24 ar   
    38   23   26 1    
    39   24   25 ar   
    40   24   42 1    
    41   25   43 1    
    42   27   31 1    
    43   27   28 1    
    44   27   52 1    
    45   28   29 1    
    46   28   44 1    
    47   28   45 1    
    48   29   30 1    
    49   29   46 1    
    50   29   47 1    
    51   30   31 1    
    52   30   48 1    
    53   30   49 1    
    54   31   50 1    
    55   31   51 1    
@<TRIPOS>SUBSTRUCTURE
     1 UNK         1 GROUP             0       ****    0 ROOT    
