@<TRIPOS>MOLECULE
ZINC41991885_1643
29   30    1
SMALL
USER_CHARGES


@<TRIPOS>ATOM
      1 C1          1.3064   54.1438   27.4181 C.3       1 UNK         0.0000 
      2 C2          2.5155   53.4971   28.1358 C.3       1 UNK         0.0000 
      3 C3          3.8921   53.7243   27.4147 C.ar      1 UNK         0.0000 
      4 C4          5.0924   53.4013   28.0823 C.ar      1 UNK         0.0000 
      5 C5          6.3389   53.6958   27.5350 C.ar      1 UNK         0.0000 
      6 C6          6.4310   54.2690   26.2747 C.ar      1 UNK         0.0000 
      7 C7          5.2702   54.5275   25.5584 C.ar      1 UNK         0.0000 
      8 C8          4.0176   54.2509   26.1072 C.ar      1 UNK         0.0000 
      9 F9          2.9513   54.4967   25.3164 F         1 UNK         0.0000 
     10 F10         5.0659   52.7736   29.2764 F         1 UNK         0.0000 
     11 C11         2.5108   54.1996   29.5295 C.2       1 UNK         0.0000 
     12 O12         1.8672   53.6976   30.4815 O.co2     1 UNK         0.0000 
     13 O13         3.1042   55.2964   29.6171 O.co2     1 UNK         0.0000 
     14 S14         2.3044   51.6947   28.4816 S.3       1 UNK         0.0000 
     15 C15         0.6283   51.4244   28.0097 C.ar      1 UNK         0.0000 
     16 N16         0.2616   50.9097   26.8599 N.2       1 UNK         0.0000 
     17 N17        -1.1302   50.9437   26.8132 N.2       1 UNK         0.0000 
     18 C18        -1.5293   51.4063   27.9707 C.ar      1 UNK         0.0000 
     19 N19        -0.4699   51.6973   28.7898 N.pl3     1 UNK         0.0000 
     20 N20        -0.5038   52.1821   30.0792 N.3       1 UNK         0.0000 
     21 H21         1.4558   55.2097   27.2861 H         1 UNK         0.0000 
     22 H22         1.1064   53.6865   26.4501 H         1 UNK         0.0000 
     23 H23         0.3802   54.0659   27.9884 H         1 UNK         0.0000 
     24 H24         7.2312   53.4533   28.0923 H         1 UNK         0.0000 
     25 H25         7.3966   54.4869   25.8461 H         1 UNK         0.0000 
     26 H26         5.3378   54.9420   24.5644 H         1 UNK         0.0000 
     27 H27        -2.5437   51.5297   28.3170 H         1 UNK         0.0000 
     28 H28        -0.4072   51.4350   30.7516 H         1 UNK         0.0000 
     29 H29         0.2148   52.8918   30.2151 H         1 UNK         0.0000 
@<TRIPOS>BOND
     1    1    2 1    
     2    1   21 1    
     3    1   22 1    
     4    1   23 1    
     5    2    3 1    
     6    2   11 1    
     7    2   14 1    
     8    3    8 ar   
     9    3    4 ar   
    10    4    5 ar   
    11    4   10 1    
    12    5    6 ar   
    13    5   24 1    
    14    6    7 ar   
    15    6   25 1    
    16    7    8 ar   
    17    7   26 1    
    18    8    9 1    
    19   11   12 2    
    20   11   13 1    
    21   14   15 1    
    22   15   19 ar   
    23   15   16 ar   
    24   16   17 ar   
    25   17   18 ar   
    26   18   19 ar   
    27   18   27 1    
    28   19   20 1    
    29   20   28 1    
    30   20   29 1    
@<TRIPOS>SUBSTRUCTURE
     1 UNK         1 GROUP             0       ****    0 ROOT    
