@<TRIPOS>MOLECULE
ZINC04316750_1466
37   40    1
SMALL
USER_CHARGES


@<TRIPOS>ATOM
      1 C1          0.3078   54.7904   30.8815 C.ar      1 UNK         0.0000 
      2 C2          1.1050   55.8584   30.4816 C.ar      1 UNK         0.0000 
      3 C3          2.0834   55.6604   29.5164 C.ar      1 UNK         0.0000 
      4 C4          2.2710   54.3976   28.9386 C.ar      1 UNK         0.0000 
      5 C5          1.4037   53.3356   29.2792 C.ar      1 UNK         0.0000 
      6 C6          0.4434   53.5494   30.2774 C.ar      1 UNK         0.0000 
      7 C7          1.5243   51.9287   28.6955 C.3       1 UNK         0.0000 
      8 F8          0.4055   51.2436   28.9104 F         1 UNK         0.0000 
      9 F9          1.7015   51.9260   27.3826 F         1 UNK         0.0000 
     10 F10         2.5467   51.3057   29.2787 F         1 UNK         0.0000 
     11 N11         3.3897   54.2352   28.0938 N.pl3     1 UNK         0.0000 
     12 C12         3.4740   54.1385   26.7190 C.ar      1 UNK         0.0000 
     13 C13         4.8377   54.1291   26.4569 C.ar      1 UNK         0.0000 
     14 N14         5.5186   54.1608   27.5897 N.2       1 UNK         0.0000 
     15 N15         4.6173   54.2429   28.6325 N.2       1 UNK         0.0000 
     16 C16         5.4762   54.1287   25.1563 C.2       1 UNK         0.0000 
     17 N17         4.8925   54.2055   23.9885 N.2       1 UNK         0.0000 
     18 C18         5.9206   54.2729   23.1680 C.2       1 UNK         0.0000 
     19 N19         7.1043   54.1502   23.7242 N.2       1 UNK         0.0000 
     20 O20         6.8275   54.0962   25.0857 O.3       1 UNK         0.0000 
     21 C21         5.7597   54.5237   21.7043 C.ar      1 UNK         0.0000 
     22 C22         6.7064   55.2965   21.0127 C.ar      1 UNK         0.0000 
     23 C23         6.5283   55.5206   19.6468 C.ar      1 UNK         0.0000 
     24 N24         5.4738   55.0268   18.9513 N.ar      1 UNK         0.0000 
     25 C25         4.5622   54.2830   19.6272 C.ar      1 UNK         0.0000 
     26 C26         4.6637   54.0160   20.9938 C.ar      1 UNK         0.0000 
     27 N27         2.3942   54.0965   25.8808 N.pl3     1 UNK         0.0000 
     28 H28        -0.4066   54.8965   31.6760 H         1 UNK         0.0000 
     29 H29         1.0070   56.8310   30.9400 H         1 UNK         0.0000 
     30 H30         2.7146   56.4955   29.2593 H         1 UNK         0.0000 
     31 H31        -0.1943   52.7452   30.6206 H         1 UNK         0.0000 
     32 H32         7.5696   55.7019   21.5218 H         1 UNK         0.0000 
     33 H33         7.2439   56.1008   19.0828 H         1 UNK         0.0000 
     34 H34         3.7317   53.9004   19.0509 H         1 UNK         0.0000 
     35 H35         3.9074   53.4217   21.4857 H         1 UNK         0.0000 
     36 H36         2.5112   54.0328   24.8790 H         1 UNK         0.0000 
     37 H37         1.4552   53.9835   26.2362 H         1 UNK         0.0000 
@<TRIPOS>BOND
     1    1    6 ar   
     2    1    2 ar   
     3    1   28 1    
     4    2    3 ar   
     5    2   29 1    
     6    3    4 ar   
     7    3   30 1    
     8    4    5 ar   
     9    4   11 1    
    10    5    6 ar   
    11    5    7 1    
    12    6   31 1    
    13    7    8 1    
    14    7    9 1    
    15    7   10 1    
    16   11   15 ar   
    17   11   12 ar   
    18   12   13 ar   
    19   12   27 1    
    20   13   14 ar   
    21   13   16 1    
    22   14   15 ar   
    23   16   20 1    
    24   16   17 2    
    25   17   18 1    
    26   18   19 2    
    27   18   21 1    
    28   19   20 1    
    29   21   26 ar   
    30   21   22 ar   
    31   22   23 ar   
    32   22   32 1    
    33   23   24 ar   
    34   23   33 1    
    35   24   25 ar   
    36   25   26 ar   
    37   25   34 1    
    38   26   35 1    
    39   27   36 1    
    40   27   37 1    
@<TRIPOS>SUBSTRUCTURE
     1 UNK         1 GROUP             0       ****    0 ROOT    
