@<TRIPOS>MOLECULE
ZINC15991624_2455
56   59    1
SMALL
USER_CHARGES


@<TRIPOS>ATOM
      1 C1          9.0808   60.7237   16.3045 C.3       1 UNK         0.0000 
      2 C2          8.8241   59.6817   17.3876 C.2       1 UNK         0.0000 
      3 O3          9.3710   59.8240   18.4834 O.2       1 UNK         0.0000 
      4 N4          7.9758   58.6859   17.0529 N.am      1 UNK         0.0000 
      5 C5          7.5396   57.6089   17.8462 C.ar      1 UNK         0.0000 
      6 C6          8.2994   57.0428   18.8802 C.ar      1 UNK         0.0000 
      7 C7          7.7443   56.0532   19.6874 C.ar      1 UNK         0.0000 
      8 C8          6.4500   55.5822   19.4350 C.ar      1 UNK         0.0000 
      9 C9          5.7348   56.0754   18.3370 C.ar      1 UNK         0.0000 
     10 C10         6.2763   57.0898   17.5512 C.ar      1 UNK         0.0000 
     11 C11         5.7931   54.6141   20.3612 C.2       1 UNK         0.0000 
     12 C12         5.0015   53.5181   20.0042 C.2       1 UNK         0.0000 
     13 S13         4.3095   52.8019   21.4272 S.3       1 UNK         0.0000 
     14 C14         5.1474   53.9971   22.3596 C.2       1 UNK         0.0000 
     15 N15         5.9004   54.8177   21.6654 N.2       1 UNK         0.0000 
     16 N16         4.8727   54.0722   23.7130 N.am      1 UNK         0.0000 
     17 C17         5.6820   54.5417   24.6871 C.2       1 UNK         0.0000 
     18 O18         6.8463   54.8954   24.5068 O.2       1 UNK         0.0000 
     19 C19         5.0939   54.6072   26.1168 C.3       1 UNK         0.0000 
     20 C20         3.5967   54.2316   26.2184 C.3       1 UNK         0.0000 
     21 C21         3.1044   54.4756   27.6591 C.3       1 UNK         0.0000 
     22 N22         3.9368   53.6428   28.5502 N.am      1 UNK         0.0000 
     23 C23         5.3738   54.0004   28.5813 C.3       1 UNK         0.0000 
     24 C24         5.9525   53.8433   27.1518 C.3       1 UNK         0.0000 
     25 C25         3.4224   52.6923   29.3827 C.2       1 UNK         0.0000 
     26 O26         4.0883   52.1047   30.2381 O.2       1 UNK         0.0000 
     27 C27         1.9614   52.3421   29.2618 C.ar      1 UNK         0.0000 
     28 C28         1.4538   51.8431   28.0566 C.ar      1 UNK         0.0000 
     29 C29         0.1053   51.5276   27.9383 C.ar      1 UNK         0.0000 
     30 C30        -0.7390   51.6976   29.0307 C.ar      1 UNK         0.0000 
     31 C31        -0.2406   52.1781   30.2395 C.ar      1 UNK         0.0000 
     32 C32         1.1097   52.4957   30.3611 C.ar      1 UNK         0.0000 
     33 Cl33       -2.4108   51.2935   28.8819 Cl        1 UNK         0.0000 
     34 H34         8.2178   60.8351   15.6397 H         1 UNK         0.0000 
     35 H35         9.9674   60.4596   15.7213 H         1 UNK         0.0000 
     36 H36         9.2557   61.6951   16.7727 H         1 UNK         0.0000 
     37 H37         7.4898   58.7963   16.1762 H         1 UNK         0.0000 
     38 H38         9.3008   57.3876   19.0962 H         1 UNK         0.0000 
     39 H39         8.3158   55.6640   20.5202 H         1 UNK         0.0000 
     40 H40         4.7368   55.7160   18.1238 H         1 UNK         0.0000 
     41 H41         5.6894   57.4945   16.7368 H         1 UNK         0.0000 
     42 H42         4.7700   53.1311   19.0209 H         1 UNK         0.0000 
     43 H43         4.0099   53.6437   24.0109 H         1 UNK         0.0000 
     44 H44         5.2216   55.6636   26.3450 H         1 UNK         0.0000 
     45 H45         2.9927   54.8711   25.5746 H         1 UNK         0.0000 
     46 H46         3.4219   53.1789   25.9861 H         1 UNK         0.0000 
     47 H47         3.2799   55.5122   27.9448 H         1 UNK         0.0000 
     48 H48         2.0292   54.3416   27.7736 H         1 UNK         0.0000 
     49 H49         5.4581   55.0391   28.9039 H         1 UNK         0.0000 
     50 H50         5.9443   53.3862   29.2762 H         1 UNK         0.0000 
     51 H51         5.9461   52.7702   26.9611 H         1 UNK         0.0000 
     52 H52         6.9766   54.2190   27.1922 H         1 UNK         0.0000 
     53 H53         2.1022   51.7008   27.2067 H         1 UNK         0.0000 
     54 H54        -0.2857   51.1351   27.0103 H         1 UNK         0.0000 
     55 H55        -0.8966   52.2898   31.0905 H         1 UNK         0.0000 
     56 H56         1.4803   52.8588   31.3102 H         1 UNK         0.0000 
@<TRIPOS>BOND
     1    1    2 1    
     2    1   34 1    
     3    1   35 1    
     4    1   36 1    
     5    2    3 2    
     6    2    4 am   BACKBONE|DICT|INTERRES
     7    4    5 1    
     8    4   37 1    
     9    5   10 ar   
    10    5    6 ar   
    11    6    7 ar   
    12    6   38 1    
    13    7    8 ar   
    14    7   39 1    
    15    8    9 ar   
    16    8   11 1    
    17    9   10 ar   
    18    9   40 1    
    19   10   41 1    
    20   11   15 1    
    21   11   12 2    
    22   12   13 1    
    23   12   42 1    
    24   13   14 1    
    25   14   15 2    
    26   14   16 am   BACKBONE|DICT|INTERRES
    27   16   17 am   BACKBONE|DICT|INTERRES
    28   16   43 1    
    29   17   18 2    
    30   17   19 1    
    31   19   24 1    
    32   19   20 1    
    33   19   44 1    
    34   20   21 1    
    35   20   45 1    
    36   20   46 1    
    37   21   22 1    
    38   21   47 1    
    39   21   48 1    
    40   22   23 1    
    41   22   25 am   BACKBONE|DICT|INTERRES
    42   23   24 1    
    43   23   49 1    
    44   23   50 1    
    45   24   51 1    
    46   24   52 1    
    47   25   26 2    
    48   25   27 1    
    49   27   32 ar   
    50   27   28 ar   
    51   28   29 ar   
    52   28   53 1    
    53   29   30 ar   
    54   29   54 1    
    55   30   31 ar   
    56   30   33 1    
    57   31   32 ar   
    58   31   55 1    
    59   32   56 1    
@<TRIPOS>SUBSTRUCTURE
     1 UNK         1 GROUP             0       ****    0 ROOT    
