@<TRIPOS>MOLECULE
ZINC28676923_2911
54   57    1
SMALL
USER_CHARGES


@<TRIPOS>ATOM
      1 C1          6.7051   54.1050   24.1639 C.3       1 UNK         0.0000 
      2 C2          6.5266   55.3151   25.0934 C.3       1 UNK         0.0000 
      3 O3          6.6886   54.9772   26.4757 O.3       1 UNK         0.0000 
      4 C4          5.7230   54.4250   27.2774 C.2       1 UNK         0.0000 
      5 O5          5.9034   54.2087   28.4741 O.2       1 UNK         0.0000 
      6 N6          4.5078   54.0806   26.5841 N.pl3     1 UNK         0.0000 
      7 C7          3.3156   53.7466   27.0985 C.ar      1 UNK         0.0000 
      8 C8          2.3536   53.2940   26.1781 C.ar      1 UNK         0.0000 
      9 C9          1.1813   52.7391   26.5771 C.ar      1 UNK         0.0000 
     10 C10         0.8084   52.6527   27.9829 C.ar      1 UNK         0.0000 
     11 C11        -0.3007   52.0533   28.4942 C.2       1 UNK         0.0000 
     12 C12        -0.4745   52.0979   29.9486 C.2       1 UNK         0.0000 
     13 C13         0.4011   52.7623   30.7327 C.2       1 UNK         0.0000 
     14 O14         0.3046   52.8971   32.0816 O.3       1 UNK         0.0000 
     15 O15         1.4941   53.4021   30.2225 O.3       1 UNK         0.0000 
     16 C16         1.7631   53.2891   28.8908 C.ar      1 UNK         0.0000 
     17 C17         2.9512   53.7918   28.4637 C.ar      1 UNK         0.0000 
     18 C18        -1.3095   51.3070   27.6286 C.3       1 UNK         0.0000 
     19 S19        -2.2704   52.3567   26.4793 S.3       1 UNK         0.0000 
     20 C20        -3.5193   51.2279   25.9476 C.2       1 UNK         0.0000 
     21 N21        -4.6456   51.6041   25.3912 N.2       1 UNK         0.0000 
     22 N22        -5.5002   50.5436   25.1089 N.2       1 UNK         0.0000 
     23 C23        -5.0028   49.3815   25.4531 C.2       1 UNK         0.0000 
     24 S24        -3.3799   49.4968   26.0806 S.3       1 UNK         0.0000 
     25 N25        -5.6926   48.1978   25.3050 N.pl3     1 UNK         0.0000 
     26 C26        -5.4358   46.9157   25.8312 C.ar      1 UNK         0.0000 
     27 C27        -4.7306   46.7336   27.0313 C.ar      1 UNK         0.0000 
     28 C28        -4.4957   45.4589   27.5330 C.ar      1 UNK         0.0000 
     29 C29        -4.9876   44.3443   26.8612 C.ar      1 UNK         0.0000 
     30 C30        -5.7161   44.5073   25.6847 C.ar      1 UNK         0.0000 
     31 C31        -5.9533   45.7906   25.1577 C.ar      1 UNK         0.0000 
     32 O32        -6.6758   46.0128   23.9939 O.3       1 UNK         0.0000 
     33 C33        -7.2731   44.9124   23.3101 C.3       1 UNK         0.0000 
     34 H34         6.6123   54.4116   23.1208 H         1 UNK         0.0000 
     35 H35         5.9629   53.3268   24.3446 H         1 UNK         0.0000 
     36 H36         7.6924   53.6588   24.2804 H         1 UNK         0.0000 
     37 H37         7.2878   56.0578   24.8484 H         1 UNK         0.0000 
     38 H38         5.5673   55.8058   24.9231 H         1 UNK         0.0000 
     39 H39         4.6180   54.0316   25.5783 H         1 UNK         0.0000 
     40 H40         2.5753   53.3357   25.1211 H         1 UNK         0.0000 
     41 H41         0.4986   52.3826   25.8165 H         1 UNK         0.0000 
     42 H42        -1.3030   51.5821   30.4106 H         1 UNK         0.0000 
     43 H43         3.6106   54.2454   29.1887 H         1 UNK         0.0000 
     44 H44        -0.7912   50.5252   27.0693 H         1 UNK         0.0000 
     45 H45        -2.0056   50.7683   28.2744 H         1 UNK         0.0000 
     46 H46        -6.4192   48.1562   24.6030 H         1 UNK         0.0000 
     47 H47        -4.3593   47.5666   27.6091 H         1 UNK         0.0000 
     48 H48        -3.9274   45.3319   28.4451 H         1 UNK         0.0000 
     49 H49        -4.7973   43.3569   27.2597 H         1 UNK         0.0000 
     50 H50        -6.0935   43.6234   25.1959 H         1 UNK         0.0000 
     51 H51        -7.8189   45.2906   22.4442 H         1 UNK         0.0000 
     52 H52        -6.5192   44.2090   22.9458 H         1 UNK         0.0000 
     53 H53        -7.9854   44.3806   23.9473 H         1 UNK         0.0000 
     54 H54        -0.4472   52.3792   32.4401 H         1 UNK         0.0000 
@<TRIPOS>BOND
     1    1    2 1    
     2    1   34 1    
     3    1   35 1    
     4    1   36 1    
     5    2    3 1    
     6    2   37 1    
     7    2   38 1    
     8    3    4 1    
     9    4    5 2    
    10    4    6 1    
    11    6    7 2    
    12    6   39 1    
    13    7   17 ar   
    14    7    8 ar   
    15    8    9 ar   
    16    8   40 1    
    17    9   10 ar   
    18    9   41 1    
    19   10   16 ar   
    20   10   11 2    
    21   11   12 1    
    22   11   18 1    
    23   12   13 2    
    24   12   42 1    
    25   13   14 1    
    26   13   15 1    
    27   14   54 1    
    28   15   16 1    
    29   16   17 ar   
    30   17   43 1    
    31   18   19 1    
    32   18   44 1    
    33   18   45 1    
    34   19   20 1    
    35   20   24 1    
    36   20   21 2    
    37   21   22 1    
    38   22   23 2    
    39   23   24 1    
    40   23   25 1    
    41   25   26 1    
    42   25   46 1    
    43   26   31 ar   
    44   26   27 ar   
    45   27   28 ar   
    46   27   47 1    
    47   28   29 ar   
    48   28   48 1    
    49   29   30 ar   
    50   29   49 1    
    51   30   31 ar   
    52   30   50 1    
    53   31   32 1    
    54   32   33 1    
    55   33   51 1    
    56   33   52 1    
    57   33   53 1    
@<TRIPOS>SUBSTRUCTURE
     1 UNK         1 GROUP             0       ****    0 ROOT    
