@<TRIPOS>MOLECULE
ZINC33063333_4283
50   53    1
SMALL
USER_CHARGES


@<TRIPOS>ATOM
      1 C1          3.8527   54.7841   29.0905 C.ar      1 UNK         0.0000 
      2 C2          2.5676   54.8760   29.6200 C.ar      1 UNK         0.0000 
      3 C3          1.5258   54.1600   29.0354 C.ar      1 UNK         0.0000 
      4 C4          1.7480   53.3838   27.9043 C.ar      1 UNK         0.0000 
      5 C5          3.0251   53.3155   27.3550 C.ar      1 UNK         0.0000 
      6 C6          4.0883   54.0067   27.9529 C.ar      1 UNK         0.0000 
      7 C7          5.4950   53.9513   27.3596 C.3       1 UNK         0.0000 
      8 N8          5.5142   53.9009   25.8946 N.am      1 UNK         0.0000 
      9 C9          6.1219   54.7779   25.0788 C.2       1 UNK         0.0000 
     10 O10         6.8190   55.6966   25.5123 O.2       1 UNK         0.0000 
     11 C11         5.8968   54.6038   23.5887 C.ar      1 UNK         0.0000 
     12 C12         4.8397   53.8301   23.0753 C.ar      1 UNK         0.0000 
     13 C13         4.6154   53.7622   21.6998 C.ar      1 UNK         0.0000 
     14 C14         5.4257   54.4794   20.8084 C.ar      1 UNK         0.0000 
     15 C15         6.4769   55.2457   21.3129 C.ar      1 UNK         0.0000 
     16 C16         6.7071   55.2979   22.6856 C.ar      1 UNK         0.0000 
     17 C17         5.1983   54.4404   19.2926 C.3       1 UNK         0.0000 
     18 H18         5.3844   55.4685   18.9737 H         1 UNK         0.0000 
     19 N19         3.8209   54.1519   18.8967 N.pl3     1 UNK         0.0000 
     20 C20         3.4964   53.5342   17.6759 C.ar      1 UNK         0.0000 
     21 C21         2.1744   53.1268   17.4927 C.ar      1 UNK         0.0000 
     22 C22         1.7918   52.4160   16.3489 C.ar      1 UNK         0.0000 
     23 C23         2.7611   52.1062   15.3874 C.ar      1 UNK         0.0000 
     24 C24         4.0870   52.4983   15.5681 C.ar      1 UNK         0.0000 
     25 C25         4.4593   53.2194   16.7045 C.ar      1 UNK         0.0000 
     26 S26         6.1558   53.7245   16.8911 S.o2      1 UNK         0.0000 
     27 O27         6.2704   55.1313   16.4861 O.2       1 UNK         0.0000 
     28 O28         7.0396   52.7178   16.2904 O.2       1 UNK         0.0000 
     29 N29         6.2225   53.6171   18.6306 N.pl3     1 UNK         0.0000 
     30 C30         0.3350   51.9957   16.1457 C.3       1 UNK         0.0000 
     31 F31        -0.5035   52.8325   16.7642 F         1 UNK         0.0000 
     32 F32         0.0148   51.9780   14.8508 F         1 UNK         0.0000 
     33 F33         0.1580   50.7733   16.6470 F         1 UNK         0.0000 
     34 F34         0.2958   54.2136   29.5841 F         1 UNK         0.0000 
     35 H35         4.6633   55.3201   29.5601 H         1 UNK         0.0000 
     36 H36         2.3627   55.4951   30.4816 H         1 UNK         0.0000 
     37 H37         0.9311   52.8384   27.4542 H         1 UNK         0.0000 
     38 H38         3.1826   52.7171   26.4716 H         1 UNK         0.0000 
     39 H39         6.0751   54.7992   27.7359 H         1 UNK         0.0000 
     40 H40         5.9989   53.0621   27.7432 H         1 UNK         0.0000 
     41 H41         5.1055   53.0786   25.4763 H         1 UNK         0.0000 
     42 H42         4.1634   53.2969   23.7255 H         1 UNK         0.0000 
     43 H43         3.7944   53.1592   21.3327 H         1 UNK         0.0000 
     44 H44         7.1173   55.8012   20.6414 H         1 UNK         0.0000 
     45 H45         7.5177   55.9176   23.0435 H         1 UNK         0.0000 
     46 H46         3.0881   54.5024   19.5079 H         1 UNK         0.0000 
     47 H47         1.4399   53.3541   18.2541 H         1 UNK         0.0000 
     48 H48         2.4954   51.5469   14.5001 H         1 UNK         0.0000 
     49 H49         4.8259   52.2382   14.8254 H         1 UNK         0.0000 
     50 H50         6.2358   52.6489   18.9627 H         1 UNK         0.0000 
@<TRIPOS>BOND
     1    1    6 ar   
     2    1    2 ar   
     3    1   35 1    
     4    2    3 ar   
     5    2   36 1    
     6    3    4 ar   
     7    3   34 1    
     8    4    5 ar   
     9    4   37 1    
    10    5    6 ar   
    11    5   38 1    
    12    6    7 1    
    13    7    8 1    
    14    7   39 1    
    15    7   40 1    
    16    8    9 am   BACKBONE|DICT|INTERRES
    17    8   41 1    
    18    9   10 2    
    19    9   11 1    
    20   11   16 ar   
    21   11   12 ar   
    22   12   13 ar   
    23   12   42 1    
    24   13   14 ar   
    25   13   43 1    
    26   14   15 ar   
    27   14   17 1    
    28   15   16 ar   
    29   15   44 1    
    30   16   45 1    
    31   17   18 1    
    32   17   29 1    
    33   17   19 1    
    34   19   20 1    
    35   19   46 1    
    36   20   25 ar   
    37   20   21 ar   
    38   21   22 ar   
    39   21   47 1    
    40   22   23 ar   
    41   22   30 1    
    42   23   24 ar   
    43   23   48 1    
    44   24   25 ar   
    45   24   49 1    
    46   25   26 1    
    47   26   27 2    
    48   26   28 2    
    49   26   29 1    
    50   29   50 1    
    51   30   31 1    
    52   30   32 1    
    53   30   33 1    
@<TRIPOS>SUBSTRUCTURE
     1 UNK         1 GROUP             0       ****    0 ROOT    
