@<TRIPOS>MOLECULE
ZINC04095177_4694
31   33    1
SMALL
USER_CHARGES


@<TRIPOS>ATOM
      1 C1          1.8342   56.0971   29.6938 C.3       1 UNK         0.0000 
      2 C2          1.2463   54.7063   29.7484 C.ar      1 UNK         0.0000 
      3 C3          1.2381   53.7347   28.7321 C.ar      1 UNK         0.0000 
      4 C4          0.5631   52.6758   29.3010 C.ar      1 UNK         0.0000 
      5 N5          0.2322   53.0268   30.5737 N.pl3     1 UNK         0.0000 
      6 H6         -0.2854   52.4564   31.2328 H         1 UNK         0.0000 
      7 N7          0.6418   54.2740   30.8457 N.2       1 UNK         0.0000 
      8 O8          0.2153   51.4839   28.7190 O.3       1 UNK         0.0000 
      9 C9          0.4758   51.4432   27.3779 C.2       1 UNK         0.0000 
     10 C10         1.1502   52.3809   26.6571 C.2       1 UNK         0.0000 
     11 C11         1.7738   53.6382   27.3014 C.3       1 UNK         0.0000 
     12 H12         1.3637   54.4967   26.7815 H         1 UNK         0.0000 
     13 C13         3.2968   53.8114   27.1153 C.ar      1 UNK         0.0000 
     14 C14         4.2239   53.4113   28.0968 C.ar      1 UNK         0.0000 
     15 C15         5.5892   53.6537   27.9209 C.ar      1 UNK         0.0000 
     16 C16         6.0547   54.2651   26.7601 C.ar      1 UNK         0.0000 
     17 C17         5.1555   54.6335   25.7642 C.ar      1 UNK         0.0000 
     18 C18         3.7891   54.4066   25.9369 C.ar      1 UNK         0.0000 
     19 F19         2.9445   54.7788   24.9465 F         1 UNK         0.0000 
     20 F20         5.6080   55.2249   24.6334 F         1 UNK         0.0000 
     21 F21         7.3788   54.4981   26.5999 F         1 UNK         0.0000 
     22 F22         6.4696   53.2974   28.8814 F         1 UNK         0.0000 
     23 F23         3.8204   52.7898   29.2305 F         1 UNK         0.0000 
     24 C24         1.2457   52.2430   25.2385 C.1       1 UNK         0.0000 
     25 N25         1.2989   52.1279   24.0889 N.1       1 UNK         0.0000 
     26 N26        -0.0955   50.3012   26.8816 N.pl3     1 UNK         0.0000 
     27 H27         1.4779   56.6498   28.8249 H         1 UNK         0.0000 
     28 H28         2.9215   56.0640   29.6266 H         1 UNK         0.0000 
     29 H29         1.5867   56.6970   30.5712 H         1 UNK         0.0000 
     30 H30         0.0141   50.0385   25.9140 H         1 UNK         0.0000 
     31 H31        -0.5806   49.6378   27.4887 H         1 UNK         0.0000 
@<TRIPOS>BOND
     1    1    2 1    
     2    1   27 1    
     3    1   28 1    
     4    1   29 1    
     5    2    7 ar   
     6    2    3 ar   
     7    3   11 1    
     8    3    4 ar   
     9    4    5 ar   
    10    4    8 1    
    11    5    6 1    
    12    5    7 ar   
    13    8    9 1    
    14    9   10 2    
    15    9   26 1    
    16   10   11 1    
    17   10   24 1    
    18   11   12 1    
    19   11   13 1    
    20   13   18 ar   
    21   13   14 ar   
    22   14   15 ar   
    23   14   23 1    
    24   15   16 ar   
    25   15   22 1    
    26   16   17 ar   
    27   16   21 1    
    28   17   18 ar   
    29   17   20 1    
    30   18   19 1    
    31   24   25 3    
    32   26   30 1    
    33   26   31 1    
@<TRIPOS>SUBSTRUCTURE
     1 UNK         1 GROUP             0       ****    0 ROOT    
