@<TRIPOS>MOLECULE
ZINC37042096_3580
33   34    1
SMALL
USER_CHARGES


@<TRIPOS>ATOM
      1 C1          5.8803   55.0365   18.3407 C.3       1 UNK         0.0000 
      2 C2          5.9434   54.9071   19.8571 C.ar      1 UNK         0.0000 
      3 C3          4.9136   54.2346   20.5229 C.ar      1 UNK         0.0000 
      4 C4          4.9437   54.0918   21.9080 C.ar      1 UNK         0.0000 
      5 C5          6.0029   54.6250   22.6627 C.ar      1 UNK         0.0000 
      6 C6          7.0341   55.2960   21.9875 C.ar      1 UNK         0.0000 
      7 C7          7.0122   55.4354   20.5984 C.ar      1 UNK         0.0000 
      8 N8          8.0725   56.0941   19.9752 N.pl3     1 UNK         0.0000 
      9 C9          6.0339   54.4972   24.1681 C.2       1 UNK         0.0000 
     10 O10         7.1043   54.4397   24.7712 O.2       1 UNK         0.0000 
     11 N11         4.8201   54.4790   24.7609 N.am      1 UNK         0.0000 
     12 C12         4.4782   54.2073   26.1001 C.ar      1 UNK         0.0000 
     13 C13         5.3892   54.4096   27.1514 C.ar      1 UNK         0.0000 
     14 C14         5.0668   54.0505   28.4542 C.ar      1 UNK         0.0000 
     15 C15         3.8277   53.4821   28.7258 C.ar      1 UNK         0.0000 
     16 C16         2.8932   53.3257   27.7059 C.ar      1 UNK         0.0000 
     17 C17         3.1863   53.6966   26.3825 C.ar      1 UNK         0.0000 
     18 N18         2.1268   53.5216   25.3456 N.pl3     1 UNK         0.0000 
     19 O19         1.1527   52.8258   25.6208 O.co2     1 UNK         0.0000 
     20 O20         2.2269   54.0941   24.2626 O.co2     1 UNK         0.0000 
     21 Br21        3.4131   52.8958   30.4852 Br        1 UNK         0.0000 
     22 H22         6.7510   54.5663   17.8827 H         1 UNK         0.0000 
     23 H23         4.9870   54.5724   17.9216 H         1 UNK         0.0000 
     24 H24         5.8833   56.0876   18.0507 H         1 UNK         0.0000 
     25 H25         4.0865   53.8163   19.9687 H         1 UNK         0.0000 
     26 H26         4.1319   53.5567   22.3767 H         1 UNK         0.0000 
     27 H27         7.8648   55.7116   22.5381 H         1 UNK         0.0000 
     28 H28         8.8962   56.3138   20.5194 H         1 UNK         0.0000 
     29 H29         8.1484   56.0283   18.9694 H         1 UNK         0.0000 
     30 H30         4.0252   54.5236   24.1354 H         1 UNK         0.0000 
     31 H31         6.3651   54.8381   26.9865 H         1 UNK         0.0000 
     32 H32         5.7866   54.1977   29.2464 H         1 UNK         0.0000 
     33 H33         1.9304   52.9003   27.9568 H         1 UNK         0.0000 
@<TRIPOS>BOND
     1    1    2 1    
     2    1   22 1    
     3    1   23 1    
     4    1   24 1    
     5    2    7 ar   
     6    2    3 ar   
     7    3    4 ar   
     8    3   25 1    
     9    4    5 ar   
    10    4   26 1    
    11    5    6 ar   
    12    5    9 1    
    13    6    7 ar   
    14    6   27 1    
    15    7    8 1    
    16    8   28 1    
    17    8   29 1    
    18    9   10 2    
    19    9   11 am   BACKBONE|DICT|INTERRES
    20   11   12 1    
    21   11   30 1    
    22   12   17 ar   
    23   12   13 ar   
    24   13   14 ar   
    25   13   31 1    
    26   14   15 ar   
    27   14   32 1    
    28   15   16 ar   
    29   15   21 1    
    30   16   17 ar   
    31   16   33 1    
    32   17   18 1    
    33   18   19 2    
    34   18   20 1    
@<TRIPOS>SUBSTRUCTURE
     1 UNK         1 GROUP             0       ****    0 ROOT    
