@<TRIPOS>MOLECULE
ZINC08692066_5510
69   73    1
SMALL
USER_CHARGES


@<TRIPOS>ATOM
      1 C1          1.8914   52.0687   19.2022 C.3       1 UNK         0.0000 
      2 C2          0.5316   51.8774   19.8940 C.2       1 UNK         0.0000 
      3 N3         -0.6103   52.0928   19.3595 N.2       1 UNK         0.0000 
      4 N4         -0.6444   52.5742   18.1017 N.am      1 UNK         0.0000 
      5 C5         -1.7948   52.9814   17.5318 C.2       1 UNK         0.0000 
      6 O6         -2.8995   52.9033   18.0817 O.2       1 UNK         0.0000 
      7 C7         -1.6712   53.6116   16.1266 C.3       1 UNK         0.0000 
      8 H8         -0.7608   53.2758   15.6258 H         1 UNK         0.0000 
      9 C9         -1.5662   55.1381   16.2625 C.ar      1 UNK         0.0000 
     10 C10        -0.3790   55.7022   16.7476 C.ar      1 UNK         0.0000 
     11 C11        -0.2640   57.0809   16.8814 C.ar      1 UNK         0.0000 
     12 C12        -1.3313   57.9022   16.5336 C.ar      1 UNK         0.0000 
     13 C13        -2.5226   57.3539   16.0659 C.ar      1 UNK         0.0000 
     14 C14        -2.6417   55.9739   15.9303 C.ar      1 UNK         0.0000 
     15 O15        -2.8067   53.2670   15.3180 O.3       1 UNK         0.0000 
     16 C16        -2.8213   51.9375   14.8055 C.3       1 UNK         0.0000 
     17 C17         0.5739   51.3497   21.2744 C.ar      1 UNK         0.0000 
     18 C18         1.5840   50.4746   21.6975 C.ar      1 UNK         0.0000 
     19 C19         1.5983   49.9755   22.9978 C.ar      1 UNK         0.0000 
     20 C20         0.6038   50.3427   23.9043 C.ar      1 UNK         0.0000 
     21 C21        -0.4330   51.2163   23.5056 C.ar      1 UNK         0.0000 
     22 C22        -0.4197   51.7067   22.1999 C.ar      1 UNK         0.0000 
     23 C23        -1.4994   51.6193   24.5209 C.3       1 UNK         0.0000 
     24 H24        -1.1217   52.5122   25.0241 H         1 UNK         0.0000 
     25 C25        -2.9329   51.8839   24.1063 C.2       1 UNK         0.0000 
     26 C26        -3.7659   51.4740   25.0866 C.2       1 UNK         0.0000 
     27 C27        -3.0027   50.7689   26.2012 C.3       1 UNK         0.0000 
     28 C28        -1.6880   50.4617   25.4878 C.3       1 UNK         0.0000 
     29 H29        -1.8971   49.5504   24.9163 H         1 UNK         0.0000 
     30 C30        -0.3578   50.1678   26.2380 C.3       1 UNK         0.0000 
     31 H31        -0.4906   49.2959   26.8779 H         1 UNK         0.0000 
     32 N32         0.6492   49.8029   25.2176 N.pl3     1 UNK         0.0000 
     33 C33         0.0300   51.2967   27.2045 C.ar      1 UNK         0.0000 
     34 C34         0.9581   52.2845   26.8606 C.ar      1 UNK         0.0000 
     35 C35         1.2359   53.3179   27.7476 C.ar      1 UNK         0.0000 
     36 C36         0.5943   53.3791   28.9952 C.ar      1 UNK         0.0000 
     37 C37        -0.2928   52.3602   29.3544 C.ar      1 UNK         0.0000 
     38 C38        -0.5792   51.3395   28.4594 C.ar      1 UNK         0.0000 
     39 C39         0.8088   54.5168   29.9439 C.2       1 UNK         0.0000 
     40 O40         0.3042   54.5732   31.0684 O.2       1 UNK         0.0000 
     41 O41         1.5790   55.4954   29.4208 O.3       1 UNK         0.0000 
     42 C42         1.8366   56.6887   30.1396 C.3       1 UNK         0.0000 
     43 H43         2.6511   52.4139   19.9047 H         1 UNK         0.0000 
     44 H44         2.2418   51.1244   18.7804 H         1 UNK         0.0000 
     45 H45         1.8664   52.7839   18.3771 H         1 UNK         0.0000 
     46 H46         0.2476   52.6759   17.6440 H         1 UNK         0.0000 
     47 H47         0.4638   55.0769   17.0187 H         1 UNK         0.0000 
     48 H48         0.6536   57.5182   17.2514 H         1 UNK         0.0000 
     49 H49        -1.2309   58.9752   16.6293 H         1 UNK         0.0000 
     50 H50        -3.3507   57.9962   15.8023 H         1 UNK         0.0000 
     51 H51        -3.5725   55.5587   15.5635 H         1 UNK         0.0000 
     52 H52        -3.7179   51.7925   14.2013 H         1 UNK         0.0000 
     53 H53        -1.9561   51.7508   14.1659 H         1 UNK         0.0000 
     54 H54        -2.8350   51.1922   15.6031 H         1 UNK         0.0000 
     55 H55         2.3700   50.1618   21.0208 H         1 UNK         0.0000 
     56 H56         2.3850   49.2978   23.2903 H         1 UNK         0.0000 
     57 H57        -1.2095   52.3851   21.9023 H         1 UNK         0.0000 
     58 H58        -3.2023   52.4309   23.2171 H         1 UNK         0.0000 
     59 H59        -4.8367   51.5985   25.1069 H         1 UNK         0.0000 
     60 H60        -3.4900   49.8473   26.5278 H         1 UNK         0.0000 
     61 H61        -2.8855   51.4044   27.0797 H         1 UNK         0.0000 
     62 H62         1.3445   49.1205   25.4967 H         1 UNK         0.0000 
     63 H63         1.4465   52.2662   25.8952 H         1 UNK         0.0000 
     64 H64         1.9390   54.0784   27.4359 H         1 UNK         0.0000 
     65 H65        -0.7942   52.3590   30.3142 H         1 UNK         0.0000 
     66 H66        -1.3003   50.5816   28.7365 H         1 UNK         0.0000 
     67 H67         2.5283   57.2959   29.5585 H         1 UNK         0.0000 
     68 H68         0.9252   57.2649   30.3035 H         1 UNK         0.0000 
     69 H69         2.2912   56.4850   31.1071 H         1 UNK         0.0000 
@<TRIPOS>BOND
     1    1    2 1    
     2    1   43 1    
     3    1   44 1    
     4    1   45 1    
     5    2    3 2    
     6    2   17 1    
     7    3    4 1    
     8    4    5 am   BACKBONE|DICT|INTERRES
     9    4   46 1    
    10    5    6 2    
    11    5    7 1    
    12    7    8 1    
    13    7    9 1    
    14    7   15 1    
    15    9   14 ar   
    16    9   10 ar   
    17   10   11 ar   
    18   10   47 1    
    19   11   12 ar   
    20   11   48 1    
    21   12   13 ar   
    22   12   49 1    
    23   13   14 ar   
    24   13   50 1    
    25   14   51 1    
    26   15   16 1    
    27   16   52 1    
    28   16   53 1    
    29   16   54 1    
    30   17   22 ar   
    31   17   18 ar   
    32   18   19 ar   
    33   18   55 1    
    34   19   20 ar   
    35   19   56 1    
    36   20   32 1    
    37   20   21 ar   
    38   21   22 ar   
    39   21   23 1    
    40   22   57 1    
    41   23   24 1    
    42   23   28 1    
    43   23   25 1    
    44   25   26 2    
    45   25   58 1    
    46   26   27 1    
    47   26   59 1    
    48   27   28 1    
    49   27   60 1    
    50   27   61 1    
    51   28   29 1    
    52   28   30 1    
    53   30   31 1    
    54   30   32 1    
    55   30   33 1    
    56   32   62 1    
    57   33   38 ar   
    58   33   34 ar   
    59   34   35 ar   
    60   34   63 1    
    61   35   36 ar   
    62   35   64 1    
    63   36   37 ar   
    64   36   39 1    
    65   37   38 ar   
    66   37   65 1    
    67   38   66 1    
    68   39   40 2    
    69   39   41 1    
    70   41   42 1    
    71   42   67 1    
    72   42   68 1    
    73   42   69 1    
@<TRIPOS>SUBSTRUCTURE
     1 UNK         1 GROUP             0       ****    0 ROOT    
