@<TRIPOS>MOLECULE
ZINC39853481_5251
72   76    1
SMALL
USER_CHARGES


@<TRIPOS>ATOM
      1 C1          9.1704   56.0005   18.6330 C.3       1 UNK         0.0000 
      2 C2          7.8385   56.6601   18.3050 C.2       1 UNK         0.0000 
      3 O3          7.5250   57.6965   18.8857 O.2       1 UNK         0.0000 
      4 N4          7.0705   56.0147   17.4076 N.am      1 UNK         0.0000 
      5 C5          5.8008   56.3868   16.9836 C.2       1 UNK         0.0000 
      6 C6          4.8044   55.4997   16.5462 C.2       1 UNK         0.0000 
      7 C7          3.6451   56.2133   16.1407 C.2       1 UNK         0.0000 
      8 C8          3.7788   57.6042   16.2796 C.2       1 UNK         0.0000 
      9 S9          5.3230   58.0603   16.8818 S.3       1 UNK         0.0000 
     10 C10         2.7482   58.6424   15.8687 C.3       1 UNK         0.0000 
     11 C11         1.3825   57.9496   15.6896 C.3       1 UNK         0.0000 
     12 C12         1.5100   56.6689   14.8461 C.3       1 UNK         0.0000 
     13 C13         2.3747   55.5941   15.5438 C.3       1 UNK         0.0000 
     14 C14         4.9611   53.9650   16.4911 C.3       1 UNK         0.0000 
     15 H15         4.2124   53.5563   15.8123 H         1 UNK         0.0000 
     16 C16         6.2791   53.4759   15.8600 C.ar      1 UNK         0.0000 
     17 C17         7.1029   52.5246   16.4777 C.ar      1 UNK         0.0000 
     18 C18         8.2598   52.0728   15.8489 C.ar      1 UNK         0.0000 
     19 C19         8.6110   52.5585   14.5817 C.ar      1 UNK         0.0000 
     20 C20         7.7967   53.5095   13.9708 C.ar      1 UNK         0.0000 
     21 C21         6.6380   53.9591   14.5972 C.ar      1 UNK         0.0000 
     22 O22         9.7211   52.1515   13.8679 O.3       1 UNK         0.0000 
     23 C23        10.5355   51.0999   14.3806 C.3       1 UNK         0.0000 
     24 N24         4.5765   53.2955   17.8479 N.4       1 UNK         0.0000 
     25 C25         3.0466   53.2579   18.0846 C.3       1 UNK         0.0000 
     26 C26         2.7742   52.3697   19.3120 C.3       1 UNK         0.0000 
     27 C27         3.4744   52.9214   20.5718 C.3       1 UNK         0.0000 
     28 C28         4.9900   52.9869   20.2922 C.3       1 UNK         0.0000 
     29 C29         5.3174   53.8726   19.0809 C.3       1 UNK         0.0000 
     30 C30         3.2143   52.0806   21.8420 C.3       1 UNK         0.0000 
     31 C31         1.7654   52.0258   22.3081 C.ar      1 UNK         0.0000 
     32 C32         1.2903   52.9769   23.2143 C.ar      1 UNK         0.0000 
     33 C33        -0.0191   52.8968   23.6817 C.ar      1 UNK         0.0000 
     34 C34        -0.8541   51.8758   23.2302 C.ar      1 UNK         0.0000 
     35 C35        -0.3883   50.9271   22.3228 C.ar      1 UNK         0.0000 
     36 C36         0.9254   50.9991   21.8650 C.ar      1 UNK         0.0000 
     37 H37         9.0724   55.3552   19.5065 H         1 UNK         0.0000 
     38 H38         9.5457   55.4055   17.7991 H         1 UNK         0.0000 
     39 H39         9.9073   56.7682   18.8652 H         1 UNK         0.0000 
     40 H40         7.3829   55.1053   17.1001 H         1 UNK         0.0000 
     41 H41         3.0478   59.1039   14.9268 H         1 UNK         0.0000 
     42 H42         2.6940   59.4511   16.5998 H         1 UNK         0.0000 
     43 H43         0.6799   58.6419   15.2238 H         1 UNK         0.0000 
     44 H44         0.9606   57.7027   16.6660 H         1 UNK         0.0000 
     45 H45         1.9450   56.9173   13.8759 H         1 UNK         0.0000 
     46 H46         0.5208   56.2611   14.6339 H         1 UNK         0.0000 
     47 H47         1.7826   55.1278   16.3291 H         1 UNK         0.0000 
     48 H48         2.6080   54.8060   14.8277 H         1 UNK         0.0000 
     49 H49         6.8498   52.0975   17.4367 H         1 UNK         0.0000 
     50 H50         8.8622   51.3310   16.3526 H         1 UNK         0.0000 
     51 H51         8.0589   53.8869   12.9932 H         1 UNK         0.0000 
     52 H52         6.0146   54.6830   14.0914 H         1 UNK         0.0000 
     53 H53        11.3284   50.8776   13.6659 H         1 UNK         0.0000 
     54 H54        11.0080   51.3826   15.3226 H         1 UNK         0.0000 
     55 H55         9.9636   50.1820   14.5275 H         1 UNK         0.0000 
     56 H56         2.7046   54.2851   18.2179 H         1 UNK         0.0000 
     57 H57         2.5935   52.8072   17.2003 H         1 UNK         0.0000 
     58 H58         1.6996   52.2962   19.4807 H         1 UNK         0.0000 
     59 H59         3.0975   51.3452   19.1152 H         1 UNK         0.0000 
     60 H60         3.1092   53.9364   20.7446 H         1 UNK         0.0000 
     61 H61         5.3917   51.9821   20.1456 H         1 UNK         0.0000 
     62 H62         5.5046   53.3698   21.1740 H         1 UNK         0.0000 
     63 H63         6.3856   53.8253   18.8743 H         1 UNK         0.0000 
     64 H64         5.0029   54.9086   19.2197 H         1 UNK         0.0000 
     65 H65         3.5839   51.0618   21.7083 H         1 UNK         0.0000 
     66 H66         3.8053   52.4967   22.6583 H         1 UNK         0.0000 
     67 H67         1.9356   53.7703   23.5655 H         1 UNK         0.0000 
     68 H68        -0.3861   53.6266   24.3874 H         1 UNK         0.0000 
     69 H69        -1.8695   51.8162   23.5944 H         1 UNK         0.0000 
     70 H70        -1.0388   50.1326   21.9831 H         1 UNK         0.0000 
     71 H71         1.2902   50.2553   21.1719 H         1 UNK         0.0000 
     72 H72         4.8588   52.3222   17.7501 H         1 UNK         0.0000 
@<TRIPOS>BOND
     1    1    2 1    
     2    1   37 1    
     3    1   38 1    
     4    1   39 1    
     5    2    3 2    
     6    2    4 am   BACKBONE|DICT|INTERRES
     7    4    5 am   BACKBONE|DICT|INTERRES
     8    4   40 1    
     9    5    9 1    
    10    5    6 2    
    11    6    7 1    
    12    6   14 1    
    13    7   13 1    
    14    7    8 2    
    15    8    9 1    
    16    8   10 1    
    17   10   11 1    
    18   10   41 1    
    19   10   42 1    
    20   11   12 1    
    21   11   43 1    
    22   11   44 1    
    23   12   13 1    
    24   12   45 1    
    25   12   46 1    
    26   13   47 1    
    27   13   48 1    
    28   14   15 1    
    29   14   16 1    
    30   14   24 1    
    31   16   21 ar   
    32   16   17 ar   
    33   17   18 ar   
    34   17   49 1    
    35   18   19 ar   
    36   18   50 1    
    37   19   20 ar   
    38   19   22 1    
    39   20   21 ar   
    40   20   51 1    
    41   21   52 1    
    42   22   23 1    
    43   23   53 1    
    44   23   54 1    
    45   23   55 1    
    46   24   29 1    
    47   24   25 1    
    48   24   72 1    
    49   25   26 1    
    50   25   56 1    
    51   25   57 1    
    52   26   27 1    
    53   26   58 1    
    54   26   59 1    
    55   27   28 1    
    56   27   30 1    
    57   27   60 1    
    58   28   29 1    
    59   28   61 1    
    60   28   62 1    
    61   29   63 1    
    62   29   64 1    
    63   30   31 1    
    64   30   65 1    
    65   30   66 1    
    66   31   36 ar   
    67   31   32 ar   
    68   32   33 ar   
    69   32   67 1    
    70   33   34 ar   
    71   33   68 1    
    72   34   35 ar   
    73   34   69 1    
    74   35   36 ar   
    75   35   70 1    
    76   36   71 1    
@<TRIPOS>SUBSTRUCTURE
     1 UNK         1 GROUP             0       ****    0 ROOT    
