@<TRIPOS>MOLECULE
ZINC21520850_4776
41   42    1
SMALL
USER_CHARGES


@<TRIPOS>ATOM
      1 C1          6.9522   54.0216   23.6749 C.3       1 UNK         0.0000 
      2 C2          5.9008   54.1978   24.7628 C.ar      1 UNK         0.0000 
      3 C3          6.3049   54.2467   26.1012 C.ar      1 UNK         0.0000 
      4 C4          5.3653   54.3928   27.1205 C.ar      1 UNK         0.0000 
      5 C5          4.0085   54.4904   26.8080 C.ar      1 UNK         0.0000 
      6 C6          3.6004   54.4384   25.4729 C.ar      1 UNK         0.0000 
      7 C7          4.5337   54.2839   24.4465 C.ar      1 UNK         0.0000 
      8 C8          4.0443   54.2222   23.0066 C.3       1 UNK         0.0000 
      9 N9          3.0710   54.7047   27.8229 N.pl3     1 UNK         0.0000 
     10 S10         2.4996   53.4170   28.8942 S.o2      1 UNK         0.0000 
     11 O11         1.9722   54.0952   30.0823 O.2       1 UNK         0.0000 
     12 O12         3.5750   52.4275   29.0195 O.2       1 UNK         0.0000 
     13 C13         1.1158   52.6229   28.0725 C.ar      1 UNK         0.0000 
     14 C14        -0.0524   52.3263   28.7781 C.ar      1 UNK         0.0000 
     15 C15        -1.1191   51.6805   28.1469 C.ar      1 UNK         0.0000 
     16 C16        -1.0293   51.3356   26.7840 C.ar      1 UNK         0.0000 
     17 C17         0.1531   51.6338   26.0837 C.ar      1 UNK         0.0000 
     18 C18         1.2126   52.2596   26.7342 C.ar      1 UNK         0.0000 
     19 N19         0.3228   51.2964   24.7394 N.pl3     1 UNK         0.0000 
     20 C20        -2.2001   50.6405   26.0851 C.3       1 UNK         0.0000 
     21 C21        -2.3326   51.2957   28.9827 C.3       1 UNK         0.0000 
     22 H22         7.1031   54.9577   23.1345 H         1 UNK         0.0000 
     23 H23         7.9051   53.6847   24.0822 H         1 UNK         0.0000 
     24 H24         6.6342   53.2661   22.9553 H         1 UNK         0.0000 
     25 H25         7.3499   54.1641   26.3629 H         1 UNK         0.0000 
     26 H26         5.6933   54.4329   28.1495 H         1 UNK         0.0000 
     27 H27         2.5496   54.4984   25.2317 H         1 UNK         0.0000 
     28 H28         4.1560   53.2145   22.6060 H         1 UNK         0.0000 
     29 H29         3.0012   54.5275   22.9110 H         1 UNK         0.0000 
     30 H30         4.6256   54.8950   22.3759 H         1 UNK         0.0000 
     31 H31         2.6810   55.6262   27.9421 H         1 UNK         0.0000 
     32 H32        -0.1199   52.5753   29.8279 H         1 UNK         0.0000 
     33 H33         2.1271   52.4443   26.1979 H         1 UNK         0.0000 
     34 H34         1.2293   51.4363   24.3167 H         1 UNK         0.0000 
     35 H35        -0.3180   50.6251   24.3379 H         1 UNK         0.0000 
     36 H36        -2.2309   50.8514   25.0145 H         1 UNK         0.0000 
     37 H37        -3.1575   50.9910   26.4733 H         1 UNK         0.0000 
     38 H38        -2.1384   49.5604   26.2332 H         1 UNK         0.0000 
     39 H39        -2.0965   51.2945   30.0495 H         1 UNK         0.0000 
     40 H40        -3.1873   51.9385   28.7776 H         1 UNK         0.0000 
     41 H41        -2.6480   50.2774   28.7562 H         1 UNK         0.0000 
@<TRIPOS>BOND
     1    1    2 1    
     2    1   22 1    
     3    1   23 1    
     4    1   24 1    
     5    2    7 ar   
     6    2    3 ar   
     7    3    4 ar   
     8    3   25 1    
     9    4    5 ar   
    10    4   26 1    
    11    5    6 ar   
    12    5    9 1    
    13    6    7 ar   
    14    6   27 1    
    15    7    8 1    
    16    8   28 1    
    17    8   29 1    
    18    8   30 1    
    19    9   10 1    
    20    9   31 1    
    21   10   11 2    
    22   10   12 2    
    23   10   13 1    
    24   13   18 ar   
    25   13   14 ar   
    26   14   15 ar   
    27   14   32 1    
    28   15   16 ar   
    29   15   21 1    
    30   16   17 ar   
    31   16   20 1    
    32   17   18 ar   
    33   17   19 1    
    34   18   33 1    
    35   19   34 1    
    36   19   35 1    
    37   20   36 1    
    38   20   37 1    
    39   20   38 1    
    40   21   39 1    
    41   21   40 1    
    42   21   41 1    
@<TRIPOS>SUBSTRUCTURE
     1 UNK         1 GROUP             0       ****    0 ROOT    
