@<TRIPOS>MOLECULE
ZINC67337745_2586
45   47    1
SMALL
USER_CHARGES


@<TRIPOS>ATOM
      1 C1          4.4397   58.4297   16.4838 C.ar      1 UNK         0.0000 
      2 C2          4.9375   57.1479   16.7157 C.ar      1 UNK         0.0000 
      3 C3          4.0990   56.0369   16.5922 C.ar      1 UNK         0.0000 
      4 C4          2.7629   56.2205   16.2166 C.ar      1 UNK         0.0000 
      5 C5          2.2517   57.5035   15.9906 C.ar      1 UNK         0.0000 
      6 C6          3.1031   58.6067   16.1264 C.ar      1 UNK         0.0000 
      7 C7          0.7831   57.6699   15.6063 C.3       1 UNK         0.0000 
      8 F8          0.0136   57.2972   16.6301 F         1 UNK         0.0000 
      9 F9          0.4770   58.9276   15.2813 F         1 UNK         0.0000 
     10 F10         0.4970   56.8946   14.5599 F         1 UNK         0.0000 
     11 C11         4.6307   54.6333   16.8433 C.3       1 UNK         0.0000 
     12 N12         4.0386   54.0552   18.0467 N.am      1 UNK         0.0000 
     13 C13         4.7081   53.6960   19.1494 C.2       1 UNK         0.0000 
     14 O14         5.9007   53.3795   19.1643 O.2       1 UNK         0.0000 
     15 N15         3.9047   53.7872   20.2298 N.am      1 UNK         0.0000 
     16 N16         4.3625   53.4859   21.5189 N.am      1 UNK         0.0000 
     17 C17         5.2275   54.2917   22.1731 C.2       1 UNK         0.0000 
     18 O18         5.7501   55.2965   21.6817 O.2       1 UNK         0.0000 
     19 C19         5.5326   53.8562   23.6172 C.3       1 UNK         0.0000 
     20 H20         5.1196   52.8977   23.8904 H         1 UNK         0.0000 
     21 C21         6.8653   54.2692   24.1905 C.3       1 UNK         0.0000 
     22 C22         5.5972   54.8982   24.7204 C.3       1 UNK         0.0000 
     23 H23         5.5050   55.9544   24.4806 H         1 UNK         0.0000 
     24 C24         5.0615   54.6088   26.1058 C.ar      1 UNK         0.0000 
     25 C25         5.9147   54.6976   27.2065 C.ar      1 UNK         0.0000 
     26 C26         5.4107   54.4951   28.4860 C.ar      1 UNK         0.0000 
     27 C27         4.0612   54.1958   28.6657 C.ar      1 UNK         0.0000 
     28 C28         3.2105   54.0890   27.5667 C.ar      1 UNK         0.0000 
     29 C29         3.7105   54.2993   26.2833 C.ar      1 UNK         0.0000 
     30 F30         3.5750   54.0169   29.9154 F         1 UNK         0.0000 
     31 H31         5.0811   59.2955   16.5904 H         1 UNK         0.0000 
     32 H32         5.9721   57.0255   16.9995 H         1 UNK         0.0000 
     33 H33         2.1149   55.3622   16.1148 H         1 UNK         0.0000 
     34 H34         2.7420   59.6145   15.9754 H         1 UNK         0.0000 
     35 H35         5.7224   54.6440   16.8837 H         1 UNK         0.0000 
     36 H36         4.3709   53.9922   15.9989 H         1 UNK         0.0000 
     37 H37         3.0329   53.9716   18.0515 H         1 UNK         0.0000 
     38 H38         3.0063   54.2515   20.2248 H         1 UNK         0.0000 
     39 H39         3.9993   52.6157   21.8779 H         1 UNK         0.0000 
     40 H40         7.5044   54.9008   23.5821 H         1 UNK         0.0000 
     41 H41         7.4224   53.5558   24.7967 H         1 UNK         0.0000 
     42 H42         6.9569   54.9427   27.0794 H         1 UNK         0.0000 
     43 H43         6.0672   54.5782   29.3366 H         1 UNK         0.0000 
     44 H44         2.1656   53.8590   27.7132 H         1 UNK         0.0000 
     45 H45         3.0487   54.2358   25.4313 H         1 UNK         0.0000 
@<TRIPOS>BOND
     1    1    6 ar   
     2    1    2 ar   
     3    1   31 1    
     4    2    3 ar   
     5    2   32 1    
     6    3    4 ar   
     7    3   11 1    
     8    4    5 ar   
     9    4   33 1    
    10    5    6 ar   
    11    5    7 1    
    12    6   34 1    
    13    7    8 1    
    14    7    9 1    
    15    7   10 1    
    16   11   12 1    
    17   11   35 1    
    18   11   36 1    
    19   12   13 am   BACKBONE|DICT|INTERRES
    20   12   37 1    
    21   13   14 2    
    22   13   15 am   BACKBONE|DICT|INTERRES
    23   15   16 1    
    24   15   38 1    
    25   16   17 am   BACKBONE|DICT|INTERRES
    26   16   39 1    
    27   17   18 2    
    28   17   19 1    
    29   19   20 1    
    30   19   22 1    
    31   19   21 1    
    32   21   22 1    
    33   21   40 1    
    34   21   41 1    
    35   22   23 1    
    36   22   24 1    
    37   24   29 ar   
    38   24   25 ar   
    39   25   26 ar   
    40   25   42 1    
    41   26   27 ar   
    42   26   43 1    
    43   27   28 ar   
    44   27   30 1    
    45   28   29 ar   
    46   28   44 1    
    47   29   45 1    
@<TRIPOS>SUBSTRUCTURE
     1 UNK         1 GROUP             0       ****    0 ROOT    
