@<TRIPOS>MOLECULE
ZINC12533003_2707
54   59    1
SMALL
USER_CHARGES


@<TRIPOS>ATOM
      1 C1          9.3629   54.4871   18.0175 C.3       1 UNK         0.0000 
      2 C2          8.4980   55.7626   17.9609 C.3       1 UNK         0.0000 
      3 H3          8.9538   56.4043   17.2046 H         1 UNK         0.0000 
      4 C4          8.4927   56.5893   19.2649 C.3       1 UNK         0.0000 
      5 C5          7.8998   55.8064   20.4587 C.3       1 UNK         0.0000 
      6 C6          6.5988   55.1265   20.0289 C.2       1 UNK         0.0000 
      7 C7          6.2302   54.9796   18.6888 C.2       1 UNK         0.0000 
      8 S8          4.6936   54.1734   18.4614 S.3       1 UNK         0.0000 
      9 C9          4.5452   53.9413   20.1868 C.ar      1 UNK         0.0000 
     10 C10         5.6463   54.5026   20.9025 C.ar      1 UNK         0.0000 
     11 C11         5.6030   54.3164   22.3042 C.ar      1 UNK         0.0000 
     12 N12         4.5586   53.6958   22.8970 N.ar      1 UNK         0.0000 
     13 C13         3.5671   53.2303   22.0980 C.ar      1 UNK         0.0000 
     14 N14         3.5102   53.3032   20.7459 N.ar      1 UNK         0.0000 
     15 C15         2.3746   52.5956   22.7974 C.3       1 UNK         0.0000 
     16 S16         1.3731   53.8202   23.6968 S.3       1 UNK         0.0000 
     17 C17         2.1420   53.6946   25.2839 C.ar      1 UNK         0.0000 
     18 N18         3.2874   54.2546   25.5810 N.2       1 UNK         0.0000 
     19 N19         3.5543   53.9888   26.9156 N.2       1 UNK         0.0000 
     20 C20         2.5473   53.2971   27.3889 C.ar      1 UNK         0.0000 
     21 N21         1.6324   53.0285   26.3828 N.pl3     1 UNK         0.0000 
     22 C22         0.3837   52.2694   26.4553 C.3       1 UNK         0.0000 
     23 C23         0.2275   51.0340   25.5863 C.3       1 UNK         0.0000 
     24 C24         0.3988   50.8811   27.0715 C.3       1 UNK         0.0000 
     25 C25         2.4530   52.8771   28.8241 C.ar      1 UNK         0.0000 
     26 C26         1.2359   52.8854   29.5181 C.ar      1 UNK         0.0000 
     27 C27         1.2144   52.4984   30.8601 C.ar      1 UNK         0.0000 
     28 N28         2.3277   52.0968   31.5258 N.ar      1 UNK         0.0000 
     29 C29         3.5043   52.0977   30.8523 C.ar      1 UNK         0.0000 
     30 C30         3.6105   52.4887   29.5159 C.ar      1 UNK         0.0000 
     31 N31         6.6285   54.7213   23.1606 N.pl3     1 UNK         0.0000 
     32 C32         7.0443   55.5009   17.5045 C.3       1 UNK         0.0000 
     33 H33         8.9376   53.7397   18.6861 H         1 UNK         0.0000 
     34 H34         9.4493   54.0270   17.0334 H         1 UNK         0.0000 
     35 H35        10.3722   54.7039   18.3657 H         1 UNK         0.0000 
     36 H36         7.9321   57.5142   19.1129 H         1 UNK         0.0000 
     37 H37         9.5107   56.8825   19.5234 H         1 UNK         0.0000 
     38 H38         8.6192   55.0679   20.8152 H         1 UNK         0.0000 
     39 H39         7.7232   56.4946   21.2856 H         1 UNK         0.0000 
     40 H40         1.7306   52.0909   22.0760 H         1 UNK         0.0000 
     41 H41         2.7041   51.8120   23.4753 H         1 UNK         0.0000 
     42 H42        -0.4896   52.8953   26.6242 H         1 UNK         0.0000 
     43 H43        -0.7499   50.8312   25.1456 H         1 UNK         0.0000 
     44 H44         1.0421   50.7271   24.9314 H         1 UNK         0.0000 
     45 H45         1.3401   50.4960   27.4657 H         1 UNK         0.0000 
     46 H46        -0.4565   50.5537   27.6677 H         1 UNK         0.0000 
     47 H47         0.3219   53.1966   29.0370 H         1 UNK         0.0000 
     48 H48         0.2930   52.4947   31.4237 H         1 UNK         0.0000 
     49 H49         4.3718   51.7864   31.4125 H         1 UNK         0.0000 
     50 H50         4.5714   52.4858   29.0224 H         1 UNK         0.0000 
     51 H51         7.4749   55.1392   22.7996 H         1 UNK         0.0000 
     52 H52         6.5294   54.5224   24.1454 H         1 UNK         0.0000 
     53 H53         6.6053   56.4228   17.1205 H         1 UNK         0.0000 
     54 H54         7.0279   54.7907   16.6766 H         1 UNK         0.0000 
@<TRIPOS>BOND
     1    1    2 1    
     2    1   33 1    
     3    1   34 1    
     4    1   35 1    
     5    2    3 1    
     6    2   32 1    
     7    2    4 1    
     8    4    5 1    
     9    4   36 1    
    10    4   37 1    
    11    5    6 1    
    12    5   38 1    
    13    5   39 1    
    14    6   10 1    
    15    6    7 2    
    16    7    8 1    
    17    7   32 1    
    18    8    9 1    
    19    9   14 ar   
    20    9   10 ar   
    21   10   11 ar   
    22   11   12 ar   
    23   11   31 1    
    24   12   13 ar   
    25   13   14 ar   
    26   13   15 1    
    27   15   16 1    
    28   15   40 1    
    29   15   41 1    
    30   16   17 1    
    31   17   21 ar   
    32   17   18 ar   
    33   18   19 ar   
    34   19   20 ar   
    35   20   21 ar   
    36   20   25 1    
    37   21   22 1    
    38   22   24 1    
    39   22   23 1    
    40   22   42 1    
    41   23   24 1    
    42   23   43 1    
    43   23   44 1    
    44   24   45 1    
    45   24   46 1    
    46   25   30 ar   
    47   25   26 ar   
    48   26   27 ar   
    49   26   47 1    
    50   27   28 ar   
    51   27   48 1    
    52   28   29 ar   
    53   29   30 ar   
    54   29   49 1    
    55   30   50 1    
    56   31   51 1    
    57   31   52 1    
    58   32   53 1    
    59   32   54 1    
@<TRIPOS>SUBSTRUCTURE
     1 UNK         1 GROUP             0       ****    0 ROOT    
