@<TRIPOS>MOLECULE
ZINC39691147_1304
69   72    1
SMALL
USER_CHARGES


@<TRIPOS>ATOM
      1 C1          8.3972   54.6232   18.6272 C.3       1 UNK         0.0000 
      2 C2          7.6777   55.9101   18.2565 C.ar      1 UNK         0.0000 
      3 C3          8.4513   57.0331   17.9430 C.ar      1 UNK         0.0000 
      4 C4          7.8424   58.2399   17.6042 C.ar      1 UNK         0.0000 
      5 C5          6.4530   58.3337   17.5715 C.ar      1 UNK         0.0000 
      6 C6          5.6746   57.2201   17.8791 C.ar      1 UNK         0.0000 
      7 C7          6.2705   56.0022   18.2263 C.ar      1 UNK         0.0000 
      8 C8          5.3609   54.8321   18.6022 C.3       1 UNK         0.0000 
      9 C9          5.2438   54.6494   20.1236 C.3       1 UNK         0.0000 
     10 N10         4.0566   53.9182   20.5493 N.am      1 UNK         0.0000 
     11 C11         4.0210   52.6348   20.9463 C.2       1 UNK         0.0000 
     12 O12         4.9973   51.8920   20.8770 O.2       1 UNK         0.0000 
     13 C13         2.7067   52.0740   21.5400 C.3       1 UNK         0.0000 
     14 H14         2.9999   51.2787   22.2271 H         1 UNK         0.0000 
     15 C15         2.0659   53.1315   22.4587 C.3       1 UNK         0.0000 
     16 N16         0.7078   52.6252   22.6139 N.am      1 UNK         0.0000 
     17 C17         0.2764   52.0486   21.3333 C.3       1 UNK         0.0000 
     18 C18         1.5657   51.5994   20.5843 C.3       1 UNK         0.0000 
     19 C19         1.5376   50.0457   20.4670 C.3       1 UNK         0.0000 
     20 C20         2.5604   49.4749   19.4709 C.3       1 UNK         0.0000 
     21 N21         2.3021   50.0818   18.0815 N.4       1 UNK         0.0000 
     22 C22         2.4569   51.6103   18.1060 C.3       1 UNK         0.0000 
     23 C23         1.4923   52.2126   19.1475 C.3       1 UNK         0.0000 
     24 C24         0.2205   52.1846   23.8008 C.2       1 UNK         0.0000 
     25 O25        -0.6620   51.3186   23.8502 O.2       1 UNK         0.0000 
     26 C26         0.6590   52.8967   25.1125 C.3       1 UNK         0.0000 
     27 H27         0.7125   53.9603   24.8712 H         1 UNK         0.0000 
     28 C28        -0.3285   52.6616   26.2884 C.3       1 UNK         0.0000 
     29 O29         1.9852   52.4912   25.4345 O.3       1 UNK         0.0000 
     30 C30         2.6834   53.2173   26.3739 C.ar      1 UNK         0.0000 
     31 C31         3.6824   54.0949   25.9469 C.ar      1 UNK         0.0000 
     32 C32         4.4993   54.7226   26.8813 C.ar      1 UNK         0.0000 
     33 C33         4.2980   54.4971   28.2421 C.ar      1 UNK         0.0000 
     34 C34         3.3024   53.6231   28.6741 C.ar      1 UNK         0.0000 
     35 C35         2.5064   52.9709   27.7378 C.ar      1 UNK         0.0000 
     36 H36         9.4199   54.6066   18.2522 H         1 UNK         0.0000 
     37 H37         8.4321   54.5239   19.7095 H         1 UNK         0.0000 
     38 H38         7.9056   53.7446   18.2089 H         1 UNK         0.0000 
     39 H39         9.5316   56.9756   17.9658 H         1 UNK         0.0000 
     40 H40         8.4453   59.1029   17.3646 H         1 UNK         0.0000 
     41 H41         5.9832   59.2710   17.3077 H         1 UNK         0.0000 
     42 H42         4.5977   57.3106   17.8551 H         1 UNK         0.0000 
     43 H43         5.6841   53.9065   18.1269 H         1 UNK         0.0000 
     44 H44         4.3705   55.0050   18.1757 H         1 UNK         0.0000 
     45 H45         5.1233   55.6376   20.5656 H         1 UNK         0.0000 
     46 H46         6.1785   54.3014   20.5636 H         1 UNK         0.0000 
     47 H47         3.1923   54.4481   20.5530 H         1 UNK         0.0000 
     48 H48         1.9601   54.0844   21.9421 H         1 UNK         0.0000 
     49 H49         2.6357   53.3182   23.3685 H         1 UNK         0.0000 
     50 H50        -0.4865   51.2608   21.4108 H         1 UNK         0.0000 
     51 H51        -0.1409   52.9062   20.7930 H         1 UNK         0.0000 
     52 H52         1.6201   49.5685   21.4466 H         1 UNK         0.0000 
     53 H53         0.5575   49.7317   20.1033 H         1 UNK         0.0000 
     54 H54         3.5879   49.7455   19.7027 H         1 UNK         0.0000 
     55 H55         2.4930   48.3920   19.3563 H         1 UNK         0.0000 
     56 H56         3.0035   49.6956   17.4332 H         1 UNK         0.0000 
     57 H57         3.5037   51.8067   18.3281 H         1 UNK         0.0000 
     58 H58         2.2533   51.9512   17.0905 H         1 UNK         0.0000 
     59 H59         0.4918   52.0393   18.7501 H         1 UNK         0.0000 
     60 H60         1.5825   53.2960   19.1831 H         1 UNK         0.0000 
     61 H61        -1.3577   52.8979   26.0067 H         1 UNK         0.0000 
     62 H62        -0.3072   51.6228   26.6200 H         1 UNK         0.0000 
     63 H63        -0.0945   53.2933   27.1468 H         1 UNK         0.0000 
     64 H64         3.8580   54.2592   24.8957 H         1 UNK         0.0000 
     65 H65         5.2924   55.3777   26.5533 H         1 UNK         0.0000 
     66 H66         4.9355   54.9871   28.9653 H         1 UNK         0.0000 
     67 H67         3.1615   53.4342   29.7265 H         1 UNK         0.0000 
     68 H68         1.7700   52.2539   28.0685 H         1 UNK         0.0000 
     69 H69         1.3972   49.8145   17.7269 H         1 UNK         0.0000 
@<TRIPOS>BOND
     1    1    2 1    
     2    1   36 1    
     3    1   37 1    
     4    1   38 1    
     5    2    7 ar   
     6    2    3 ar   
     7    3    4 ar   
     8    3   39 1    
     9    4    5 ar   
    10    4   40 1    
    11    5    6 ar   
    12    5   41 1    
    13    6    7 ar   
    14    6   42 1    
    15    7    8 1    
    16    8    9 1    
    17    8   43 1    
    18    8   44 1    
    19    9   10 1    
    20    9   45 1    
    21    9   46 1    
    22   10   11 am   BACKBONE|DICT|INTERRES
    23   10   47 1    
    24   11   12 2    
    25   11   13 1    
    26   13   14 1    
    27   13   18 1    
    28   13   15 1    
    29   15   16 1    
    30   15   48 1    
    31   15   49 1    
    32   16   17 1    
    33   16   24 am   BACKBONE|DICT|INTERRES
    34   17   18 1    
    35   17   50 1    
    36   17   51 1    
    37   18   23 1    
    38   18   19 1    
    39   19   20 1    
    40   19   52 1    
    41   19   53 1    
    42   20   21 1    
    43   20   54 1    
    44   20   55 1    
    45   21   22 1    
    46   21   56 1    
    47   21   69 1    
    48   22   23 1    
    49   22   57 1    
    50   22   58 1    
    51   23   59 1    
    52   23   60 1    
    53   24   25 2    
    54   24   26 1    
    55   26   27 1    
    56   26   28 1    
    57   26   29 1    
    58   28   61 1    
    59   28   62 1    
    60   28   63 1    
    61   29   30 1    
    62   30   35 ar   
    63   30   31 ar   
    64   31   32 ar   
    65   31   64 1    
    66   32   33 ar   
    67   32   65 1    
    68   33   34 ar   
    69   33   66 1    
    70   34   35 ar   
    71   34   67 1    
    72   35   68 1    
@<TRIPOS>SUBSTRUCTURE
     1 UNK         1 GROUP             0       ****    0 ROOT    
