ZINC36720933_4680
                    3D
 Schrodinger Suite 2024-2.
 39 40  0  0  1  0            999 V2000
    3.1871   53.0227   30.2497 C   0  0  0  0  0  0
    2.0922   52.8290   29.2020 C   0  0  0  0  0  0
    0.7592   52.5440   29.5615 C   0  0  0  0  0  0
   -0.1983   52.3163   28.5746 C   0  0  0  0  0  0
    0.1393   52.4047   27.2258 C   0  0  0  0  0  0
    1.4508   52.7089   26.8625 C   0  0  0  0  0  0
    2.4237   52.9185   27.8391 C   0  0  0  0  0  0
    4.0316   53.2962   27.3216 Cl  0  0  0  0  0  0
   -1.1087   52.0974   25.9799 S   0  0  0  0  0  0
   -0.5568   52.4929   24.6782 O   0  0  0  0  0  0
   -2.3555   52.7033   26.4612 O   0  0  0  0  0  0
   -1.3098   50.3450   25.9824 N   0  0  0  0  0  0
   -2.6802   49.7550   25.9449 C   0  0  0  0  0  0
   -2.9148   48.9407   24.6539 C   0  0  0  0  0  0
   -1.7806   47.9114   24.4230 C   0  0  0  0  0  0
   -0.4509   48.6886   24.3010 C   0  0  0  0  0  0
   -0.1584   49.4900   25.5869 C   0  0  0  0  0  0
   -1.7070   46.7879   25.4873 C   0  0  0  0  0  0
   -2.9185   46.0686   25.5553 O   0  0  0  0  0  0
    0.3367   52.4966   30.8892 N   0  0  0  0  0  0
    2.8872   52.7283   31.2555 H   0  0  0  0  0  0
    4.0569   52.4129   30.0000 H   0  0  0  0  0  0
    3.5220   54.0604   30.2545 H   0  0  0  0  0  0
   -1.2141   52.0727   28.8531 H   0  0  0  0  0  0
    1.7192   52.7818   25.8183 H   0  0  0  0  0  0
   -3.4115   50.5595   25.9972 H   0  0  0  0  0  0
   -2.8348   49.1683   26.8527 H   0  0  0  0  0  0
   -2.9868   49.6251   23.8072 H   0  0  0  0  0  0
   -3.8821   48.4409   24.7313 H   0  0  0  0  0  0
   -1.9631   47.4411   23.4542 H   0  0  0  0  0  0
    0.3797   48.0036   24.1221 H   0  0  0  0  0  0
   -0.4784   49.3690   23.4485 H   0  0  0  0  0  0
    0.7054   50.1348   25.4222 H   0  0  0  0  0  0
    0.1028   48.8511   26.4340 H   0  0  0  0  0  0
   -1.4810   47.1731   26.4817 H   0  0  0  0  0  0
   -0.9075   46.0962   25.2315 H   0  0  0  0  0  0
   -3.4805   46.5180   26.1967 H   0  0  0  0  0  0
    1.0164   52.5611   31.6310 H   0  0  0  0  0  0
   -0.5843   52.1378   31.1254 H   0  0  0  0  0  0
  1  2  1  0  0  0
  1 21  1  0  0  0
  1 22  1  0  0  0
  1 23  1  0  0  0
  2  7  2  0  0  0
  2  3  1  0  0  0
  3  4  2  0  0  0
  3 20  1  0  0  0
  4  5  1  0  0  0
  4 24  1  0  0  0
  5  6  2  0  0  0
  5  9  1  0  0  0
  6  7  1  0  0  0
  6 25  1  0  0  0
  7  8  1  0  0  0
  9 10  2  0  0  0
  9 11  2  0  0  0
  9 12  1  0  0  0
 12 17  1  0  0  0
 12 13  1  0  0  0
 13 14  1  0  0  0
 13 26  1  0  0  0
 13 27  1  0  0  0
 14 15  1  0  0  0
 14 28  1  0  0  0
 14 29  1  0  0  0
 15 16  1  0  0  0
 15 18  1  0  0  0
 15 30  1  0  0  0
 16 17  1  0  0  0
 16 31  1  0  0  0
 16 32  1  0  0  0
 17 33  1  0  0  0
 17 34  1  0  0  0
 18 19  1  0  0  0
 18 35  1  0  0  0
 18 36  1  0  0  0
 19 37  1  0  0  0
 20 38  1  0  0  0
 20 39  1  0  0  0
M  END
> <i_i_glide_confnum>
22

> <i_i_glide_lignum>
4681

> <i_i_glide_posenum>
298

> <i_i_glide_rotatable_bonds>
4

> <i_m_Source_File_Index>
4036

> <b_m_subgroup_collapsed>
0

> <r_i_docking_score>
-3.33708

> <r_i_glide_ecoul>
-5.07624

> <r_i_glide_eff_state_penalty>
0

> <r_i_glide_einternal>
2.54794

> <r_i_glide_emodel>
-35.877

> <r_i_glide_energy>
-30.842

> <r_i_glide_erotb>
0.550445

> <r_i_glide_esite>
-0.160796

> <r_i_glide_evdw>
-25.7658

> <r_i_glide_gscore>
-3.33708

> <r_i_glide_hbond>
-0.134879

> <r_i_glide_ligand_efficiency>
-0.166854

> <r_i_glide_ligand_efficiency_ln>
-0.83516

> <r_i_glide_ligand_efficiency_sa>
-0.452911

> <r_i_glide_lipo>
-0.852018

> <r_i_glide_metal>
0

> <r_i_glide_rewards>
-0.690104

> <s_i_glide_gridfile>
wee1_glide-grid

> <s_m_Source_File>
wee1_decoys_glide_SP.sdf

> <s_m_Source_Path>
/Users/zhangxujun/Desktop

> <s_m_entry_id>
4311

> <s_m_entry_name>
wee1_decoys_glide_SP.4036

> <s_m_subgroup_title>
wee1_decoys_glide_SP

> <s_m_subgroupid>
wee1_decoys_glide_SP


$$$$
