@<TRIPOS>MOLECULE
ZINC03770428_461
56   59    1
SMALL
USER_CHARGES


@<TRIPOS>ATOM
      1 C1          2.8805   52.8937   19.2922 C.3       1 UNK         0.0000 
      2 C2          2.5030   51.8270   20.3037 C.ar      1 UNK         0.0000 
      3 C3          2.6221   50.4760   19.9672 C.ar      1 UNK         0.0000 
      4 C4          2.3044   49.4895   20.8990 C.ar      1 UNK         0.0000 
      5 C5          1.8851   49.8468   22.1782 C.ar      1 UNK         0.0000 
      6 C6          1.7518   51.1944   22.5269 C.ar      1 UNK         0.0000 
      7 C7          2.0672   52.1854   21.5832 C.ar      1 UNK         0.0000 
      8 N8          1.3493   51.4588   23.8409 N.am      1 UNK         0.0000 
      9 C9          0.6924   52.5299   24.3318 C.2       1 UNK         0.0000 
     10 O10         0.3060   53.4971   23.6824 O.2       1 UNK         0.0000 
     11 C11         0.4461   52.4199   25.7533 C.2       1 UNK         0.0000 
     12 C12         1.3507   52.8843   26.6583 C.2       1 UNK         0.0000 
     13 N13         1.1987   52.8126   28.0260 N.am      1 UNK         0.0000 
     14 C14         2.2277   53.3149   28.7867 C.2       1 UNK         0.0000 
     15 O15         2.3124   53.3257   30.0196 O.2       1 UNK         0.0000 
     16 C16         3.3348   53.9370   27.9315 C.3       1 UNK         0.0000 
     17 H17         3.3217   55.0109   28.1243 H         1 UNK         0.0000 
     18 S18         2.8685   53.6964   26.2246 S.3       1 UNK         0.0000 
     19 C19         4.7363   53.3492   28.2841 C.3       1 UNK         0.0000 
     20 C20         5.9617   53.9484   27.5662 C.2       1 UNK         0.0000 
     21 O21         7.1006   53.6959   27.9623 O.2       1 UNK         0.0000 
     22 O22         5.6611   54.7140   26.4955 O.3       1 UNK         0.0000 
     23 C23         6.6678   55.2684   25.6700 C.3       1 UNK         0.0000 
     24 C24         0.0075   52.2396   28.5117 C.2       1 UNK         0.0000 
     25 C25        -0.9947   51.7908   27.7079 C.2       1 UNK         0.0000 
     26 C26        -0.9184   51.8395   26.1742 C.3       1 UNK         0.0000 
     27 H27        -1.6653   52.5653   25.8463 H         1 UNK         0.0000 
     28 C28        -1.2801   50.5051   25.5022 C.ar      1 UNK         0.0000 
     29 C29        -0.4076   49.4107   25.5684 C.ar      1 UNK         0.0000 
     30 C30        -0.6996   48.2326   24.8816 C.ar      1 UNK         0.0000 
     31 C31        -1.8779   48.1267   24.1448 C.ar      1 UNK         0.0000 
     32 C32        -2.7625   49.2027   24.0910 C.ar      1 UNK         0.0000 
     33 C33        -2.4647   50.3869   24.7638 C.ar      1 UNK         0.0000 
     34 F34        -3.9063   49.0989   23.3745 F         1 UNK         0.0000 
     35 C35        -2.2241   51.2844   28.2481 C.1       1 UNK         0.0000 
     36 N36        -3.2476   50.9047   28.6375 N.1       1 UNK         0.0000 
     37 N37        -0.1471   52.1534   29.8851 N.pl3     1 UNK         0.0000 
     38 H38         1.9874   53.2960   18.8134 H         1 UNK         0.0000 
     39 H39         3.4092   53.7122   19.7805 H         1 UNK         0.0000 
     40 H40         3.5476   52.4954   18.5262 H         1 UNK         0.0000 
     41 H41         2.9728   50.1877   18.9852 H         1 UNK         0.0000 
     42 H42         2.4106   48.4465   20.6354 H         1 UNK         0.0000 
     43 H43         1.6579   49.0679   22.8950 H         1 UNK         0.0000 
     44 H44         1.9915   53.2353   21.8363 H         1 UNK         0.0000 
     45 H45         1.4756   50.6911   24.4810 H         1 UNK         0.0000 
     46 H46         4.7426   52.2784   28.0818 H         1 UNK         0.0000 
     47 H47         4.9210   53.4616   29.3512 H         1 UNK         0.0000 
     48 H48         6.2294   55.6058   24.7291 H         1 UNK         0.0000 
     49 H49         7.4497   54.5411   25.4325 H         1 UNK         0.0000 
     50 H50         7.1091   56.1281   26.1638 H         1 UNK         0.0000 
     51 H51         0.5049   49.4727   26.1470 H         1 UNK         0.0000 
     52 H52        -0.0141   47.3991   24.9268 H         1 UNK         0.0000 
     53 H53        -2.1080   47.2157   23.6171 H         1 UNK         0.0000 
     54 H54        -3.1566   51.2142   24.6996 H         1 UNK         0.0000 
     55 H55        -0.9290   51.6663   30.3056 H         1 UNK         0.0000 
     56 H56         0.5732   52.4975   30.5062 H         1 UNK         0.0000 
@<TRIPOS>BOND
     1    1    2 1    
     2    1   38 1    
     3    1   39 1    
     4    1   40 1    
     5    2    7 ar   
     6    2    3 ar   
     7    3    4 ar   
     8    3   41 1    
     9    4    5 ar   
    10    4   42 1    
    11    5    6 ar   
    12    5   43 1    
    13    6    7 ar   
    14    6    8 1    
    15    7   44 1    
    16    8    9 am   BACKBONE|DICT|INTERRES
    17    8   45 1    
    18    9   10 2    
    19    9   11 1    
    20   11   26 1    
    21   11   12 2    
    22   12   18 1    
    23   12   13 am   BACKBONE|DICT|INTERRES
    24   13   14 am   BACKBONE|DICT|INTERRES
    25   13   24 1    
    26   14   15 2    
    27   14   16 1    
    28   16   17 1    
    29   16   18 1    
    30   16   19 1    
    31   19   20 1    
    32   19   46 1    
    33   19   47 1    
    34   20   21 2    
    35   20   22 1    
    36   22   23 1    
    37   23   48 1    
    38   23   49 1    
    39   23   50 1    
    40   24   25 2    
    41   24   37 1    
    42   25   26 1    
    43   25   35 1    
    44   26   27 1    
    45   26   28 1    
    46   28   33 ar   
    47   28   29 ar   
    48   29   30 ar   
    49   29   51 1    
    50   30   31 ar   
    51   30   52 1    
    52   31   32 ar   
    53   31   53 1    
    54   32   33 ar   
    55   32   34 1    
    56   33   54 1    
    57   35   36 3    
    58   37   55 1    
    59   37   56 1    
@<TRIPOS>SUBSTRUCTURE
     1 UNK         1 GROUP             0       ****    0 ROOT    
