ZINC43218174_2934
                    3D
 Schrodinger Suite 2024-2.
 76 79  0  0  1  0            999 V2000
    1.9822   54.9624   29.9456 C   0  0  0  0  0  0
    2.7778   53.7699   29.3843 C   0  0  0  0  0  0
    3.3459   52.8454   30.4817 C   0  0  0  0  0  0
    1.9491   53.0146   28.3494 C   0  0  0  0  0  0
    0.9743   52.0956   28.7311 C   0  0  0  0  0  0
    0.2381   51.4227   27.7640 C   0  0  0  0  0  0
    0.4355   51.6376   26.3900 C   0  0  0  0  0  0
    1.4206   52.5879   26.0071 C   0  0  0  0  0  0
    2.1548   53.2535   26.9925 C   0  0  0  0  0  0
    1.6833   52.9441   24.5475 C   0  0  0  0  0  0
    1.1563   51.8801   23.5835 C   0  0  0  0  0  0
   -0.3036   51.5174   23.9486 C   0  0  2  0  0  0
   -0.8131   52.4673   24.1363 H   0  0  0  0  0  0
   -0.3383   50.7766   25.3511 C   0  0  2  0  0  0
   -1.8484   50.6312   25.7208 C   0  0  0  0  0  0
   -2.7081   49.9375   24.6460 C   0  0  0  0  0  0
   -2.5936   50.6660   23.2938 C   0  0  0  0  0  0
   -1.1330   50.8534   22.7715 C   0  0  1  0  0  0
   -1.2615   51.9159   21.6335 C   0  0  0  0  0  0
   -0.5437   49.4644   22.3198 C   0  0  0  0  0  0
   -0.4145   49.2262   20.8801 N   0  0  0  0  0  0
   -1.4268   48.9738   20.0317 C   0  0  0  0  0  0
   -2.6125   48.9421   20.3601 O   0  0  0  0  0  0
   -1.0237   48.7509   18.6685 C   0  0  0  0  0  0
   -1.8582   48.8992   17.5674 C   0  0  0  0  0  0
   -1.1679   48.5339   16.4649 O   0  0  0  0  0  0
    0.0365   48.1556   16.9580 C   0  0  0  0  0  0
    0.1549   48.2917   18.2600 N   0  0  0  0  0  0
    1.0123   47.5322   15.9814 C   0  0  2  0  0  0
    0.4657   47.1506   15.1163 H   0  0  0  0  0  0
    1.9022   46.4282   16.5998 C   0  0  0  0  0  0
    2.6296   45.5495   15.5668 C   0  0  0  0  0  0
    1.5426   44.6243   14.4346 S   0  0  0  0  0  0
    0.8180   43.4048   15.5639 C   0  0  0  0  0  0
    1.9043   48.6410   15.4106 N   0  3  0  0  0  0
    0.3247   49.3659   25.3290 C   0  0  0  0  0  0
    1.5113   55.5342   29.1441 H   0  0  0  0  0  0
    2.6271   55.6539   30.4816 H   0  0  0  0  0  0
    1.1897   54.6389   30.6223 H   0  0  0  0  0  0
    3.6481   54.1766   28.8640 H   0  0  0  0  0  0
    3.8187   51.9647   30.0430 H   0  0  0  0  0  0
    4.1114   53.3481   31.0723 H   0  0  0  0  0  0
    2.5714   52.4968   31.1652 H   0  0  0  0  0  0
    0.7825   51.8926   29.7754 H   0  0  0  0  0  0
   -0.4792   50.6903   28.1026 H   0  0  0  0  0  0
    2.8979   53.9774   26.6909 H   0  0  0  0  0  0
    1.1886   53.8946   24.3394 H   0  0  0  0  0  0
    2.7479   53.1096   24.3750 H   0  0  0  0  0  0
    1.1939   52.3506   22.6028 H   0  0  0  0  0  0
    1.8058   51.0114   23.4816 H   0  0  0  0  0  0
   -1.9689   50.0968   26.6634 H   0  0  0  0  0  0
   -2.2669   51.6204   25.9099 H   0  0  0  0  0  0
   -3.7508   49.9347   24.9672 H   0  0  0  0  0  0
   -2.4358   48.8872   24.5518 H   0  0  0  0  0  0
   -3.0569   51.6449   23.4351 H   0  0  0  0  0  0
   -3.2150   50.1729   22.5460 H   0  0  0  0  0  0
   -2.0218   51.6346   20.9051 H   0  0  0  0  0  0
   -1.5493   52.8960   22.0147 H   0  0  0  0  0  0
   -0.3339   52.0386   21.0737 H   0  0  0  0  0  0
    0.4751   49.3524   22.6838 H   0  0  0  0  0  0
   -1.0937   48.6279   22.7518 H   0  0  0  0  0  0
    0.5148   49.3003   20.4942 H   0  0  0  0  0  0
   -2.8836   49.2139   17.4328 H   0  0  0  0  0  0
    2.6316   46.8696   17.2845 H   0  0  0  0  0  0
    1.2845   45.7788   17.2227 H   0  0  0  0  0  0
    3.2925   46.1670   14.9594 H   0  0  0  0  0  0
    3.2781   44.8378   16.0801 H   0  0  0  0  0  0
    0.1953   42.7049   15.0062 H   0  0  0  0  0  0
    1.6022   42.8390   16.0683 H   0  0  0  0  0  0
    0.1952   43.8939   16.3123 H   0  0  0  0  0  0
    1.3654   49.4625   15.1808 H   0  0  0  0  0  0
    2.6334   48.8985   16.0819 H   0  0  0  0  0  0
   -0.2377   48.6194   24.7792 H   0  0  0  0  0  0
    1.3367   49.3769   24.9267 H   0  0  0  0  0  0
    0.4044   48.9618   26.3401 H   0  0  0  0  0  0
    2.3880   48.3232   14.5849 H   0  0  0  0  0  0
  1  2  1  0  0  0
  1 37  1  0  0  0
  1 38  1  0  0  0
  1 39  1  0  0  0
  2  3  1  0  0  0
  2  4  1  0  0  0
  2 40  1  0  0  0
  3 41  1  0  0  0
  3 42  1  0  0  0
  3 43  1  0  0  0
  4  9  2  0  0  0
  4  5  1  0  0  0
  5  6  2  0  0  0
  5 44  1  0  0  0
  6  7  1  0  0  0
  6 45  1  0  0  0
  7 14  1  0  0  0
  7  8  2  0  0  0
  8  9  1  0  0  0
  8 10  1  0  0  0
  9 46  1  0  0  0
 10 11  1  0  0  0
 10 47  1  0  0  0
 10 48  1  0  0  0
 11 12  1  0  0  0
 11 49  1  0  0  0
 11 50  1  0  0  0
 12 13  1  0  0  0
 12 18  1  0  0  0
 12 14  1  0  0  0
 14 15  1  0  0  0
 14 36  1  0  0  0
 15 16  1  0  0  0
 15 51  1  0  0  0
 15 52  1  0  0  0
 16 17  1  0  0  0
 16 53  1  0  0  0
 16 54  1  0  0  0
 17 18  1  0  0  0
 17 55  1  0  0  0
 17 56  1  0  0  0
 18 19  1  0  0  0
 18 20  1  0  0  0
 19 57  1  0  0  0
 19 58  1  0  0  0
 19 59  1  0  0  0
 20 21  1  0  0  0
 20 60  1  0  0  0
 20 61  1  0  0  0
 21 22  1  0  0  0
 21 62  1  0  0  0
 22 23  2  0  0  0
 22 24  1  0  0  0
 24 28  1  0  0  0
 24 25  2  0  0  0
 25 26  1  0  0  0
 25 63  1  0  0  0
 26 27  1  0  0  0
 27 28  2  0  0  0
 27 29  1  0  0  0
 29 30  1  0  0  0
 29 31  1  0  0  0
 29 35  1  0  0  0
 31 32  1  0  0  0
 31 64  1  0  0  0
 31 65  1  0  0  0
 32 33  1  0  0  0
 32 66  1  0  0  0
 32 67  1  0  0  0
 33 34  1  0  0  0
 34 68  1  0  0  0
 34 69  1  0  0  0
 34 70  1  0  0  0
 35 71  1  0  0  0
 35 72  1  0  0  0
 35 76  1  0  0  0
 36 73  1  0  0  0
 36 74  1  0  0  0
 36 75  1  0  0  0
M  CHG  1  35   1
M  END
> <i_i_glide_confnum>
79

> <i_i_glide_lignum>
2935

> <i_i_glide_posenum>
219

> <i_i_glide_rotatable_bonds>
9

> <i_m_Source_File_Index>
3980

> <b_m_subgroup_collapsed>
0

> <r_i_docking_score>
-3.43658

> <r_i_glide_ecoul>
-5.86282

> <r_i_glide_eff_state_penalty>
0

> <r_i_glide_einternal>
4.22982

> <r_i_glide_emodel>
-45.496

> <r_i_glide_energy>
-35.4011

> <r_i_glide_erotb>
0.605102

> <r_i_glide_esite>
-0.0963279

> <r_i_glide_evdw>
-29.5383

> <r_i_glide_gscore>
-3.43658

> <r_i_glide_hbond>
-0.2

> <r_i_glide_ligand_efficiency>
-0.101076

> <r_i_glide_ligand_efficiency_ln>
-0.759236

> <r_i_glide_ligand_efficiency_sa>
-0.327446

> <r_i_glide_lipo>
-1.28482

> <r_i_glide_metal>
0

> <r_i_glide_rewards>
-0.104191

> <s_i_glide_gridfile>
wee1_glide-grid

> <s_m_Source_File>
wee1_decoys_glide_SP.sdf

> <s_m_Source_Path>
/Users/zhangxujun/Desktop

> <s_m_entry_id>
4255

> <s_m_entry_name>
wee1_decoys_glide_SP.3980

> <s_m_subgroup_title>
wee1_decoys_glide_SP

> <s_m_subgroupid>
wee1_decoys_glide_SP


$$$$
