ZINC59212303_4865
                    3D
 Schrodinger Suite 2024-2.
 59 62  0  0  1  0            999 V2000
    0.4442   52.4736   30.1650 C   0  0  0  0  0  0
    1.5911   52.8874   29.2608 C   0  0  0  0  0  0
    1.3263   53.2735   27.9467 C   0  0  0  0  0  0
    2.3703   53.6654   27.1109 C   0  0  0  0  0  0
    3.6827   53.6845   27.5896 C   0  0  0  0  0  0
    3.9426   53.2891   28.9062 C   0  0  0  0  0  0
    2.9021   52.8843   29.7380 C   0  0  0  0  0  0
    4.8111   54.1128   26.7103 C   0  0  0  0  0  0
    6.0117   54.4978   27.0721 N   0  0  0  0  0  0
    6.7049   54.7578   25.8970 N   0  0  0  0  0  0
    5.8769   54.4973   24.9190 C   0  0  0  0  0  0
    4.6558   54.0965   25.3590 O   0  0  0  0  0  0
    6.2351   54.5206   23.1922 S   0  0  0  0  0  0
    4.5635   54.4727   22.4572 C   0  0  0  0  0  0
    4.1756   53.1511   21.7819 C   0  0  0  0  0  0
    4.9769   52.2196   21.6818 O   0  0  0  0  0  0
    2.9223   53.1126   21.2931 N   0  0  0  0  0  0
    2.4397   52.1001   20.4529 C   0  0  0  0  0  0
    2.5959   52.3410   19.0820 C   0  0  0  0  0  0
    2.1213   51.4387   18.1308 C   0  0  0  0  0  0
    1.5087   50.2656   18.5692 C   0  0  0  0  0  0
    1.3247   50.0316   19.9307 C   0  0  0  0  0  0
    1.7565   50.9430   20.9107 C   0  0  0  0  0  0
    1.4474   50.6605   22.2508 N   0  0  0  0  0  0
    1.2995   51.6638   23.3231 C   0  0  0  0  0  0
    0.2979   51.3019   24.4528 C   0  0  0  0  0  0
    0.5736   49.8802   24.9765 N   0  3  0  0  0  0
    0.5120   48.8954   23.8022 C   0  0  0  0  0  0
    1.6051   49.2965   22.7921 C   0  0  0  0  0  0
   -0.4241   49.4700   26.0816 C   0  0  0  0  0  0
    2.2599   51.7592   16.6422 C   0  0  0  0  0  0
    1.9027   50.7393   15.8593 F   0  0  0  0  0  0
    1.4649   52.7899   16.3538 F   0  0  0  0  0  0
    3.5128   52.0974   16.3460 F   0  0  0  0  0  0
   -0.2313   53.3142   30.3272 H   0  0  0  0  0  0
   -0.1421   51.6801   29.6986 H   0  0  0  0  0  0
    0.7852   52.1131   31.1382 H   0  0  0  0  0  0
    0.3116   53.2758   27.5769 H   0  0  0  0  0  0
    2.1561   53.9700   26.0957 H   0  0  0  0  0  0
    4.9556   53.2856   29.2825 H   0  0  0  0  0  0
    3.1199   52.5722   30.7491 H   0  0  0  0  0  0
    4.5577   55.2335   21.6784 H   0  0  0  0  0  0
    3.8019   54.7682   23.1769 H   0  0  0  0  0  0
    2.4066   53.9828   21.2510 H   0  0  0  0  0  0
    3.0852   53.2452   18.7467 H   0  0  0  0  0  0
    1.1487   49.5391   17.8559 H   0  0  0  0  0  0
    0.7904   49.1365   20.2061 H   0  0  0  0  0  0
    1.0542   52.6469   22.9226 H   0  0  0  0  0  0
    2.2953   51.7295   23.7639 H   0  0  0  0  0  0
    0.4408   51.9640   25.3084 H   0  0  0  0  0  0
   -0.7392   51.3337   24.1186 H   0  0  0  0  0  0
    0.7044   47.9093   24.2235 H   0  0  0  0  0  0
   -0.4913   48.9118   23.3766 H   0  0  0  0  0  0
    2.5798   49.2969   23.2826 H   0  0  0  0  0  0
    1.6969   48.5453   22.0110 H   0  0  0  0  0  0
   -1.4276   49.4178   25.6573 H   0  0  0  0  0  0
   -0.1116   48.4990   26.4753 H   0  0  0  0  0  0
   -0.3730   50.2146   26.8793 H   0  0  0  0  0  0
    1.5079   49.8366   25.3585 H   0  0  0  0  0  0
  1  2  1  0  0  0
  1 35  1  0  0  0
  1 36  1  0  0  0
  1 37  1  0  0  0
  2  7  2  0  0  0
  2  3  1  0  0  0
  3  4  2  0  0  0
  3 38  1  0  0  0
  4  5  1  0  0  0
  4 39  1  0  0  0
  5  6  2  0  0  0
  5  8  1  0  0  0
  6  7  1  0  0  0
  6 40  1  0  0  0
  7 41  1  0  0  0
  8 12  1  0  0  0
  8  9  2  0  0  0
  9 10  1  0  0  0
 10 11  2  0  0  0
 11 12  1  0  0  0
 11 13  1  0  0  0
 13 14  1  0  0  0
 14 15  1  0  0  0
 14 42  1  0  0  0
 14 43  1  0  0  0
 15 16  2  0  0  0
 15 17  1  0  0  0
 17 18  1  0  0  0
 17 44  1  0  0  0
 18 23  2  0  0  0
 18 19  1  0  0  0
 19 20  2  0  0  0
 19 45  1  0  0  0
 20 21  1  0  0  0
 20 31  1  0  0  0
 21 22  2  0  0  0
 21 46  1  0  0  0
 22 23  1  0  0  0
 22 47  1  0  0  0
 23 24  1  0  0  0
 24 29  1  0  0  0
 24 25  1  0  0  0
 25 26  1  0  0  0
 25 48  1  0  0  0
 25 49  1  0  0  0
 26 27  1  0  0  0
 26 50  1  0  0  0
 26 51  1  0  0  0
 27 28  1  0  0  0
 27 30  1  0  0  0
 27 59  1  0  0  0
 28 29  1  0  0  0
 28 52  1  0  0  0
 28 53  1  0  0  0
 29 54  1  0  0  0
 29 55  1  0  0  0
 30 56  1  0  0  0
 30 57  1  0  0  0
 30 58  1  0  0  0
 31 32  1  0  0  0
 31 33  1  0  0  0
 31 34  1  0  0  0
M  CHG  1  27   1
M  END
> <i_i_glide_confnum>
39

> <i_i_glide_lignum>
4866

> <i_i_glide_posenum>
55

> <i_i_glide_rotatable_bonds>
8

> <i_m_Source_File_Index>
5168

> <b_m_subgroup_collapsed>
0

> <r_i_docking_score>
-5.85175

> <r_i_glide_ecoul>
-6.31914

> <r_i_glide_eff_state_penalty>
0

> <r_i_glide_einternal>
7.26213

> <r_i_glide_emodel>
-67.133

> <r_i_glide_energy>
-51.7833

> <r_i_glide_erotb>
0.587635

> <r_i_glide_esite>
-0.210064

> <r_i_glide_evdw>
-45.4642

> <r_i_glide_gscore>
-5.85175

> <r_i_glide_hbond>
-0.301183

> <r_i_glide_ligand_efficiency>
-0.17211

> <r_i_glide_ligand_efficiency_ln>
-1.29282

> <r_i_glide_ligand_efficiency_sa>
-0.55757

> <r_i_glide_lipo>
-2.2819

> <r_i_glide_metal>
0

> <r_i_glide_rewards>
-0.425157

> <s_i_glide_gridfile>
wee1_glide-grid

> <s_m_Source_File>
wee1_decoys_glide_SP.sdf

> <s_m_Source_Path>
/Users/zhangxujun/Desktop

> <s_m_entry_id>
5443

> <s_m_entry_name>
wee1_decoys_glide_SP.5168

> <s_m_subgroup_title>
wee1_decoys_glide_SP

> <s_m_subgroupid>
wee1_decoys_glide_SP


$$$$
