@<TRIPOS>MOLECULE
ZINC10031261_4820
63   66    1
SMALL
USER_CHARGES


@<TRIPOS>ATOM
      1 C1          6.5985   54.1774   27.5490 C.3       1 UNK         0.0000 
      2 O2          5.4003   54.8938   27.8357 O.3       1 UNK         0.0000 
      3 C3          4.3924   54.2610   28.5399 C.ar      1 UNK         0.0000 
      4 C4          3.3079   55.0456   28.9377 C.ar      1 UNK         0.0000 
      5 C5          2.2660   54.5061   29.6804 C.ar      1 UNK         0.0000 
      6 C6          2.3071   53.1611   30.0262 C.ar      1 UNK         0.0000 
      7 C7          3.3666   52.3527   29.6223 C.ar      1 UNK         0.0000 
      8 C8          4.4077   52.9010   28.8798 C.ar      1 UNK         0.0000 
      9 S9          1.0514   52.4968   31.0582 S.3       1 UNK         0.0000 
     10 C10        -0.5133   52.3647   30.1317 C.3       1 UNK         0.0000 
     11 C11        -0.6218   51.4080   28.9192 C.3       1 UNK         0.0000 
     12 C12        -0.0095   51.9002   27.6047 C.2       1 UNK         0.0000 
     13 O13         0.5347   53.0016   27.5666 O.2       1 UNK         0.0000 
     14 N14        -0.1397   51.0631   26.5502 N.am      1 UNK         0.0000 
     15 C15         0.3088   51.2315   25.2323 C.2       1 UNK         0.0000 
     16 C16         0.2221   50.2779   24.1806 C.2       1 UNK         0.0000 
     17 C17         0.9655   50.7398   23.0476 C.2       1 UNK         0.0000 
     18 C18         1.3959   52.0624   23.1729 C.2       1 UNK         0.0000 
     19 S19         1.0676   52.7183   24.7157 S.3       1 UNK         0.0000 
     20 C20         2.0680   52.8654   22.0840 C.3       1 UNK         0.0000 
     21 C21         2.0764   50.7746   20.7011 C.3       1 UNK         0.0000 
     22 C22         1.3093   49.9420   21.7758 C.3       1 UNK         0.0000 
     23 C23         3.8516   52.5628   20.3105 C.3       1 UNK         0.0000 
     24 C24         4.8836   53.5690   20.8315 C.ar      1 UNK         0.0000 
     25 C25         5.4122   54.5008   19.9332 C.ar      1 UNK         0.0000 
     26 C26         6.3735   55.4166   20.3534 C.ar      1 UNK         0.0000 
     27 C27         6.8055   55.4068   21.6778 C.ar      1 UNK         0.0000 
     28 C28         6.2734   54.4998   22.5899 C.ar      1 UNK         0.0000 
     29 C29         5.3200   53.5763   22.1654 C.ar      1 UNK         0.0000 
     30 C30        -0.4885   48.9769   24.2292 C.2       1 UNK         0.0000 
     31 O31        -0.4947   48.1542   23.3107 O.2       1 UNK         0.0000 
     32 O32        -1.1836   48.8169   25.3730 O.3       1 UNK         0.0000 
     33 C33        -1.9449   47.6420   25.6169 C.3       1 UNK         0.0000 
     34 H34         7.3149   54.8473   27.0714 H         1 UNK         0.0000 
     35 H35         6.4127   53.3475   26.8658 H         1 UNK         0.0000 
     36 H36         7.0679   53.7960   28.4578 H         1 UNK         0.0000 
     37 H37         3.2844   56.0957   28.7024 H         1 UNK         0.0000 
     38 H38         1.4452   55.1316   29.9989 H         1 UNK         0.0000 
     39 H39         3.3956   51.3075   29.8853 H         1 UNK         0.0000 
     40 H40         5.2198   52.2569   28.5817 H         1 UNK         0.0000 
     41 H41        -1.2020   51.9688   30.8781 H         1 UNK         0.0000 
     42 H42        -0.8885   53.3587   29.8874 H         1 UNK         0.0000 
     43 H43        -0.0873   50.4978   29.1746 H         1 UNK         0.0000 
     44 H44        -1.6538   51.0862   28.7737 H         1 UNK         0.0000 
     45 H45        -0.5987   50.1753   26.7299 H         1 UNK         0.0000 
     46 H46         1.3719   53.2968   21.3621 H         1 UNK         0.0000 
     47 H47         2.6887   53.6725   22.4731 H         1 UNK         0.0000 
     48 H48         1.4020   51.3064   20.0256 H         1 UNK         0.0000 
     49 H49         2.7217   50.1245   20.1046 H         1 UNK         0.0000 
     50 H50         1.9315   49.0953   22.0720 H         1 UNK         0.0000 
     51 H51         0.4195   49.5078   21.3192 H         1 UNK         0.0000 
     52 H52         4.3666   51.7675   19.7658 H         1 UNK         0.0000 
     53 H53         3.1523   53.0414   19.6204 H         1 UNK         0.0000 
     54 H54         5.0898   54.5076   18.9016 H         1 UNK         0.0000 
     55 H55         6.7926   56.1205   19.6486 H         1 UNK         0.0000 
     56 H56         7.5644   56.1043   22.0038 H         1 UNK         0.0000 
     57 H57         6.6127   54.5006   23.6165 H         1 UNK         0.0000 
     58 H58         4.9322   52.8719   22.8836 H         1 UNK         0.0000 
     59 H59        -2.5867   47.7933   26.4834 H         1 UNK         0.0000 
     60 H60        -2.5864   47.3992   24.7682 H         1 UNK         0.0000 
     61 H61        -1.2951   46.7906   25.8196 H         1 UNK         0.0000 
     62 N62         2.9766   51.8437   21.3695 N.4       1 UNK         0.0000 
     63 H63         3.5953   51.3986   22.0311 H         1 UNK         0.0000 
@<TRIPOS>BOND
     1    1    2 1    
     2    1   34 1    
     3    1   35 1    
     4    1   36 1    
     5    2    3 1    
     6    3    8 ar   
     7    3    4 ar   
     8    4    5 ar   
     9    4   37 1    
    10    5    6 ar   
    11    5   38 1    
    12    6    7 ar   
    13    6    9 1    
    14    7    8 ar   
    15    7   39 1    
    16    8   40 1    
    17    9   10 1    
    18   10   11 1    
    19   10   41 1    
    20   10   42 1    
    21   11   12 1    
    22   11   43 1    
    23   11   44 1    
    24   12   13 2    
    25   12   14 am   BACKBONE|DICT|INTERRES
    26   14   15 am   BACKBONE|DICT|INTERRES
    27   14   45 1    
    28   15   19 1    
    29   15   16 2    
    30   16   17 1    
    31   16   30 1    
    32   17   22 1    
    33   17   18 2    
    34   18   19 1    
    35   18   20 1    
    36   20   46 1    
    37   20   47 1    
    38   20   62 1    
    39   21   22 1    
    40   21   48 1    
    41   21   49 1    
    42   21   62 1    
    43   22   50 1    
    44   22   51 1    
    45   23   24 1    
    46   23   52 1    
    47   23   53 1    
    48   23   62 1    
    49   24   29 ar   
    50   24   25 ar   
    51   25   26 ar   
    52   25   54 1    
    53   26   27 ar   
    54   26   55 1    
    55   27   28 ar   
    56   27   56 1    
    57   28   29 ar   
    58   28   57 1    
    59   29   58 1    
    60   30   31 2    
    61   30   32 1    
    62   32   33 1    
    63   33   59 1    
    64   33   60 1    
    65   33   61 1    
    66   62   63 1    
@<TRIPOS>SUBSTRUCTURE
     1 UNK         1 GROUP             0       ****    0 ROOT    
