ZINC02888154_3230
                    3D
 Schrodinger Suite 2024-2.
 58 61  0  0  1  0            999 V2000
    6.3038   54.8472   27.0675 C   0  0  0  0  0  0
    5.1733   54.4872   26.1201 C   0  0  0  0  0  0
    3.9368   54.0782   26.6158 C   0  0  0  0  0  0
    2.9044   53.7435   25.7407 C   0  0  0  0  0  0
    3.0825   53.8284   24.3512 C   0  0  0  0  0  0
    4.3253   54.2595   23.8494 C   0  0  0  0  0  0
    5.3648   54.5804   24.7404 C   0  0  0  0  0  0
    4.4377   54.3433   22.4436 N   0  0  0  0  0  0
    5.5183   54.5203   21.6554 C   0  0  0  0  0  0
    6.6570   54.7084   22.0820 O   0  0  0  0  0  0
    5.2083   54.4312   20.2206 C   0  0  0  0  0  0
    4.5139   53.3893   19.6507 C   0  0  0  0  0  0
    4.2521   53.6672   17.9173 S   0  0  0  0  0  0
    4.9844   55.2406   18.0446 C   0  0  0  0  0  0
    5.5335   55.4474   19.2957 N   0  0  0  0  0  0
    6.3034   56.5946   19.5198 C   0  0  0  0  0  0
    6.9548   56.8949   20.5143 O   0  0  0  0  0  0
    6.3037   57.5599   18.4307 C   0  0  0  0  0  0
    5.6751   57.2711   17.2688 C   0  0  0  0  0  0
    5.0349   56.0823   17.0656 N   0  0  0  0  0  0
    5.5309   58.2531   16.1231 C   0  0  0  0  0  0
    4.0007   52.1763   20.2795 C   0  0  0  0  0  0
    4.5863   51.6061   21.2025 O   0  0  0  0  0  0
    2.8113   51.7949   19.7805 N   0  0  0  0  0  0
    1.9711   50.7389   20.1697 C   0  0  0  0  0  0
    1.9062   50.2976   21.4988 C   0  0  0  0  0  0
    1.0127   49.2968   21.8596 C   0  0  0  0  0  0
    0.1759   48.7335   20.8985 C   0  0  0  0  0  0
    0.2347   49.1469   19.5669 C   0  0  0  0  0  0
    1.1353   50.1632   19.1909 C   0  0  0  0  0  0
    1.2230   50.6429   17.7380 C   0  0  0  0  0  0
   -0.6822   48.4664   18.5609 C   0  0  0  0  0  0
    2.0949   53.5136   23.4306 O   0  0  0  0  0  0
    0.8557   52.9798   23.8783 C   0  0  0  0  0  0
    5.9279   55.1410   28.0506 H   0  0  0  0  0  0
    6.8674   55.6968   26.6836 H   0  0  0  0  0  0
    6.9896   54.0084   27.1840 H   0  0  0  0  0  0
    3.7757   54.0068   27.6811 H   0  0  0  0  0  0
    1.9659   53.4221   26.1641 H   0  0  0  0  0  0
    6.3265   54.9184   24.3910 H   0  0  0  0  0  0
    3.5693   54.1628   21.9615 H   0  0  0  0  0  0
    6.7700   58.5265   18.5748 H   0  0  0  0  0  0
    5.5457   59.2819   16.4892 H   0  0  0  0  0  0
    6.3580   58.1322   15.4211 H   0  0  0  0  0  0
    4.5928   58.1141   15.5809 H   0  0  0  0  0  0
    2.5344   52.2560   18.9270 H   0  0  0  0  0  0
    2.5219   50.7423   22.2671 H   0  0  0  0  0  0
    0.9615   48.9625   22.8867 H   0  0  0  0  0  0
   -0.5134   47.9575   21.1996 H   0  0  0  0  0  0
    0.5437   50.1416   17.0522 H   0  0  0  0  0  0
    1.0083   51.7131   17.6822 H   0  0  0  0  0  0
    2.2374   50.4973   17.3596 H   0  0  0  0  0  0
   -0.0922   48.0269   17.7543 H   0  0  0  0  0  0
   -1.2725   47.6644   19.0096 H   0  0  0  0  0  0
   -1.3663   49.1890   18.1174 H   0  0  0  0  0  0
    0.2427   52.7352   23.0122 H   0  0  0  0  0  0
    0.9966   52.0612   24.4513 H   0  0  0  0  0  0
    0.3011   53.6976   24.4812 H   0  0  0  0  0  0
  1  2  1  0  0  0
  1 35  1  0  0  0
  1 36  1  0  0  0
  1 37  1  0  0  0
  2  7  2  0  0  0
  2  3  1  0  0  0
  3  4  2  0  0  0
  3 38  1  0  0  0
  4  5  1  0  0  0
  4 39  1  0  0  0
  5  6  2  0  0  0
  5 33  1  0  0  0
  6  7  1  0  0  0
  6  8  1  0  0  0
  7 40  1  0  0  0
  8  9  1  0  0  0
  8 41  1  0  0  0
  9 10  2  0  0  0
  9 11  1  0  0  0
 11 15  1  0  0  0
 11 12  2  0  0  0
 12 13  1  0  0  0
 12 22  1  0  0  0
 13 14  1  0  0  0
 14 20  2  0  0  0
 14 15  1  0  0  0
 15 16  1  0  0  0
 16 17  2  0  0  0
 16 18  1  0  0  0
 18 19  2  0  0  0
 18 42  1  0  0  0
 19 20  1  0  0  0
 19 21  1  0  0  0
 21 43  1  0  0  0
 21 44  1  0  0  0
 21 45  1  0  0  0
 22 23  2  0  0  0
 22 24  1  0  0  0
 24 25  1  0  0  0
 24 46  1  0  0  0
 25 30  2  0  0  0
 25 26  1  0  0  0
 26 27  2  0  0  0
 26 47  1  0  0  0
 27 28  1  0  0  0
 27 48  1  0  0  0
 28 29  2  0  0  0
 28 49  1  0  0  0
 29 30  1  0  0  0
 29 32  1  0  0  0
 30 31  1  0  0  0
 31 50  1  0  0  0
 31 51  1  0  0  0
 31 52  1  0  0  0
 32 53  1  0  0  0
 32 54  1  0  0  0
 32 55  1  0  0  0
 33 34  1  0  0  0
 34 56  1  0  0  0
 34 57  1  0  0  0
 34 58  1  0  0  0
M  END
> <i_i_glide_confnum>
150

> <i_i_glide_lignum>
3231

> <i_i_glide_posenum>
56

> <i_i_glide_rotatable_bonds>
7

> <i_m_Source_File_Index>
4739

> <b_m_subgroup_collapsed>
0

> <r_i_docking_score>
-6.00031

> <r_i_glide_ecoul>
-8.08269

> <r_i_glide_eff_state_penalty>
0

> <r_i_glide_einternal>
9.83373

> <r_i_glide_emodel>
-65.1349

> <r_i_glide_energy>
-50.6649

> <r_i_glide_erotb>
0.535025

> <r_i_glide_esite>
-0.0851099

> <r_i_glide_evdw>
-42.5822

> <r_i_glide_gscore>
-6.00031

> <r_i_glide_hbond>
-0.32

> <r_i_glide_ligand_efficiency>
-0.17648

> <r_i_glide_ligand_efficiency_ln>
-1.32564

> <r_i_glide_ligand_efficiency_sa>
-0.571726

> <r_i_glide_lipo>
-2.13509

> <r_i_glide_metal>
0

> <r_i_glide_rewards>
-0.653616

> <s_i_glide_gridfile>
wee1_glide-grid

> <s_m_Source_File>
wee1_decoys_glide_SP.sdf

> <s_m_Source_Path>
/Users/zhangxujun/Desktop

> <s_m_entry_id>
5014

> <s_m_entry_name>
wee1_decoys_glide_SP.4739

> <s_m_subgroup_title>
wee1_decoys_glide_SP

> <s_m_subgroupid>
wee1_decoys_glide_SP


$$$$
