@<TRIPOS>MOLECULE
ZINC20560238_829
68   71    1
SMALL
USER_CHARGES


@<TRIPOS>ATOM
      1 C1         -6.1218   53.3583   25.1540 C.3       1 UNK         0.0000 
      2 C2         -4.7773   53.6217   25.8500 C.3       1 UNK         0.0000 
      3 O3         -3.9021   52.4986   25.7480 O.3       1 UNK         0.0000 
      4 C4         -3.1784   52.2744   24.6205 C.2       1 UNK         0.0000 
      5 O5         -3.2056   53.0580   23.6728 O.2       1 UNK         0.0000 
      6 C6         -2.3978   51.0063   24.6325 C.2       1 UNK         0.0000 
      7 C7         -1.6111   50.5738   23.6058 C.2       1 UNK         0.0000 
      8 N8         -0.9706   49.3716   23.6811 N.am      1 UNK         0.0000 
      9 C9         -1.1649   48.4245   24.6252 C.2       1 UNK         0.0000 
     10 O10        -0.7662   47.2737   24.4814 O.2       1 UNK         0.0000 
     11 N11        -1.9139   48.8327   25.6815 N.am      1 UNK         0.0000 
     12 C12        -2.2969   50.2420   25.9745 C.3       1 UNK         0.0000 
     13 H13        -3.2554   50.2314   26.4982 H         1 UNK         0.0000 
     14 C14        -1.3391   50.8968   26.9916 C.ar      1 UNK         0.0000 
     15 C15        -1.8133   51.2972   28.2471 C.ar      1 UNK         0.0000 
     16 C16        -0.9236   51.7221   29.2330 C.ar      1 UNK         0.0000 
     17 C17         0.4415   51.7770   28.9677 C.ar      1 UNK         0.0000 
     18 C18         0.9226   51.3536   27.7336 C.ar      1 UNK         0.0000 
     19 C19         0.0393   50.9335   26.7428 C.ar      1 UNK         0.0000 
     20 C20         1.4061   52.2651   30.0327 C.3       1 UNK         0.0000 
     21 C21        -1.3450   51.2608   22.2546 C.3       1 UNK         0.0000 
     22 N22        -0.1346   52.0949   22.1746 N.3       1 UNK         0.0000 
     23 C23         1.1063   51.3146   22.0408 C.3       1 UNK         0.0000 
     24 C24         2.3932   52.1893   22.0664 C.3       1 UNK         0.0000 
     25 N25         2.4029   53.1893   23.1474 N.pl3     1 UNK         0.0000 
     26 C26         1.1620   53.9579   23.1253 C.3       1 UNK         0.0000 
     27 C27        -0.0465   53.0348   23.2946 C.3       1 UNK         0.0000 
     28 C28         3.5368   53.7175   23.7420 C.ar      1 UNK         0.0000 
     29 C29         4.6846   53.9613   22.9782 C.ar      1 UNK         0.0000 
     30 C30         5.8277   54.4916   23.5705 C.ar      1 UNK         0.0000 
     31 C31         5.8214   54.8240   24.9269 C.ar      1 UNK         0.0000 
     32 C32         4.6830   54.6023   25.6935 C.ar      1 UNK         0.0000 
     33 C33         3.5420   54.0496   25.1149 C.ar      1 UNK         0.0000 
     34 C34         2.3819   53.6976   26.0367 C.3       1 UNK         0.0000 
     35 C35         7.0618   55.3635   25.5899 C.3       1 UNK         0.0000 
     36 H36        -6.7972   54.2053   25.2759 H         1 UNK         0.0000 
     37 H37        -5.9942   53.1930   24.0844 H         1 UNK         0.0000 
     38 H38        -6.6124   52.4775   25.5701 H         1 UNK         0.0000 
     39 H39        -4.9614   53.8142   26.9008 H         1 UNK         0.0000 
     40 H40        -4.3056   54.5231   25.4533 H         1 UNK         0.0000 
     41 H41        -0.3627   49.0784   22.9337 H         1 UNK         0.0000 
     42 H42        -1.8301   48.2566   26.5184 H         1 UNK         0.0000 
     43 H43        -2.8648   51.2309   28.4838 H         1 UNK         0.0000 
     44 H44        -1.2882   52.0155   30.2070 H         1 UNK         0.0000 
     45 H45         1.9846   51.3412   27.5485 H         1 UNK         0.0000 
     46 H46         0.4371   50.5882   25.8009 H         1 UNK         0.0000 
     47 H47         1.5846   53.3333   29.9178 H         1 UNK         0.0000 
     48 H48         2.3612   51.7425   29.9618 H         1 UNK         0.0000 
     49 H49         1.0171   52.0841   31.0350 H         1 UNK         0.0000 
     50 H50        -1.3207   50.4959   21.4757 H         1 UNK         0.0000 
     51 H51        -2.2043   51.8568   21.9569 H         1 UNK         0.0000 
     52 H52         1.1968   50.6520   22.9024 H         1 UNK         0.0000 
     53 H53         1.0924   50.7201   21.1265 H         1 UNK         0.0000 
     54 H54         2.4410   52.7412   21.1265 H         1 UNK         0.0000 
     55 H55         3.2854   51.5628   22.1020 H         1 UNK         0.0000 
     56 H56         1.1066   54.4938   22.1814 H         1 UNK         0.0000 
     57 H57         1.1591   54.7376   23.8850 H         1 UNK         0.0000 
     58 H58        -0.9333   53.6630   23.3197 H         1 UNK         0.0000 
     59 H59         0.0432   52.5259   24.2555 H         1 UNK         0.0000 
     60 H60         4.6946   53.7290   21.9235 H         1 UNK         0.0000 
     61 H61         6.7129   54.6555   22.9724 H         1 UNK         0.0000 
     62 H62         4.6968   54.8333   26.7497 H         1 UNK         0.0000 
     63 H63         2.6955   53.6212   27.0785 H         1 UNK         0.0000 
     64 H64         1.5507   54.3969   25.9703 H         1 UNK         0.0000 
     65 H65         2.0023   52.7213   25.7451 H         1 UNK         0.0000 
     66 H66         7.0804   56.4496   25.5707 H         1 UNK         0.0000 
     67 H67         7.1462   55.0068   26.6186 H         1 UNK         0.0000 
     68 H68         7.9053   54.9710   25.0417 H         1 UNK         0.0000 
@<TRIPOS>BOND
     1    1    2 1    
     2    1   36 1    
     3    1   37 1    
     4    1   38 1    
     5    2    3 1    
     6    2   39 1    
     7    2   40 1    
     8    3    4 1    
     9    4    5 2    
    10    4    6 1    
    11    6   12 1    
    12    6    7 2    
    13    7    8 1    
    14    7   21 1    
    15    8    9 am   BACKBONE|DICT|INTERRES
    16    8   41 1    
    17    9   10 2    
    18    9   11 am   BACKBONE|DICT|INTERRES
    19   11   12 1    
    20   11   42 1    
    21   12   13 1    
    22   12   14 1    
    23   14   19 ar   
    24   14   15 ar   
    25   15   16 ar   
    26   15   43 1    
    27   16   17 ar   
    28   16   44 1    
    29   17   18 ar   
    30   17   20 1    
    31   18   19 ar   
    32   18   45 1    
    33   19   46 1    
    34   20   47 1    
    35   20   48 1    
    36   20   49 1    
    37   21   22 1    
    38   21   50 1    
    39   21   51 1    
    40   22   27 1    
    41   22   23 1    
    42   23   24 1    
    43   23   52 1    
    44   23   53 1    
    45   24   25 1    
    46   24   54 1    
    47   24   55 1    
    48   25   26 1    
    49   25   28 1    
    50   26   27 1    
    51   26   56 1    
    52   26   57 1    
    53   27   58 1    
    54   27   59 1    
    55   28   33 ar   
    56   28   29 ar   
    57   29   30 ar   
    58   29   60 1    
    59   30   31 ar   
    60   30   61 1    
    61   31   32 ar   
    62   31   35 1    
    63   32   33 ar   
    64   32   62 1    
    65   33   34 1    
    66   34   63 1    
    67   34   64 1    
    68   34   65 1    
    69   35   66 1    
    70   35   67 1    
    71   35   68 1    
@<TRIPOS>SUBSTRUCTURE
     1 UNK         1 GROUP             0       ****    0 ROOT    
