@<TRIPOS>MOLECULE
ZINC12455938_108
58   61    1
SMALL
USER_CHARGES


@<TRIPOS>ATOM
      1 C1         -1.1283   51.6449   29.1036 C.3       1 UNK         0.0000 
      2 C2         -0.6103   51.7212   27.6527 C.3       1 UNK         0.0000 
      3 H3         -1.0793   52.5828   27.1757 H         1 UNK         0.0000 
      4 C4          0.9410   51.8008   27.5634 C.3       1 UNK         0.0000 
      5 C5          1.5911   53.0277   28.1970 C.2       1 UNK         0.0000 
      6 C6          2.9682   53.1325   28.4588 C.2       1 UNK         0.0000 
      7 C7          3.3516   54.3422   29.0254 C.2       1 UNK         0.0000 
      8 S8          2.0082   55.4060   29.2571 S.3       1 UNK         0.0000 
      9 C9          0.9546   54.2110   28.5767 C.2       1 UNK         0.0000 
     10 C10        -0.9701   50.3231   25.3584 C.3       1 UNK         0.0000 
     11 C11        -0.9921   51.6780   24.6105 C.3       1 UNK         0.0000 
     12 C12        -0.4042   51.5927   23.1935 C.3       1 UNK         0.0000 
     13 N13         0.9487   51.0205   23.2473 N.pl3     1 UNK         0.0000 
     14 C14         0.8700   49.6184   23.6738 C.3       1 UNK         0.0000 
     15 C15         0.3041   49.4853   25.1085 C.3       1 UNK         0.0000 
     16 C16         1.9097   51.4685   22.3538 C.ar      1 UNK         0.0000 
     17 C17         2.3153   52.8016   22.4353 C.ar      1 UNK         0.0000 
     18 C18         3.2836   53.2973   21.5719 C.ar      1 UNK         0.0000 
     19 C19         3.8444   52.4722   20.5868 C.ar      1 UNK         0.0000 
     20 C20         3.4162   51.1475   20.4832 C.ar      1 UNK         0.0000 
     21 C21         2.4609   50.6443   21.3649 C.ar      1 UNK         0.0000 
     22 N22         4.8374   52.8765   19.6735 N.am      1 UNK         0.0000 
     23 C23         5.5102   54.0469   19.5955 C.2       1 UNK         0.0000 
     24 O24         5.3118   55.0228   20.3187 O.2       1 UNK         0.0000 
     25 C25         6.6342   54.0836   18.5877 C.ar      1 UNK         0.0000 
     26 C26         6.6377   53.2971   17.4231 C.ar      1 UNK         0.0000 
     27 N27         7.6895   53.3006   16.5616 N.ar      1 UNK         0.0000 
     28 C28         8.7425   54.1032   16.8657 C.ar      1 UNK         0.0000 
     29 C29         8.7449   54.8982   18.0135 C.ar      1 UNK         0.0000 
     30 N30         7.6923   54.8969   18.8745 N.ar      1 UNK         0.0000 
     31 H31        -0.9778   52.5805   29.6393 H         1 UNK         0.0000 
     32 H32        -2.1921   51.4129   29.1559 H         1 UNK         0.0000 
     33 H33        -0.5952   50.8956   29.6802 H         1 UNK         0.0000 
     34 H34         1.2554   51.7888   26.5214 H         1 UNK         0.0000 
     35 H35         1.3578   50.8937   28.0015 H         1 UNK         0.0000 
     36 H36         3.6710   52.3436   28.2287 H         1 UNK         0.0000 
     37 H37         4.3479   54.6531   29.3006 H         1 UNK         0.0000 
     38 H38        -0.0926   54.4439   28.4821 H         1 UNK         0.0000 
     39 H39        -1.7713   49.6968   24.9581 H         1 UNK         0.0000 
     40 H40        -1.9971   52.1007   24.6184 H         1 UNK         0.0000 
     41 H41        -0.3886   52.4333   25.1104 H         1 UNK         0.0000 
     42 H42        -1.0342   50.9901   22.5362 H         1 UNK         0.0000 
     43 H43        -0.3753   52.5985   22.7707 H         1 UNK         0.0000 
     44 H44         0.3043   49.0203   22.9557 H         1 UNK         0.0000 
     45 H45         1.8926   49.2398   23.6800 H         1 UNK         0.0000 
     46 H46         1.1043   49.7607   25.7876 H         1 UNK         0.0000 
     47 H47         0.1252   48.4408   25.3681 H         1 UNK         0.0000 
     48 H48         1.8951   53.4552   23.1855 H         1 UNK         0.0000 
     49 H49         3.5576   54.3336   21.6856 H         1 UNK         0.0000 
     50 H50         3.8193   50.4992   19.7166 H         1 UNK         0.0000 
     51 H51         2.1487   49.6152   21.2678 H         1 UNK         0.0000 
     52 H52         5.1046   52.1585   19.0071 H         1 UNK         0.0000 
     53 H53         5.8238   52.6318   17.1674 H         1 UNK         0.0000 
     54 H54         9.5782   54.0952   16.1800 H         1 UNK         0.0000 
     55 H55         9.5841   55.5337   18.2613 H         1 UNK         0.0000 
     56 N56        -1.1857   50.4970   26.8819 N.4       1 UNK         0.0000 
     57 H57        -0.9024   49.6370   27.3572 H         1 UNK         0.0000 
     58 H58        -2.1841   50.5129   27.0243 H         1 UNK         0.0000 
@<TRIPOS>BOND
     1    1    2 1    
     2    1   31 1    
     3    1   32 1    
     4    1   33 1    
     5    2    3 1    
     6    2    4 1    
     7    2   56 1    
     8    4    5 1    
     9    4   34 1    
    10    4   35 1    
    11    5    9 2    
    12    5    6 1    
    13    6    7 2    
    14    6   36 1    
    15    7    8 1    
    16    7   37 1    
    17    8    9 1    
    18    9   38 1    
    19   10   15 1    
    20   10   11 1    
    21   10   39 1    
    22   10   56 1    
    23   11   12 1    
    24   11   40 1    
    25   11   41 1    
    26   12   13 1    
    27   12   42 1    
    28   12   43 1    
    29   13   14 1    
    30   13   16 1    
    31   14   15 1    
    32   14   44 1    
    33   14   45 1    
    34   15   46 1    
    35   15   47 1    
    36   16   21 ar   
    37   16   17 ar   
    38   17   18 ar   
    39   17   48 1    
    40   18   19 ar   
    41   18   49 1    
    42   19   20 ar   
    43   19   22 1    
    44   20   21 ar   
    45   20   50 1    
    46   21   51 1    
    47   22   23 am   BACKBONE|DICT|INTERRES
    48   22   52 1    
    49   23   24 2    
    50   23   25 1    
    51   25   30 ar   
    52   25   26 ar   
    53   26   27 ar   
    54   26   53 1    
    55   27   28 ar   
    56   28   29 ar   
    57   28   54 1    
    58   29   30 ar   
    59   29   55 1    
    60   56   57 1    
    61   56   58 1    
@<TRIPOS>SUBSTRUCTURE
     1 UNK         1 GROUP             0       ****    0 ROOT    
