@<TRIPOS>MOLECULE
ZINC34900368_2119
64   67    1
SMALL
USER_CHARGES


@<TRIPOS>ATOM
      1 C1          0.1189   53.3391   30.1415 C.ar      1 UNK         0.0000 
      2 C2         -0.4957   52.0966   30.0118 C.ar      1 UNK         0.0000 
      3 C3         -0.5083   51.4614   28.7711 C.ar      1 UNK         0.0000 
      4 C4          0.1259   52.0453   27.6764 C.ar      1 UNK         0.0000 
      5 C5          0.7222   53.2973   27.8091 C.ar      1 UNK         0.0000 
      6 C6          0.7128   53.9518   29.0407 C.ar      1 UNK         0.0000 
      7 C7          0.1830   51.3113   26.3440 C.3       1 UNK         0.0000 
      8 S8         -1.3916   51.4840   25.3167 S.o2      1 UNK         0.0000 
      9 O9         -1.7786   52.8955   25.2517 O.2       1 UNK         0.0000 
     10 O10        -2.3562   50.4834   25.7844 O.2       1 UNK         0.0000 
     11 N11        -0.8566   51.0097   23.7000 N.pl3     1 UNK         0.0000 
     12 C12        -1.7092   50.0831   22.8868 C.3       1 UNK         0.0000 
     13 C13        -1.5955   50.6687   21.4700 C.3       1 UNK         0.0000 
     14 C14        -1.1169   52.0938   21.6595 C.3       1 UNK         0.0000 
     15 C15        -0.1488   52.0175   22.8427 C.3       1 UNK         0.0000 
     16 H16        -0.0058   52.9769   23.3437 H         1 UNK         0.0000 
     17 C17         1.2508   51.4928   22.4282 C.2       1 UNK         0.0000 
     18 O18         1.5096   50.2869   22.4264 O.2       1 UNK         0.0000 
     19 N19         2.1447   52.4190   22.0293 N.am      1 UNK         0.0000 
     20 C20         3.4938   52.0988   21.5369 C.3       1 UNK         0.0000 
     21 H21         3.8464   51.2216   22.0820 H         1 UNK         0.0000 
     22 C22         3.5043   51.7017   20.0495 C.3       1 UNK         0.0000 
     23 C23         3.2753   52.8803   19.0936 C.3       1 UNK         0.0000 
     24 C24         4.3490   53.9561   19.3179 C.3       1 UNK         0.0000 
     25 C25         4.4305   54.3895   20.7936 C.3       1 UNK         0.0000 
     26 C26         4.5330   53.2315   21.8032 C.3       1 UNK         0.0000 
     27 H27         5.5042   52.7651   21.6225 H         1 UNK         0.0000 
     28 N28         4.5538   53.6860   23.1969 N.am      1 UNK         0.0000 
     29 C29         5.6108   54.1498   23.8829 C.2       1 UNK         0.0000 
     30 O30         6.7051   54.3596   23.3644 O.2       1 UNK         0.0000 
     31 C31         5.3984   54.3128   25.3702 C.ar      1 UNK         0.0000 
     32 C32         6.4954   54.2401   26.2424 C.ar      1 UNK         0.0000 
     33 C33         6.3071   54.3242   27.6209 C.ar      1 UNK         0.0000 
     34 C34         5.0259   54.4936   28.1341 C.ar      1 UNK         0.0000 
     35 C35         3.9353   54.5824   27.2825 C.ar      1 UNK         0.0000 
     36 C36         4.1142   54.4963   25.9072 C.ar      1 UNK         0.0000 
     37 F37         4.8335   54.5931   29.4671 F         1 UNK         0.0000 
     38 H38         0.1223   53.8327   31.1032 H         1 UNK         0.0000 
     39 H39        -0.9641   51.6302   30.8695 H         1 UNK         0.0000 
     40 H40        -0.9972   50.5038   28.6604 H         1 UNK         0.0000 
     41 H41         1.1844   53.7615   26.9523 H         1 UNK         0.0000 
     42 H42         1.1660   54.9254   29.1468 H         1 UNK         0.0000 
     43 H43         0.3497   50.2440   26.4906 H         1 UNK         0.0000 
     44 H44         1.0050   51.6820   25.7342 H         1 UNK         0.0000 
     45 H45        -2.7656   50.1548   23.1536 H         1 UNK         0.0000 
     46 H46        -1.3024   49.0721   22.8344 H         1 UNK         0.0000 
     47 H47        -2.5390   50.6164   20.9216 H         1 UNK         0.0000 
     48 H48        -0.8612   50.1056   20.8870 H         1 UNK         0.0000 
     49 H49        -1.9568   52.7451   21.9132 H         1 UNK         0.0000 
     50 H50        -0.6552   52.4930   20.7531 H         1 UNK         0.0000 
     51 H51         1.8336   53.3698   21.8915 H         1 UNK         0.0000 
     52 H52         2.7956   50.8965   19.8534 H         1 UNK         0.0000 
     53 H53         4.4857   51.2961   19.8349 H         1 UNK         0.0000 
     54 H54         2.2776   53.2963   19.2408 H         1 UNK         0.0000 
     55 H55         3.3121   52.5267   18.0624 H         1 UNK         0.0000 
     56 H56         4.1417   54.8210   18.6869 H         1 UNK         0.0000 
     57 H57         5.3196   53.5701   18.9974 H         1 UNK         0.0000 
     58 H58         3.5047   54.8971   21.0295 H         1 UNK         0.0000 
     59 H59         5.2464   55.1023   20.9318 H         1 UNK         0.0000 
     60 H60         3.6802   53.5992   23.6912 H         1 UNK         0.0000 
     61 H61         7.4933   54.0978   25.8541 H         1 UNK         0.0000 
     62 H62         7.1495   54.2634   28.2947 H         1 UNK         0.0000 
     63 H63         2.9583   54.7549   27.6926 H         1 UNK         0.0000 
     64 H64         3.2464   54.5820   25.2715 H         1 UNK         0.0000 
@<TRIPOS>BOND
     1    1    6 ar   
     2    1    2 ar   
     3    1   38 1    
     4    2    3 ar   
     5    2   39 1    
     6    3    4 ar   
     7    3   40 1    
     8    4    5 ar   
     9    4    7 1    
    10    5    6 ar   
    11    5   41 1    
    12    6   42 1    
    13    7    8 1    
    14    7   43 1    
    15    7   44 1    
    16    8    9 2    
    17    8   10 2    
    18    8   11 1    
    19   11   15 1    
    20   11   12 1    
    21   12   13 1    
    22   12   45 1    
    23   12   46 1    
    24   13   14 1    
    25   13   47 1    
    26   13   48 1    
    27   14   15 1    
    28   14   49 1    
    29   14   50 1    
    30   15   16 1    
    31   15   17 1    
    32   17   18 2    
    33   17   19 am   BACKBONE|DICT|INTERRES
    34   19   20 1    
    35   19   51 1    
    36   20   21 1    
    37   20   26 1    
    38   20   22 1    
    39   22   23 1    
    40   22   52 1    
    41   22   53 1    
    42   23   24 1    
    43   23   54 1    
    44   23   55 1    
    45   24   25 1    
    46   24   56 1    
    47   24   57 1    
    48   25   26 1    
    49   25   58 1    
    50   25   59 1    
    51   26   27 1    
    52   26   28 1    
    53   28   29 am   BACKBONE|DICT|INTERRES
    54   28   60 1    
    55   29   30 2    
    56   29   31 1    
    57   31   36 ar   
    58   31   32 ar   
    59   32   33 ar   
    60   32   61 1    
    61   33   34 ar   
    62   33   62 1    
    63   34   35 ar   
    64   34   37 1    
    65   35   36 ar   
    66   35   63 1    
    67   36   64 1    
@<TRIPOS>SUBSTRUCTURE
     1 UNK         1 GROUP             0       ****    0 ROOT    
