@<TRIPOS>MOLECULE
ZINC23590882_5849
52   55    1
SMALL
USER_CHARGES


@<TRIPOS>ATOM
      1 C1          0.5476   54.2637   30.3276 C.3       1 UNK         0.0000 
      2 C2          0.8782   52.8343   29.8599 C.3       1 UNK         0.0000 
      3 H3          0.1646   52.1787   30.3648 H         1 UNK         0.0000 
      4 C4          2.2717   52.3327   30.2864 C.3       1 UNK         0.0000 
      5 C5          3.4143   53.1641   29.6681 C.3       1 UNK         0.0000 
      6 C6          3.1673   53.3136   28.1654 C.2       1 UNK         0.0000 
      7 C7          1.9169   53.0842   27.5811 C.2       1 UNK         0.0000 
      8 S8          1.9045   53.2967   25.8437 S.3       1 UNK         0.0000 
      9 C9          3.5889   53.7664   25.8746 C.ar      1 UNK         0.0000 
     10 C10         4.1356   53.7244   27.1896 C.ar      1 UNK         0.0000 
     11 C11         5.5011   54.0868   27.2719 C.ar      1 UNK         0.0000 
     12 N12         6.2168   54.4381   26.1765 N.ar      1 UNK         0.0000 
     13 C13         5.5758   54.4107   24.9844 C.ar      1 UNK         0.0000 
     14 N14         4.2704   54.0969   24.7736 N.ar      1 UNK         0.0000 
     15 S15         6.5803   54.7591   23.5751 S.3       1 UNK         0.0000 
     16 C16         5.5563   54.5519   22.0784 C.3       1 UNK         0.0000 
     17 C17         6.0583   55.3005   20.8269 C.2       1 UNK         0.0000 
     18 O18         7.0520   56.0280   20.9178 O.2       1 UNK         0.0000 
     19 N19         5.3454   55.1911   19.6705 N.am      1 UNK         0.0000 
     20 C20         4.2741   54.1860   19.5101 C.3       1 UNK         0.0000 
     21 C21         4.9023   52.9633   18.8146 C.3       1 UNK         0.0000 
     22 C22         5.5780   53.3461   17.4825 C.3       1 UNK         0.0000 
     23 C23         6.5156   54.5646   17.6379 C.3       1 UNK         0.0000 
     24 C24         5.8732   55.7549   18.4034 C.3       1 UNK         0.0000 
     25 H25         6.6585   56.4817   18.6218 H         1 UNK         0.0000 
     26 C26         4.8424   56.5337   17.5644 C.3       1 UNK         0.0000 
     27 N27         6.1890   54.0966   28.4808 N.pl3     1 UNK         0.0000 
     28 C28         0.6759   52.6130   28.3392 C.3       1 UNK         0.0000 
     29 H29         1.1612   55.0110   29.8235 H         1 UNK         0.0000 
     30 H30        -0.4955   54.4960   30.1221 H         1 UNK         0.0000 
     31 H31         0.6970   54.3740   31.4024 H         1 UNK         0.0000 
     32 H32         2.3660   52.3567   31.3736 H         1 UNK         0.0000 
     33 H33         2.3872   51.2971   29.9721 H         1 UNK         0.0000 
     34 H34         4.3547   52.6491   29.8642 H         1 UNK         0.0000 
     35 H35         3.4862   54.1466   30.1344 H         1 UNK         0.0000 
     36 H36         4.5453   54.8962   22.2926 H         1 UNK         0.0000 
     37 H37         5.5056   53.4850   21.8644 H         1 UNK         0.0000 
     38 H38         3.5086   54.6262   18.8711 H         1 UNK         0.0000 
     39 H39         3.7177   53.9696   20.4224 H         1 UNK         0.0000 
     40 H40         4.1286   52.2157   18.6336 H         1 UNK         0.0000 
     41 H41         5.6240   52.4846   19.4776 H         1 UNK         0.0000 
     42 H42         4.8082   53.5741   16.7440 H         1 UNK         0.0000 
     43 H43         6.1326   52.4966   17.0837 H         1 UNK         0.0000 
     44 H44         6.8869   54.8924   16.6662 H         1 UNK         0.0000 
     45 H45         7.4036   54.2427   18.1851 H         1 UNK         0.0000 
     46 H46         5.3234   57.0216   16.7164 H         1 UNK         0.0000 
     47 H47         4.3436   57.2967   18.1587 H         1 UNK         0.0000 
     48 H48         4.0773   55.8811   17.1450 H         1 UNK         0.0000 
     49 H49         5.6941   53.8840   29.3325 H         1 UNK         0.0000 
     50 H50         7.1385   54.4411   28.5134 H         1 UNK         0.0000 
     51 H51        -0.2157   53.1369   27.9928 H         1 UNK         0.0000 
     52 H52         0.4977   51.5534   28.1486 H         1 UNK         0.0000 
@<TRIPOS>BOND
     1    1    2 1    
     2    1   29 1    
     3    1   30 1    
     4    1   31 1    
     5    2    3 1    
     6    2   28 1    
     7    2    4 1    
     8    4    5 1    
     9    4   32 1    
    10    4   33 1    
    11    5    6 1    
    12    5   34 1    
    13    5   35 1    
    14    6   10 1    
    15    6    7 2    
    16    7    8 1    
    17    7   28 1    
    18    8    9 1    
    19    9   14 ar   
    20    9   10 ar   
    21   10   11 ar   
    22   11   12 ar   
    23   11   27 1    
    24   12   13 ar   
    25   13   14 ar   
    26   13   15 1    
    27   15   16 1    
    28   16   17 1    
    29   16   36 1    
    30   16   37 1    
    31   17   18 2    
    32   17   19 am   BACKBONE|DICT|INTERRES
    33   19   24 1    
    34   19   20 1    
    35   20   21 1    
    36   20   38 1    
    37   20   39 1    
    38   21   22 1    
    39   21   40 1    
    40   21   41 1    
    41   22   23 1    
    42   22   42 1    
    43   22   43 1    
    44   23   24 1    
    45   23   44 1    
    46   23   45 1    
    47   24   25 1    
    48   24   26 1    
    49   26   46 1    
    50   26   47 1    
    51   26   48 1    
    52   27   49 1    
    53   27   50 1    
    54   28   51 1    
    55   28   52 1    
@<TRIPOS>SUBSTRUCTURE
     1 UNK         1 GROUP             0       ****    0 ROOT    
