ZINC39665390_5543
                    3D
 Schrodinger Suite 2024-2.
 70 74  0  0  1  0            999 V2000
    0.6919   50.5325   16.3290 C   0  0  0  0  0  0
    1.8097   51.4513   16.8513 C   0  0  1  0  0  0
    2.7385   50.8965   16.9434 H   0  0  0  0  0  0
    2.1219   52.6172   15.8926 C   0  0  0  0  0  0
    3.2387   53.4060   16.3977 N   0  0  0  0  0  0
    3.9658   54.3131   15.7224 C   0  0  0  0  0  0
    3.7673   54.5518   14.5314 O   0  0  0  0  0  0
    5.1460   55.0231   16.4537 C   0  0  2  0  0  0
    6.0606   54.5680   16.0693 H   0  0  0  0  0  0
    5.0831   54.7108   17.9646 C   0  0  0  0  0  0
    5.7464   55.8295   18.6184 N   0  0  0  0  0  0
    6.0371   56.9003   17.6571 C   0  0  0  0  0  0
    5.1889   56.5782   16.3921 C   0  0  0  0  0  0
    5.8015   57.1104   15.0710 C   0  0  0  0  0  0
    5.9861   58.6433   15.0976 C   0  0  0  0  0  0
    4.5976   59.2962   15.2830 N   0  3  0  0  0  0
    3.8240   58.7740   16.5118 C   0  0  0  0  0  0
    3.7701   57.2319   16.4666 C   0  0  0  0  0  0
    6.0737   55.9177   19.9386 C   0  0  0  0  0  0
    6.7049   56.8817   20.3827 O   0  0  0  0  0  0
    5.5976   54.8968   20.8737 C   0  0  0  0  0  0
    4.7067   53.8184   20.7913 C   0  0  0  0  0  0
    4.5027   53.3470   22.0834 C   0  0  0  0  0  0
    5.2696   54.1307   22.9256 C   0  0  0  0  0  0
    5.9803   55.0189   22.1788 O   0  0  0  0  0  0
    5.3535   54.2412   24.4067 C   0  0  0  0  0  0
    4.1746   54.0948   25.1451 C   0  0  0  0  0  0
    4.2038   54.1781   26.5337 C   0  0  0  0  0  0
    5.4112   54.4112   27.1839 C   0  0  0  0  0  0
    6.5866   54.5738   26.4554 C   0  0  0  0  0  0
    6.5617   54.4986   25.0616 C   0  0  0  0  0  0
    5.4414   54.4838   28.5335 F   0  0  0  0  0  0
    1.4426   51.9985   18.1244 O   0  0  0  0  0  0
    1.6253   51.2775   19.2928 C   0  0  0  0  0  0
    2.1634   49.9824   19.3631 C   0  0  0  0  0  0
    2.2998   49.3441   20.5939 C   0  0  0  0  0  0
    1.9076   49.9937   21.7608 C   0  0  0  0  0  0
    1.3746   51.2784   21.7055 C   0  0  0  0  0  0
    1.2367   51.9133   20.4736 C   0  0  0  0  0  0
    0.9602   50.1015   15.3650 H   0  0  0  0  0  0
    0.5049   49.7051   17.0134 H   0  0  0  0  0  0
   -0.2432   51.0787   16.2046 H   0  0  0  0  0  0
    2.3573   52.2281   14.9000 H   0  0  0  0  0  0
    1.2490   53.2630   15.7878 H   0  0  0  0  0  0
    3.4716   53.2247   17.3642 H   0  0  0  0  0  0
    4.0500   54.7718   18.3127 H   0  0  0  0  0  0
    5.5458   53.7463   18.1824 H   0  0  0  0  0  0
    7.0896   56.7962   17.3865 H   0  0  0  0  0  0
    5.9135   57.9152   18.0333 H   0  0  0  0  0  0
    6.7861   56.6633   14.9278 H   0  0  0  0  0  0
    5.2152   56.7941   14.2062 H   0  0  0  0  0  0
    6.6071   58.9965   15.9232 H   0  0  0  0  0  0
    6.3840   59.0381   14.1616 H   0  0  0  0  0  0
    4.6984   60.3017   15.4405 H   0  0  0  0  0  0
    4.3610   59.1790   17.3650 H   0  0  0  0  0  0
    2.8362   59.2385   16.4783 H   0  0  0  0  0  0
    3.1355   56.9168   15.6368 H   0  0  0  0  0  0
    3.2566   56.8872   17.3643 H   0  0  0  0  0  0
    4.1868   53.4258   19.9318 H   0  0  0  0  0  0
    3.8267   52.5587   22.3772 H   0  0  0  0  0  0
    3.2349   53.9096   24.6454 H   0  0  0  0  0  0
    3.2969   54.0583   27.1078 H   0  0  0  0  0  0
    7.5049   54.7491   26.9901 H   0  0  0  0  0  0
    7.4740   54.6190   24.4934 H   0  0  0  0  0  0
    2.4874   49.4504   18.4813 H   0  0  0  0  0  0
    2.7042   48.3438   20.6398 H   0  0  0  0  0  0
    2.0160   49.4966   22.7155 H   0  0  0  0  0  0
    1.0714   51.7791   22.6128 H   0  0  0  0  0  0
    0.8243   52.9095   20.4308 H   0  0  0  0  0  0
    4.0377   59.1759   14.4508 H   0  0  0  0  0  0
  1  2  1  0  0  0
  1 40  1  0  0  0
  1 41  1  0  0  0
  1 42  1  0  0  0
  2  3  1  0  0  0
  2  4  1  0  0  0
  2 33  1  0  0  0
  4  5  1  0  0  0
  4 43  1  0  0  0
  4 44  1  0  0  0
  5  6  1  0  0  0
  5 45  1  0  0  0
  6  7  2  0  0  0
  6  8  1  0  0  0
  8  9  1  0  0  0
  8 13  1  0  0  0
  8 10  1  0  0  0
 10 11  1  0  0  0
 10 46  1  0  0  0
 10 47  1  0  0  0
 11 12  1  0  0  0
 11 19  1  0  0  0
 12 13  1  0  0  0
 12 48  1  0  0  0
 12 49  1  0  0  0
 13 18  1  0  0  0
 13 14  1  0  0  0
 14 15  1  0  0  0
 14 50  1  0  0  0
 14 51  1  0  0  0
 15 16  1  0  0  0
 15 52  1  0  0  0
 15 53  1  0  0  0
 16 17  1  0  0  0
 16 54  1  0  0  0
 16 70  1  0  0  0
 17 18  1  0  0  0
 17 55  1  0  0  0
 17 56  1  0  0  0
 18 57  1  0  0  0
 18 58  1  0  0  0
 19 20  2  0  0  0
 19 21  1  0  0  0
 21 25  1  0  0  0
 21 22  2  0  0  0
 22 23  1  0  0  0
 22 59  1  0  0  0
 23 24  2  0  0  0
 23 60  1  0  0  0
 24 25  1  0  0  0
 24 26  1  0  0  0
 26 31  2  0  0  0
 26 27  1  0  0  0
 27 28  2  0  0  0
 27 61  1  0  0  0
 28 29  1  0  0  0
 28 62  1  0  0  0
 29 30  2  0  0  0
 29 32  1  0  0  0
 30 31  1  0  0  0
 30 63  1  0  0  0
 31 64  1  0  0  0
 33 34  1  0  0  0
 34 39  2  0  0  0
 34 35  1  0  0  0
 35 36  2  0  0  0
 35 65  1  0  0  0
 36 37  1  0  0  0
 36 66  1  0  0  0
 37 38  2  0  0  0
 37 67  1  0  0  0
 38 39  1  0  0  0
 38 68  1  0  0  0
 39 69  1  0  0  0
M  CHG  1  16   1
M  END
> <i_i_glide_confnum>
381

> <i_i_glide_lignum>
5544

> <i_i_glide_posenum>
46

> <i_i_glide_rotatable_bonds>
9

> <i_m_Source_File_Index>
2599

> <b_m_subgroup_collapsed>
0

> <r_i_docking_score>
-6.47392

> <r_i_glide_ecoul>
-9.80555

> <r_i_glide_eff_state_penalty>
0

> <r_i_glide_einternal>
11.08

> <r_i_glide_emodel>
-65.1884

> <r_i_glide_energy>
-48.267

> <r_i_glide_erotb>
0.637833

> <r_i_glide_esite>
-0.117786

> <r_i_glide_evdw>
-38.4614

> <r_i_glide_gscore>
-6.47392

> <r_i_glide_hbond>
-0.486986

> <r_i_glide_ligand_efficiency>
-0.174971

> <r_i_glide_ligand_efficiency_ln>
-1.40404

> <r_i_glide_ligand_efficiency_sa>
-0.583042

> <r_i_glide_lipo>
-2.61593

> <r_i_glide_metal>
0

> <r_i_glide_rewards>
-0.497147

> <s_i_glide_gridfile>
wee1_glide-grid

> <s_m_Source_File>
wee1_decoys_glide_SP.sdf

> <s_m_Source_Path>
/Users/zhangxujun/Desktop

> <s_m_entry_id>
2874

> <s_m_entry_name>
wee1_decoys_glide_SP.2599

> <s_m_subgroup_title>
wee1_decoys_glide_SP

> <s_m_subgroupid>
wee1_decoys_glide_SP


$$$$
