ZINC00718235_5835
                    3D
 Schrodinger Suite 2024-2.
 56 61  0  0  1  0            999 V2000
   -3.3095   53.1373   24.5476 C   0  0  0  0  0  0
   -2.9087   51.6856   24.9153 C   0  0  0  0  0  0
   -1.5420   51.6510   25.6559 C   0  0  0  0  0  0
   -0.3690   51.9684   24.7199 C   0  0  0  0  0  0
   -0.3943   51.8112   23.3696 C   0  0  0  0  0  0
    0.8398   52.1572   22.4776 C   0  0  1  0  0  0
    0.5185   52.8854   21.7333 H   0  0  0  0  0  0
    1.9469   52.8862   23.2986 C   0  0  0  0  0  0
    3.1443   53.3909   22.6790 C   0  0  0  0  0  0
    3.4123   53.3003   21.2832 C   0  0  0  0  0  0
    4.5907   53.8115   20.7522 C   0  0  0  0  0  0
    5.5049   54.4031   21.6116 C   0  0  0  0  0  0
    5.3211   54.4966   22.9480 N   0  0  0  0  0  0
    4.1558   54.0243   23.4752 C   0  0  0  0  0  0
    3.9602   54.1719   24.8618 C   0  0  0  0  0  0
    2.8006   53.6967   25.4527 C   0  0  0  0  0  0
    1.8290   53.0581   24.6899 C   0  0  0  0  0  0
    0.7035   52.5508   25.3421 N   0  0  0  0  0  0
    1.3788   50.8841   21.8108 C   0  0  0  0  0  0
    1.8712   49.7783   22.4926 C   0  0  0  0  0  0
    2.3042   48.8983   21.5532 N   0  0  0  0  0  0
    2.7667   48.0220   21.7463 H   0  0  0  0  0  0
    2.1087   49.3353   20.3161 N   0  0  0  0  0  0
    1.5624   50.5315   20.4359 C   0  0  0  0  0  0
    1.2814   51.3115   19.1763 C   0  0  0  0  0  0
    2.1311   51.1582   18.0697 C   0  0  0  0  0  0
    1.9037   51.8619   16.8892 C   0  0  0  0  0  0
    0.8240   52.7326   16.8075 C   0  0  0  0  0  0
   -0.0280   52.9030   17.8928 C   0  0  0  0  0  0
    0.2036   52.1953   19.0695 C   0  0  0  0  0  0
    0.5969   53.4174   15.6634 F   0  0  0  0  0  0
   -1.6138   51.2752   22.7145 C   0  0  0  0  0  0
   -1.7426   51.1873   21.4943 O   0  0  0  0  0  0
   -2.7657   50.8315   23.6317 C   0  0  0  0  0  0
   -3.9605   50.9991   25.8138 C   0  0  0  0  0  0
   -3.5094   53.7184   25.4495 H   0  0  0  0  0  0
   -2.5409   53.6699   23.9831 H   0  0  0  0  0  0
   -4.2228   53.1524   23.9512 H   0  0  0  0  0  0
   -1.6164   52.3959   26.4527 H   0  0  0  0  0  0
   -1.3246   50.6840   26.1151 H   0  0  0  0  0  0
    2.6854   52.8861   20.6106 H   0  0  0  0  0  0
    4.7803   53.7592   19.6895 H   0  0  0  0  0  0
    6.4232   54.8165   21.2238 H   0  0  0  0  0  0
    4.7206   54.6532   25.4610 H   0  0  0  0  0  0
    2.6704   53.8060   26.5213 H   0  0  0  0  0  0
    0.6677   52.6431   26.3463 H   0  0  0  0  0  0
    1.9740   49.5618   23.5490 H   0  0  0  0  0  0
    2.9854   50.4980   18.1149 H   0  0  0  0  0  0
    2.5649   51.7264   16.0440 H   0  0  0  0  0  0
   -0.8642   53.5847   17.8207 H   0  0  0  0  0  0
   -0.4706   52.3504   19.8909 H   0  0  0  0  0  0
   -3.6900   50.7805   23.0535 H   0  0  0  0  0  0
   -2.5254   49.8061   23.9179 H   0  0  0  0  0  0
   -4.0918   51.5397   26.7529 H   0  0  0  0  0  0
   -4.9352   50.9552   25.3252 H   0  0  0  0  0  0
   -3.6739   49.9762   26.0660 H   0  0  0  0  0  0
  1  2  1  0  0  0
  1 36  1  0  0  0
  1 37  1  0  0  0
  1 38  1  0  0  0
  2 34  1  0  0  0
  2  3  1  0  0  0
  2 35  1  0  0  0
  3  4  1  0  0  0
  3 39  1  0  0  0
  3 40  1  0  0  0
  4 18  1  0  0  0
  4  5  2  0  0  0
  5  6  1  0  0  0
  5 32  1  0  0  0
  6  7  1  0  0  0
  6  8  1  0  0  0
  6 19  1  0  0  0
  8 17  2  0  0  0
  8  9  1  0  0  0
  9 14  2  0  0  0
  9 10  1  0  0  0
 10 11  2  0  0  0
 10 41  1  0  0  0
 11 12  1  0  0  0
 11 42  1  0  0  0
 12 13  2  0  0  0
 12 43  1  0  0  0
 13 14  1  0  0  0
 14 15  1  0  0  0
 15 16  2  0  0  0
 15 44  1  0  0  0
 16 17  1  0  0  0
 16 45  1  0  0  0
 17 18  1  0  0  0
 18 46  1  0  0  0
 19 24  1  0  0  0
 19 20  2  0  0  0
 20 21  1  0  0  0
 20 47  1  0  0  0
 21 22  1  0  0  0
 21 23  1  0  0  0
 23 24  2  0  0  0
 24 25  1  0  0  0
 25 30  2  0  0  0
 25 26  1  0  0  0
 26 27  2  0  0  0
 26 48  1  0  0  0
 27 28  1  0  0  0
 27 49  1  0  0  0
 28 29  2  0  0  0
 28 31  1  0  0  0
 29 30  1  0  0  0
 29 50  1  0  0  0
 30 51  1  0  0  0
 32 33  2  0  0  0
 32 34  1  0  0  0
 34 52  1  0  0  0
 34 53  1  0  0  0
 35 54  1  0  0  0
 35 55  1  0  0  0
 35 56  1  0  0  0
M  END
> <i_i_glide_confnum>
8

> <i_i_glide_lignum>
5836

> <i_i_glide_posenum>
371

> <i_i_glide_rotatable_bonds>
2

> <i_m_Source_File_Index>
2563

> <b_m_subgroup_collapsed>
0

> <r_i_docking_score>
-4.15569

> <r_i_glide_ecoul>
-2.04375

> <r_i_glide_eff_state_penalty>
0

> <r_i_glide_einternal>
0.817747

> <r_i_glide_emodel>
-46.9459

> <r_i_glide_energy>
-37.7504

> <r_i_glide_erotb>
0.207514

> <r_i_glide_esite>
-0.00015948

> <r_i_glide_evdw>
-35.7066

> <r_i_glide_gscore>
-4.15569

> <r_i_glide_hbond>
0

> <r_i_glide_ligand_efficiency>
-0.12593

> <r_i_glide_ligand_efficiency_ln>
-0.924204

> <r_i_glide_ligand_efficiency_sa>
-0.403925

> <r_i_glide_lipo>
-1.8518

> <r_i_glide_metal>
0

> <r_i_glide_rewards>
-0.419345

> <s_i_glide_gridfile>
wee1_glide-grid

> <s_m_Source_File>
wee1_decoys_glide_SP.sdf

> <s_m_Source_Path>
/Users/zhangxujun/Desktop

> <s_m_entry_id>
2838

> <s_m_entry_name>
wee1_decoys_glide_SP.2563

> <s_m_subgroup_title>
wee1_decoys_glide_SP

> <s_m_subgroupid>
wee1_decoys_glide_SP


$$$$
