ZINC04480585_5223
                    3D
 Schrodinger Suite 2024-2.
 46 48  0  0  1  0            999 V2000
    3.5534   52.6867   21.4600 C   0  0  0  0  0  0
    4.8300   52.9950   21.9237 C   0  0  0  0  0  0
    5.0018   53.6970   23.1185 C   0  0  0  0  0  0
    3.8767   54.0966   23.8536 C   0  0  0  0  0  0
    2.5954   53.8353   23.3638 C   0  0  0  0  0  0
    2.4361   53.0948   22.1892 C   0  0  0  0  0  0
    1.1638   52.8361   21.6831 N   0  0  0  0  0  0
    0.3721   51.7295   21.8102 C   0  0  0  0  0  0
   -0.9647   51.6967   20.8100 S   0  0  0  0  0  0
    0.7091   50.7108   22.6823 N   0  0  0  0  0  0
    0.3545   49.2958   22.4353 C   0  0  0  0  0  0
   -0.9679   48.8148   23.0941 C   0  0  0  0  0  0
   -1.1752   49.1465   24.5903 C   0  0  0  0  0  0
   -1.2712   50.6017   24.8430 N   0  0  0  0  0  0
   -0.0484   51.4089   25.0036 C   0  0  0  0  0  0
    1.1051   50.9559   24.0816 C   0  0  0  0  0  0
   -2.3505   51.0093   25.6863 C   0  0  0  0  0  0
   -3.3662   51.8719   25.2404 C   0  0  0  0  0  0
   -4.4723   52.1149   26.0647 C   0  0  0  0  0  0
   -4.5596   51.5008   27.3243 C   0  0  0  0  0  0
   -3.4954   50.6979   27.7503 C   0  0  0  0  0  0
   -5.7768   51.6971   28.2245 C   0  0  0  0  0  0
   -6.6021   50.6637   28.0718 F   0  0  0  0  0  0
   -5.4102   51.7691   29.5056 F   0  0  0  0  0  0
   -6.4361   52.8169   27.9204 F   0  0  0  0  0  0
   -3.2956   52.6226   23.6842 Cl  0  0  0  0  0  0
    4.0368   54.8963   25.3773 Cl  0  0  0  0  0  0
    6.6080   54.0301   23.6704 Cl  0  0  0  0  0  0
    3.4379   52.1425   20.5324 H   0  0  0  0  0  0
    5.6839   52.6728   21.3516 H   0  0  0  0  0  0
    1.7296   54.1705   23.9172 H   0  0  0  0  0  0
    0.8639   53.5122   20.9920 H   0  0  0  0  0  0
    0.3389   49.0857   21.3639 H   0  0  0  0  0  0
    1.1761   48.6949   22.8289 H   0  0  0  0  0  0
   -1.8136   49.2115   22.5302 H   0  0  0  0  0  0
   -1.0335   47.7334   22.9642 H   0  0  0  0  0  0
   -2.0746   48.6559   24.9682 H   0  0  0  0  0  0
   -0.3501   48.7605   25.1924 H   0  0  0  0  0  0
    0.2462   51.3407   26.0519 H   0  0  0  0  0  0
   -0.3346   52.4388   24.7848 H   0  0  0  0  0  0
    1.5041   50.0232   24.4824 H   0  0  0  0  0  0
    1.9447   51.6316   24.1691 H   0  0  0  0  0  0
   -5.2686   52.7552   25.7100 H   0  0  0  0  0  0
   -3.4474   50.1689   28.6959 H   0  0  0  0  0  0
   -2.4521   50.4891   26.9277 N   0  3  0  0  0  0
   -1.7478   49.8229   27.2433 H   0  0  0  0  0  0
  1  6  2  0  0  0
  1  2  1  0  0  0
  1 29  1  0  0  0
  2  3  2  0  0  0
  2 30  1  0  0  0
  3  4  1  0  0  0
  3 28  1  0  0  0
  4  5  2  0  0  0
  4 27  1  0  0  0
  5  6  1  0  0  0
  5 31  1  0  0  0
  6  7  1  0  0  0
  7  8  1  0  0  0
  7 32  1  0  0  0
  8  9  2  0  0  0
  8 10  1  0  0  0
 10 16  1  0  0  0
 10 11  1  0  0  0
 11 12  1  0  0  0
 11 33  1  0  0  0
 11 34  1  0  0  0
 12 13  1  0  0  0
 12 35  1  0  0  0
 12 36  1  0  0  0
 13 14  1  0  0  0
 13 37  1  0  0  0
 13 38  1  0  0  0
 14 15  1  0  0  0
 14 17  1  0  0  0
 15 16  1  0  0  0
 15 39  1  0  0  0
 15 40  1  0  0  0
 16 41  1  0  0  0
 16 42  1  0  0  0
 17 18  2  0  0  0
 17 45  1  0  0  0
 18 19  1  0  0  0
 18 26  1  0  0  0
 19 20  2  0  0  0
 19 43  1  0  0  0
 20 21  1  0  0  0
 20 22  1  0  0  0
 21 44  1  0  0  0
 21 45  2  0  0  0
 22 23  1  0  0  0
 22 24  1  0  0  0
 22 25  1  0  0  0
 45 46  1  0  0  0
M  CHG  1  45   1
M  END
> <i_i_glide_confnum>
111

> <i_i_glide_lignum>
5224

> <i_i_glide_posenum>
330

> <i_i_glide_rotatable_bonds>
5

> <i_m_Source_File_Index>
6055

> <b_m_subgroup_collapsed>
0

> <r_i_docking_score>
-2.57482

> <r_i_glide_ecoul>
-5.72004

> <r_i_glide_eff_state_penalty>
0

> <r_i_glide_einternal>
3.96666

> <r_i_glide_emodel>
-35.2171

> <r_i_glide_energy>
-35.4082

> <r_i_glide_erotb>
0.3457

> <r_i_glide_esite>
-0.191223

> <r_i_glide_evdw>
-29.6881

> <r_i_glide_gscore>
-2.57482

> <r_i_glide_hbond>
-0.451691

> <r_i_glide_ligand_efficiency>
-0.0887868

> <r_i_glide_ligand_efficiency_ln>
-0.589568

> <r_i_glide_ligand_efficiency_sa>
-0.272781

> <r_i_glide_lipo>
-1.76425

> <r_i_glide_metal>
0

> <r_i_glide_rewards>
1.82906

> <s_i_glide_gridfile>
wee1_glide-grid

> <s_m_Source_File>
wee1_decoys_glide_SP.sdf

> <s_m_Source_Path>
/Users/zhangxujun/Desktop

> <s_m_entry_id>
6330

> <s_m_entry_name>
wee1_decoys_glide_SP.6055

> <s_m_subgroup_title>
wee1_decoys_glide_SP

> <s_m_subgroupid>
wee1_decoys_glide_SP


$$$$
