@<TRIPOS>MOLECULE
ZINC39639422_4998
75   78    1
SMALL
USER_CHARGES


@<TRIPOS>ATOM
      1 C1          2.4700   48.7151   19.2105 C.3       1 UNK         0.0000 
      2 C2          2.1182   49.7329   20.2805 C.ar      1 UNK         0.0000 
      3 C3          1.6502   50.9940   19.9123 C.ar      1 UNK         0.0000 
      4 C4          1.3083   51.9216   20.8921 C.ar      1 UNK         0.0000 
      5 C5          1.4333   51.5969   22.2463 C.ar      1 UNK         0.0000 
      6 C6          1.9041   50.3281   22.6084 C.ar      1 UNK         0.0000 
      7 C7          2.2497   49.4026   21.6294 C.ar      1 UNK         0.0000 
      8 C8          1.0331   52.6345   23.3045 C.3       1 UNK         0.0000 
      9 H9          0.2115   53.2250   22.8947 H         1 UNK         0.0000 
     10 C10         2.1824   53.6153   23.5534 C.3       1 UNK         0.0000 
     11 N11         0.5465   52.0791   24.5771 N.am      1 UNK         0.0000 
     12 C12        -0.6191   51.4207   24.7229 C.2       1 UNK         0.0000 
     13 O13        -1.3953   51.2708   23.7819 O.2       1 UNK         0.0000 
     14 C14        -1.0015   50.8374   26.1103 C.3       1 UNK         0.0000 
     15 H15        -1.4662   49.8783   25.8953 H         1 UNK         0.0000 
     16 C16         0.1938   50.5651   27.0340 C.3       1 UNK         0.0000 
     17 N17         0.3085   51.7786   27.8446 N.am      1 UNK         0.0000 
     18 C18        -0.8963   52.5982   27.7768 C.3       1 UNK         0.0000 
     19 C19        -1.9234   51.7740   26.9548 C.3       1 UNK         0.0000 
     20 C20        -3.0077   52.6150   26.2153 C.3       1 UNK         0.0000 
     21 C21        -4.0470   51.7036   25.5096 C.3       1 UNK         0.0000 
     22 N22        -4.7161   50.7665   26.5425 N.4       1 UNK         0.0000 
     23 C23        -3.7278   49.9929   27.4430 C.3       1 UNK         0.0000 
     24 C24        -2.7490   51.0154   28.0401 C.3       1 UNK         0.0000 
     25 C25         1.3495   52.0599   28.6604 C.2       1 UNK         0.0000 
     26 O26         2.3050   51.2967   28.7805 O.2       1 UNK         0.0000 
     27 C27         1.3399   53.4004   29.4540 C.3       1 UNK         0.0000 
     28 H28         0.7979   54.1620   28.8948 H         1 UNK         0.0000 
     29 C29         0.6604   53.2123   30.8437 C.3       1 UNK         0.0000 
     30 C30         1.4497   52.3209   31.8296 C.3       1 UNK         0.0000 
     31 C31         0.2820   54.5634   31.4684 C.3       1 UNK         0.0000 
     32 O32         2.6556   53.9442   29.6838 O.3       1 UNK         0.0000 
     33 C33         3.5470   54.1899   28.6525 C.ar      1 UNK         0.0000 
     34 C34         3.2222   54.2210   27.2883 C.ar      1 UNK         0.0000 
     35 C35         4.2290   54.3962   26.3395 C.ar      1 UNK         0.0000 
     36 C36         5.5576   54.4961   26.7400 C.ar      1 UNK         0.0000 
     37 C37         5.8807   54.4969   28.0910 C.ar      1 UNK         0.0000 
     38 C38         4.8658   54.4100   29.0357 C.ar      1 UNK         0.0000 
     39 H39         2.3412   47.6973   19.5752 H         1 UNK         0.0000 
     40 H40         1.8225   48.8225   18.3423 H         1 UNK         0.0000 
     41 H41         3.4994   48.8462   18.8819 H         1 UNK         0.0000 
     42 H42         1.5524   51.2561   18.8680 H         1 UNK         0.0000 
     43 H43         0.9524   52.8967   20.5915 H         1 UNK         0.0000 
     44 H44         2.0111   50.0543   23.6485 H         1 UNK         0.0000 
     45 H45         2.6296   48.4343   21.9245 H         1 UNK         0.0000 
     46 H46         2.4498   54.1507   22.6407 H         1 UNK         0.0000 
     47 H47         1.9110   54.3618   24.2980 H         1 UNK         0.0000 
     48 H48         3.0700   53.0850   23.8968 H         1 UNK         0.0000 
     49 H49         1.1477   52.1797   25.3791 H         1 UNK         0.0000 
     50 H50         1.1034   50.2653   26.5119 H         1 UNK         0.0000 
     51 H51        -0.0956   49.7357   27.6744 H         1 UNK         0.0000 
     52 H52        -1.2954   52.8487   28.7566 H         1 UNK         0.0000 
     53 H53        -0.6591   53.5267   27.2815 H         1 UNK         0.0000 
     54 H54        -3.5237   53.3028   26.8817 H         1 UNK         0.0000 
     55 H55        -2.5394   53.2674   25.4752 H         1 UNK         0.0000 
     56 H56        -4.8505   52.2741   25.0420 H         1 UNK         0.0000 
     57 H57        -3.6164   51.0395   24.7627 H         1 UNK         0.0000 
     58 H58        -5.3176   51.3187   27.1371 H         1 UNK         0.0000 
     59 H59        -4.3230   49.5035   28.2153 H         1 UNK         0.0000 
     60 H60        -3.2579   49.2169   26.8423 H         1 UNK         0.0000 
     61 H61        -2.0771   50.4967   28.7185 H         1 UNK         0.0000 
     62 H62        -3.2823   51.6970   28.7030 H         1 UNK         0.0000 
     63 H63        -0.2923   52.6977   30.6989 H         1 UNK         0.0000 
     64 H64         2.4739   52.6543   31.9732 H         1 UNK         0.0000 
     65 H65         0.9605   52.2773   32.8036 H         1 UNK         0.0000 
     66 H66         1.5281   51.2969   31.4807 H         1 UNK         0.0000 
     67 H67         1.1046   55.2721   31.5029 H         1 UNK         0.0000 
     68 H68        -0.4954   55.0422   30.8814 H         1 UNK         0.0000 
     69 H69        -0.0953   54.4391   32.4832 H         1 UNK         0.0000 
     70 H70         2.2022   54.1085   26.9545 H         1 UNK         0.0000 
     71 H71         3.9978   54.4395   25.2901 H         1 UNK         0.0000 
     72 H72         6.3379   54.5929   25.9986 H         1 UNK         0.0000 
     73 H73         6.9052   54.5759   28.4220 H         1 UNK         0.0000 
     74 H74         5.1040   54.4935   30.0807 H         1 UNK         0.0000 
     75 H75        -5.3165   50.1078   26.0656 H         1 UNK         0.0000 
@<TRIPOS>BOND
     1    1    2 1    
     2    1   39 1    
     3    1   40 1    
     4    1   41 1    
     5    2    7 ar   
     6    2    3 ar   
     7    3    4 ar   
     8    3   42 1    
     9    4    5 ar   
    10    4   43 1    
    11    5    6 ar   
    12    5    8 1    
    13    6    7 ar   
    14    6   44 1    
    15    7   45 1    
    16    8    9 1    
    17    8   10 1    
    18    8   11 1    
    19   10   46 1    
    20   10   47 1    
    21   10   48 1    
    22   11   12 am   BACKBONE|DICT|INTERRES
    23   11   49 1    
    24   12   13 2    
    25   12   14 1    
    26   14   15 1    
    27   14   19 1    
    28   14   16 1    
    29   16   17 1    
    30   16   50 1    
    31   16   51 1    
    32   17   18 1    
    33   17   25 am   BACKBONE|DICT|INTERRES
    34   18   19 1    
    35   18   52 1    
    36   18   53 1    
    37   19   24 1    
    38   19   20 1    
    39   20   21 1    
    40   20   54 1    
    41   20   55 1    
    42   21   22 1    
    43   21   56 1    
    44   21   57 1    
    45   22   23 1    
    46   22   58 1    
    47   22   75 1    
    48   23   24 1    
    49   23   59 1    
    50   23   60 1    
    51   24   61 1    
    52   24   62 1    
    53   25   26 2    
    54   25   27 1    
    55   27   28 1    
    56   27   29 1    
    57   27   32 1    
    58   29   30 1    
    59   29   31 1    
    60   29   63 1    
    61   30   64 1    
    62   30   65 1    
    63   30   66 1    
    64   31   67 1    
    65   31   68 1    
    66   31   69 1    
    67   32   33 1    
    68   33   38 ar   
    69   33   34 ar   
    70   34   35 ar   
    71   34   70 1    
    72   35   36 ar   
    73   35   71 1    
    74   36   37 ar   
    75   36   72 1    
    76   37   38 ar   
    77   37   73 1    
    78   38   74 1    
@<TRIPOS>SUBSTRUCTURE
     1 UNK         1 GROUP             0       ****    0 ROOT    
