ZINC28955946_5339
                    3D
 Schrodinger Suite 2024-2.
 60 63  0  0  1  0            999 V2000
    3.7529   54.1005   24.4375 C   0  0  0  0  0  0
    4.5322   54.2977   23.2977 C   0  0  0  0  0  0
    5.8633   54.5264   23.5946 C   0  0  0  0  0  0
    6.1666   54.4825   25.3053 S   0  0  0  0  0  0
    4.4913   54.0973   25.6111 C   0  0  0  0  0  0
    3.9328   53.8267   26.9161 C   0  0  0  0  0  0
    4.5625   53.3685   28.0113 C   0  0  0  0  0  0
    3.6200   53.0901   29.5046 S   0  0  0  0  0  0
    4.3039   52.0522   30.2810 O   0  0  0  0  0  0
    3.3596   54.4131   30.0817 O   0  0  0  0  0  0
    2.0799   52.4102   29.0031 N   0  0  0  0  0  0
    0.8975   53.2940   28.9054 C   0  0  0  0  0  0
   -0.1302   52.8051   27.8666 C   0  0  2  0  0  0
   -0.8171   53.6314   27.6808 H   0  0  0  0  0  0
   -1.0110   51.6440   28.2896 C   0  0  0  0  0  0
   -1.6520   51.1625   26.9829 C   0  0  0  0  0  0
   -0.6036   51.4444   25.9918 N   0  0  0  0  0  0
    0.4409   52.3344   26.5182 C   0  0  0  0  0  0
   -0.6036   50.8665   24.7646 C   0  0  0  0  0  0
   -1.5724   50.2284   24.3464 O   0  0  0  0  0  0
    0.6666   50.9787   23.8774 C   0  0  0  0  0  0
    0.8290   49.7373   22.9664 C   0  0  0  0  0  0
    2.0994   49.9032   22.1072 C   0  0  0  0  0  0
    2.0627   51.1404   21.2987 N   0  0  0  0  0  0
    1.9567   52.3048   22.1900 C   0  0  0  0  0  0
    0.6413   52.2541   23.0076 C   0  0  0  0  0  0
    2.0562   51.2019   19.9048 C   0  0  0  0  0  0
    2.3816   52.3870   19.2129 C   0  0  0  0  0  0
    2.3801   52.4122   17.8149 C   0  0  0  0  0  0
    2.0478   51.2977   17.1365 N   0  3  0  0  0  0
    1.7085   50.1460   17.7420 C   0  0  0  0  0  0
    1.7296   50.0713   19.1365 C   0  0  0  0  0  0
    7.1077   54.8964   22.4822 Cl  0  0  0  0  0  0
    2.6874   53.9307   24.4087 H   0  0  0  0  0  0
    4.1381   54.3151   22.2912 H   0  0  0  0  0  0
    2.8708   54.0046   26.9637 H   0  0  0  0  0  0
    5.6181   53.1535   28.0601 H   0  0  0  0  0  0
    1.8962   51.4564   29.3256 H   0  0  0  0  0  0
    0.4356   53.3627   29.8924 H   0  0  0  0  0  0
    1.2309   54.3006   28.6544 H   0  0  0  0  0  0
   -0.3829   50.8435   28.6824 H   0  0  0  0  0  0
   -1.7152   51.8764   29.0881 H   0  0  0  0  0  0
   -1.8884   50.0984   27.0499 H   0  0  0  0  0  0
   -2.5397   51.7571   26.7657 H   0  0  0  0  0  0
    0.7047   53.1682   25.8715 H   0  0  0  0  0  0
    1.3171   51.7073   26.6967 H   0  0  0  0  0  0
    1.5052   51.0062   24.5713 H   0  0  0  0  0  0
    0.9724   48.8303   23.5552 H   0  0  0  0  0  0
   -0.0023   49.6181   22.2676 H   0  0  0  0  0  0
    2.9664   49.9661   22.7674 H   0  0  0  0  0  0
    2.2837   49.0093   21.5124 H   0  0  0  0  0  0
    2.8103   52.2487   22.8638 H   0  0  0  0  0  0
    2.0355   53.2628   21.6795 H   0  0  0  0  0  0
   -0.1832   52.2431   22.2925 H   0  0  0  0  0  0
    0.6184   53.1619   23.6060 H   0  0  0  0  0  0
    2.6989   53.2848   19.7278 H   0  0  0  0  0  0
    2.6573   53.2710   17.2185 H   0  0  0  0  0  0
    1.4990   49.3068   17.0916 H   0  0  0  0  0  0
    1.4678   49.1358   19.6030 H   0  0  0  0  0  0
    2.1149   51.3057   16.1268 H   0  0  0  0  0  0
  1  5  2  0  0  0
  1  2  1  0  0  0
  1 34  1  0  0  0
  2  3  2  0  0  0
  2 35  1  0  0  0
  3  4  1  0  0  0
  3 33  1  0  0  0
  4  5  1  0  0  0
  5  6  1  0  0  0
  6  7  2  0  0  0
  6 36  1  0  0  0
  7  8  1  0  0  0
  7 37  1  0  0  0
  8  9  2  0  0  0
  8 10  2  0  0  0
  8 11  1  0  0  0
 11 12  1  0  0  0
 11 38  1  0  0  0
 12 13  1  0  0  0
 12 39  1  0  0  0
 12 40  1  0  0  0
 13 14  1  0  0  0
 13 18  1  0  0  0
 13 15  1  0  0  0
 15 16  1  0  0  0
 15 41  1  0  0  0
 15 42  1  0  0  0
 16 17  1  0  0  0
 16 43  1  0  0  0
 16 44  1  0  0  0
 17 18  1  0  0  0
 17 19  1  0  0  0
 18 45  1  0  0  0
 18 46  1  0  0  0
 19 20  2  0  0  0
 19 21  1  0  0  0
 21 26  1  0  0  0
 21 22  1  0  0  0
 21 47  1  0  0  0
 22 23  1  0  0  0
 22 48  1  0  0  0
 22 49  1  0  0  0
 23 24  1  0  0  0
 23 50  1  0  0  0
 23 51  1  0  0  0
 24 25  1  0  0  0
 24 27  1  0  0  0
 25 26  1  0  0  0
 25 52  1  0  0  0
 25 53  1  0  0  0
 26 54  1  0  0  0
 26 55  1  0  0  0
 27 32  2  0  0  0
 27 28  1  0  0  0
 28 29  2  0  0  0
 28 56  1  0  0  0
 29 30  1  0  0  0
 29 57  1  0  0  0
 30 31  2  0  0  0
 30 60  1  0  0  0
 31 32  1  0  0  0
 31 58  1  0  0  0
 32 59  1  0  0  0
M  CHG  1  30   1
M  END
> <i_i_glide_confnum>
136

> <i_i_glide_lignum>
5340

> <i_i_glide_posenum>
354

> <i_i_glide_rotatable_bonds>
8

> <i_m_Source_File_Index>
3419

> <b_m_subgroup_collapsed>
0

> <r_i_docking_score>
-5.48543

> <r_i_glide_ecoul>
-5.43451

> <r_i_glide_eff_state_penalty>
0

> <r_i_glide_einternal>
9.29446

> <r_i_glide_emodel>
-61.6937

> <r_i_glide_energy>
-48.8687

> <r_i_glide_erotb>
0.58

> <r_i_glide_esite>
-0.183909

> <r_i_glide_evdw>
-43.4342

> <r_i_glide_gscore>
-5.48543

> <r_i_glide_hbond>
0

> <r_i_glide_ligand_efficiency>
-0.17142

> <r_i_glide_ligand_efficiency_ln>
-1.22834

> <r_i_glide_ligand_efficiency_sa>
-0.544224

> <r_i_glide_lipo>
-2.49169

> <r_i_glide_metal>
0

> <r_i_glide_rewards>
-0.402949

> <s_i_glide_gridfile>
wee1_glide-grid

> <s_m_Source_File>
wee1_decoys_glide_SP.sdf

> <s_m_Source_Path>
/Users/zhangxujun/Desktop

> <s_m_entry_id>
3694

> <s_m_entry_name>
wee1_decoys_glide_SP.3419

> <s_m_subgroup_title>
wee1_decoys_glide_SP

> <s_m_subgroupid>
wee1_decoys_glide_SP


$$$$
