@<TRIPOS>MOLECULE
ZINC23182370_3621
52   55    1
SMALL
USER_CHARGES


@<TRIPOS>ATOM
      1 C1          8.3716   57.1233   16.6020 C.ar      1 UNK         0.0000 
      2 C2          7.2761   57.5450   17.3499 C.ar      1 UNK         0.0000 
      3 C3          7.1056   57.0736   18.6491 C.ar      1 UNK         0.0000 
      4 C4          8.0376   56.1781   19.1953 C.ar      1 UNK         0.0000 
      5 C5          9.1392   55.7721   18.4430 C.ar      1 UNK         0.0000 
      6 C6          9.3054   56.2406   17.1427 C.ar      1 UNK         0.0000 
      7 N7          7.9541   55.6972   20.5119 N.am      1 UNK         0.0000 
      8 C8          6.8270   55.4514   21.2049 C.2       1 UNK         0.0000 
      9 O9          5.6958   55.5135   20.7284 O.2       1 UNK         0.0000 
     10 N10         7.1044   55.1358   22.4851 N.am      1 UNK         0.0000 
     11 C11         6.1942   54.8104   23.4972 C.ar      1 UNK         0.0000 
     12 C12         6.5542   55.1366   24.8043 C.ar      1 UNK         0.0000 
     13 C13         5.6709   54.8964   25.8533 C.ar      1 UNK         0.0000 
     14 C14         4.4142   54.3404   25.5994 C.ar      1 UNK         0.0000 
     15 C15         4.0713   53.9924   24.2827 C.ar      1 UNK         0.0000 
     16 C16         4.9671   54.1927   23.2440 C.ar      1 UNK         0.0000 
     17 N17         3.5611   54.1813   26.7126 N.am      1 UNK         0.0000 
     18 C18         2.2993   53.6944   26.7509 C.2       1 UNK         0.0000 
     19 O19         1.7237   53.2273   25.7727 O.2       1 UNK         0.0000 
     20 C20         1.5813   53.8033   28.0833 C.ar      1 UNK         0.0000 
     21 C21         1.8113   54.9330   28.8887 C.ar      1 UNK         0.0000 
     22 C22         1.1770   55.0863   30.1185 C.ar      1 UNK         0.0000 
     23 C23         0.3054   54.1048   30.5776 C.ar      1 UNK         0.0000 
     24 C24         0.0447   52.9854   29.7944 C.ar      1 UNK         0.0000 
     25 C25         0.6681   52.8233   28.5547 C.ar      1 UNK         0.0000 
     26 S26         0.2609   51.3419   27.6619 S.3       1 UNK         0.0000 
     27 C27        -0.8790   51.7947   26.3000 C.3       1 UNK         0.0000 
     28 C28        -2.3705   51.7610   26.5885 C.2       1 UNK         0.0000 
     29 C29        -3.3514   52.5230   25.9555 C.2       1 UNK         0.0000 
     30 S30        -4.9243   52.0583   26.5222 S.3       1 UNK         0.0000 
     31 C31        -4.1303   50.9308   27.5684 C.2       1 UNK         0.0000 
     32 N32        -2.8284   50.8968   27.4761 N.2       1 UNK         0.0000 
     33 H33         8.4995   57.4866   15.5912 H         1 UNK         0.0000 
     34 H34         6.5617   58.2379   16.9283 H         1 UNK         0.0000 
     35 H35         6.2536   57.4179   19.2183 H         1 UNK         0.0000 
     36 H36         9.8735   55.0918   18.8576 H         1 UNK         0.0000 
     37 H37        10.1548   55.9223   16.5558 H         1 UNK         0.0000 
     38 H38         8.8298   55.4355   20.9379 H         1 UNK         0.0000 
     39 H39         8.0582   55.2658   22.7971 H         1 UNK         0.0000 
     40 H40         7.5049   55.6059   25.0013 H         1 UNK         0.0000 
     41 H41         5.9603   55.1658   26.8586 H         1 UNK         0.0000 
     42 H42         3.1303   53.5488   24.0107 H         1 UNK         0.0000 
     43 H43         4.6762   53.9022   22.2473 H         1 UNK         0.0000 
     44 H44         3.9441   54.4928   27.5919 H         1 UNK         0.0000 
     45 H45         2.4738   55.7217   28.5644 H         1 UNK         0.0000 
     46 H46         1.3683   55.9628   30.7208 H         1 UNK         0.0000 
     47 H47        -0.1692   54.2090   31.5433 H         1 UNK         0.0000 
     48 H48        -0.6362   52.2301   30.1592 H         1 UNK         0.0000 
     49 H49        -0.6446   51.1750   25.4357 H         1 UNK         0.0000 
     50 H50        -0.6365   52.8151   26.0075 H         1 UNK         0.0000 
     51 H51        -3.2331   53.2769   25.1922 H         1 UNK         0.0000 
     52 H52        -4.6821   50.2826   28.2311 H         1 UNK         0.0000 
@<TRIPOS>BOND
     1    1    6 ar   
     2    1    2 ar   
     3    1   33 1    
     4    2    3 ar   
     5    2   34 1    
     6    3    4 ar   
     7    3   35 1    
     8    4    5 ar   
     9    4    7 1    
    10    5    6 ar   
    11    5   36 1    
    12    6   37 1    
    13    7    8 am   BACKBONE|DICT|INTERRES
    14    7   38 1    
    15    8    9 2    
    16    8   10 am   BACKBONE|DICT|INTERRES
    17   10   11 1    
    18   10   39 1    
    19   11   16 ar   
    20   11   12 ar   
    21   12   13 ar   
    22   12   40 1    
    23   13   14 ar   
    24   13   41 1    
    25   14   15 ar   
    26   14   17 1    
    27   15   16 ar   
    28   15   42 1    
    29   16   43 1    
    30   17   18 am   BACKBONE|DICT|INTERRES
    31   17   44 1    
    32   18   19 2    
    33   18   20 1    
    34   20   25 ar   
    35   20   21 ar   
    36   21   22 ar   
    37   21   45 1    
    38   22   23 ar   
    39   22   46 1    
    40   23   24 ar   
    41   23   47 1    
    42   24   25 ar   
    43   24   48 1    
    44   25   26 1    
    45   26   27 1    
    46   27   28 1    
    47   27   49 1    
    48   27   50 1    
    49   28   32 1    
    50   28   29 2    
    51   29   30 1    
    52   29   51 1    
    53   30   31 1    
    54   31   32 2    
    55   31   52 1    
@<TRIPOS>SUBSTRUCTURE
     1 UNK         1 GROUP             0       ****    0 ROOT    
