@<TRIPOS>MOLECULE
ZINC33006957_5951
59   62    1
SMALL
USER_CHARGES


@<TRIPOS>ATOM
      1 C1         -5.5138   44.6683   27.5660 C.3       1 UNK         0.0000 
      2 C2         -5.6215   46.1185   27.9978 C.ar      1 UNK         0.0000 
      3 C3         -4.5965   46.7128   28.7388 C.ar      1 UNK         0.0000 
      4 C4         -4.6925   48.0524   29.1087 C.ar      1 UNK         0.0000 
      5 C5         -5.8055   48.8036   28.7215 C.ar      1 UNK         0.0000 
      6 C6         -6.8297   48.2089   27.9818 C.ar      1 UNK         0.0000 
      7 C7         -6.7394   46.8660   27.6249 C.ar      1 UNK         0.0000 
      8 S8         -5.9256   50.5469   29.1311 S.o2      1 UNK         0.0000 
      9 O9         -7.3395   50.8189   29.4141 O.2       1 UNK         0.0000 
     10 O10        -4.8934   50.8913   30.1142 O.2       1 UNK         0.0000 
     11 N11        -5.5674   51.4279   27.6289 N.pl3     1 UNK         0.0000 
     12 C12        -4.2940   51.6748   27.0798 C.ar      1 UNK         0.0000 
     13 C13        -3.1927   50.9239   27.5065 C.ar      1 UNK         0.0000 
     14 C14        -1.9241   51.1377   26.9789 C.ar      1 UNK         0.0000 
     15 C15        -1.7096   52.0959   25.9885 C.ar      1 UNK         0.0000 
     16 C16        -2.8149   52.8247   25.5376 C.ar      1 UNK         0.0000 
     17 C17        -4.1059   52.6659   26.0783 C.ar      1 UNK         0.0000 
     18 C18        -5.2058   53.5858   25.5908 C.2       1 UNK         0.0000 
     19 O19        -4.8944   54.4969   24.7887 O.co2     1 UNK         0.0000 
     20 O20        -6.3708   53.4304   26.0222 O.co2     1 UNK         0.0000 
     21 N21        -0.4357   52.3529   25.4866 N.pl3     1 UNK         0.0000 
     22 C22        -0.1573   52.5101   24.0570 C.3       1 UNK         0.0000 
     23 C23         0.9659   53.5226   23.7593 C.3       1 UNK         0.0000 
     24 N24         2.2306   53.2656   24.4632 N.pl3     1 UNK         0.0000 
     25 C25         1.9891   53.0279   25.8967 C.3       1 UNK         0.0000 
     26 C26         0.7941   52.1142   26.2521 C.3       1 UNK         0.0000 
     27 C27         3.4639   53.7104   23.9739 C.ar      1 UNK         0.0000 
     28 C28         4.4953   54.1170   24.8384 C.ar      1 UNK         0.0000 
     29 C29         5.7458   54.4977   24.3500 C.ar      1 UNK         0.0000 
     30 C30         5.9914   54.4888   22.9803 C.ar      1 UNK         0.0000 
     31 C31         4.9858   54.0960   22.0965 C.ar      1 UNK         0.0000 
     32 C32         3.7365   53.7126   22.5943 C.ar      1 UNK         0.0000 
     33 C33         5.2328   54.0958   20.5987 C.3       1 UNK         0.0000 
     34 H34        -5.7778   44.5725   26.5094 H         1 UNK         0.0000 
     35 H35        -6.2032   44.0400   28.1330 H         1 UNK         0.0000 
     36 H36        -4.4971   44.2871   27.6805 H         1 UNK         0.0000 
     37 H37        -3.7149   46.1512   29.0177 H         1 UNK         0.0000 
     38 H38        -3.8865   48.5001   29.6743 H         1 UNK         0.0000 
     39 H39        -7.6922   48.7852   27.6791 H         1 UNK         0.0000 
     40 H40        -7.5345   46.4138   27.0493 H         1 UNK         0.0000 
     41 H41        -6.3406   51.8961   27.1663 H         1 UNK         0.0000 
     42 H42        -3.2875   50.1596   28.2598 H         1 UNK         0.0000 
     43 H43        -1.1092   50.5330   27.3504 H         1 UNK         0.0000 
     44 H44        -2.6556   53.5687   24.7719 H         1 UNK         0.0000 
     45 H45         0.1242   51.5368   23.6533 H         1 UNK         0.0000 
     46 H46        -1.0595   52.8064   23.5225 H         1 UNK         0.0000 
     47 H47         0.6143   54.4972   24.0911 H         1 UNK         0.0000 
     48 H48         1.1025   53.5889   22.6820 H         1 UNK         0.0000 
     49 H49         1.7751   54.0070   26.3294 H         1 UNK         0.0000 
     50 H50         2.8804   52.6397   26.3879 H         1 UNK         0.0000 
     51 H51         0.5996   52.1578   27.3250 H         1 UNK         0.0000 
     52 H52         1.1012   51.0896   26.0316 H         1 UNK         0.0000 
     53 H53         4.3458   54.1424   25.9060 H         1 UNK         0.0000 
     54 H54         6.5230   54.8018   25.0350 H         1 UNK         0.0000 
     55 H55         6.9614   54.7899   22.6108 H         1 UNK         0.0000 
     56 H56         2.9900   53.3884   21.8862 H         1 UNK         0.0000 
     57 H57         6.1077   54.6894   20.3302 H         1 UNK         0.0000 
     58 H58         5.3649   53.0772   20.2333 H         1 UNK         0.0000 
     59 H59         4.3777   54.5286   20.0771 H         1 UNK         0.0000 
@<TRIPOS>BOND
     1    1    2 1    
     2    1   34 1    
     3    1   35 1    
     4    1   36 1    
     5    2    7 ar   
     6    2    3 ar   
     7    3    4 ar   
     8    3   37 1    
     9    4    5 ar   
    10    4   38 1    
    11    5    6 ar   
    12    5    8 1    
    13    6    7 ar   
    14    6   39 1    
    15    7   40 1    
    16    8    9 2    
    17    8   10 2    
    18    8   11 1    
    19   11   12 1    
    20   11   41 1    
    21   12   17 ar   
    22   12   13 ar   
    23   13   14 ar   
    24   13   42 1    
    25   14   15 ar   
    26   14   43 1    
    27   15   16 ar   
    28   15   21 1    
    29   16   17 ar   
    30   16   44 1    
    31   17   18 1    
    32   18   19 2    
    33   18   20 1    
    34   21   26 1    
    35   21   22 1    
    36   22   23 1    
    37   22   45 1    
    38   22   46 1    
    39   23   24 1    
    40   23   47 1    
    41   23   48 1    
    42   24   25 1    
    43   24   27 1    
    44   25   26 1    
    45   25   49 1    
    46   25   50 1    
    47   26   51 1    
    48   26   52 1    
    49   27   32 ar   
    50   27   28 ar   
    51   28   29 ar   
    52   28   53 1    
    53   29   30 ar   
    54   29   54 1    
    55   30   31 ar   
    56   30   55 1    
    57   31   32 ar   
    58   31   33 1    
    59   32   56 1    
    60   33   57 1    
    61   33   58 1    
    62   33   59 1    
@<TRIPOS>SUBSTRUCTURE
     1 UNK         1 GROUP             0       ****    0 ROOT    
