@<TRIPOS>MOLECULE
ZINC64426946_2177
54   58    1
SMALL
USER_CHARGES


@<TRIPOS>ATOM
      1 C1          4.5613   53.1367   19.9674 C.3       1 UNK         0.0000 
      2 O2          5.5042   53.2366   21.0312 O.3       1 UNK         0.0000 
      3 C3          5.0951   53.6655   22.2759 C.ar      1 UNK         0.0000 
      4 C4          3.7808   54.0613   22.5696 C.ar      1 UNK         0.0000 
      5 C5          3.4450   54.4967   23.8489 C.ar      1 UNK         0.0000 
      6 C6          4.4266   54.5564   24.8337 C.ar      1 UNK         0.0000 
      7 C7          5.7111   54.1113   24.5810 C.ar      1 UNK         0.0000 
      8 C8          6.0588   53.6967   23.2940 C.ar      1 UNK         0.0000 
      9 S9          6.7044   54.1645   26.0372 S.3       1 UNK         0.0000 
     10 C10         5.3388   54.8128   27.0517 C.3       1 UNK         0.0000 
     11 H11         5.7613   55.6967   27.5066 H         1 UNK         0.0000 
     12 N12         4.3049   55.1475   26.0818 N.pl3     1 UNK         0.0000 
     13 N13         4.8776   53.9606   28.1556 N.3       1 UNK         0.0000 
     14 C14         3.7430   54.3850   28.9996 C.3       1 UNK         0.0000 
     15 C15         2.8203   53.5071   28.1580 C.3       1 UNK         0.0000 
     16 C16         4.1058   52.7711   27.8166 C.3       1 UNK         0.0000 
     17 C17         1.8025   52.6153   28.8770 C.2       1 UNK         0.0000 
     18 O18         2.0393   52.1009   29.9703 O.2       1 UNK         0.0000 
     19 N19         0.6805   52.4131   28.1704 N.am      1 UNK         0.0000 
     20 C20        -0.4281   51.5259   28.5016 C.3       1 UNK         0.0000 
     21 C21        -1.2754   51.2154   27.2484 C.3       1 UNK         0.0000 
     22 C22        -0.5147   50.5603   26.1008 C.2       1 UNK         0.0000 
     23 C23        -0.0017   51.0665   24.9609 C.2       1 UNK         0.0000 
     24 C24         0.0339   52.4416   24.4341 C.2       1 UNK         0.0000 
     25 C25         0.6577   52.7135   23.2710 C.2       1 UNK         0.0000 
     26 C26         1.2892   51.6164   22.5508 C.2       1 UNK         0.0000 
     27 C27         1.2642   50.3431   23.0194 C.2       1 UNK         0.0000 
     28 C28         0.6157   50.0479   24.2239 C.2       1 UNK         0.0000 
     29 N29         0.4918   48.8967   24.8320 N.pl3     1 UNK         0.0000 
     30 C30        -0.2530   49.0689   26.0808 C.3       1 UNK         0.0000 
     31 H31         5.0702   52.7837   19.0701 H         1 UNK         0.0000 
     32 H32         4.1137   54.1037   19.7320 H         1 UNK         0.0000 
     33 H33         3.7710   52.4217   20.1988 H         1 UNK         0.0000 
     34 H34         3.0170   54.0685   21.8067 H         1 UNK         0.0000 
     35 H35         2.4473   54.8600   24.0457 H         1 UNK         0.0000 
     36 H36         7.0671   53.3771   23.0807 H         1 UNK         0.0000 
     37 H37         3.5231   55.6965   26.4024 H         1 UNK         0.0000 
     38 H38         3.8334   54.0676   30.0409 H         1 UNK         0.0000 
     39 H39         3.5426   55.4572   28.9772 H         1 UNK         0.0000 
     40 H40         2.3622   54.0345   27.3220 H         1 UNK         0.0000 
     41 H41         4.2149   52.4967   26.7725 H         1 UNK         0.0000 
     42 H42         4.3290   51.9259   28.4742 H         1 UNK         0.0000 
     43 H43         0.5963   52.8920   27.2881 H         1 UNK         0.0000 
     44 H44        -0.0343   50.5939   28.9060 H         1 UNK         0.0000 
     45 H45        -1.0438   51.9745   29.2830 H         1 UNK         0.0000 
     46 H46        -2.0956   50.5511   27.5270 H         1 UNK         0.0000 
     47 H47        -1.7454   52.1318   26.8907 H         1 UNK         0.0000 
     48 H48        -0.4310   53.2707   24.9502 H         1 UNK         0.0000 
     49 H49         0.7040   53.7189   22.8815 H         1 UNK         0.0000 
     50 H50         1.7956   51.8230   21.6176 H         1 UNK         0.0000 
     51 H51         1.7553   49.5666   22.4484 H         1 UNK         0.0000 
     52 H52         0.3864   48.7093   26.8818 H         1 UNK         0.0000 
     53 H53        -1.1552   48.4562   26.0466 H         1 UNK         0.0000 
     54 H54         0.8965   48.0161   24.5230 H         1 UNK         0.0000 
@<TRIPOS>BOND
     1    1    2 1    
     2    1   31 1    
     3    1   32 1    
     4    1   33 1    
     5    2    3 1    
     6    3    8 ar   
     7    3    4 ar   
     8    4    5 ar   
     9    4   34 1    
    10    5    6 ar   
    11    5   35 1    
    12    6   12 1    
    13    6    7 ar   
    14    7    8 ar   
    15    7    9 1    
    16    8   36 1    
    17    9   10 1    
    18   10   11 1    
    19   10   12 1    
    20   10   13 1    
    21   12   37 1    
    22   13   16 1    
    23   13   14 1    
    24   14   15 1    
    25   14   38 1    
    26   14   39 1    
    27   15   16 1    
    28   15   17 1    
    29   15   40 1    
    30   16   41 1    
    31   16   42 1    
    32   17   18 2    
    33   17   19 am   BACKBONE|DICT|INTERRES
    34   19   20 1    
    35   19   43 1    
    36   20   21 1    
    37   20   44 1    
    38   20   45 1    
    39   21   22 1    
    40   21   46 1    
    41   21   47 1    
    42   22   30 1    
    43   22   23 2    
    44   23   28 1    
    45   23   24 1    
    46   24   25 2    
    47   24   48 1    
    48   25   26 1    
    49   25   49 1    
    50   26   27 2    
    51   26   50 1    
    52   27   28 1    
    53   27   51 1    
    54   28   29 2    
    55   29   30 1    
    56   29   54 1    
    57   30   52 1    
    58   30   53 1    
@<TRIPOS>SUBSTRUCTURE
     1 UNK         1 GROUP             0       ****    0 ROOT    
