@<TRIPOS>MOLECULE
ZINC63819103_1263
67   71    1
SMALL
USER_CHARGES


@<TRIPOS>ATOM
      1 C1          6.6838   54.0966   28.4519 C.3       1 UNK         0.0000 
      2 N2          5.3762   54.3269   27.8406 N.pl3     1 UNK         0.0000 
      3 C3          4.2115   54.2325   28.7213 C.3       1 UNK         0.0000 
      4 C4          5.2122   54.3027   26.4297 C.ar      1 UNK         0.0000 
      5 C5          3.9548   54.5144   25.8500 C.ar      1 UNK         0.0000 
      6 C6          3.8018   54.5584   24.4690 C.ar      1 UNK         0.0000 
      7 C7          4.8877   54.3483   23.6181 C.ar      1 UNK         0.0000 
      8 C8          6.1409   54.0967   24.1888 C.ar      1 UNK         0.0000 
      9 C9          6.3006   54.0967   25.5707 C.ar      1 UNK         0.0000 
     10 C10         4.7141   54.5098   22.0934 C.3       1 UNK         0.0000 
     11 H11         3.9222   55.2493   21.9659 H         1 UNK         0.0000 
     12 C12         5.9895   55.1742   21.4470 C.3       1 UNK         0.0000 
     13 N13         5.9045   55.5259   20.0251 N.am      1 UNK         0.0000 
     14 C14         6.3044   56.6693   19.4423 C.2       1 UNK         0.0000 
     15 O15         6.7044   57.6361   20.0822 O.2       1 UNK         0.0000 
     16 C16         6.2552   56.7775   17.9035 C.3       1 UNK         0.0000 
     17 N17         6.4056   55.4679   17.2255 N.am      1 UNK         0.0000 
     18 C18         7.5952   54.8448   17.0721 C.2       1 UNK         0.0000 
     19 O19         8.7005   55.2165   17.4712 O.2       1 UNK         0.0000 
     20 C20         7.3134   53.6071   16.2251 C.3       1 UNK         0.0000 
     21 C21         7.8835   52.3187   16.8812 C.3       1 UNK         0.0000 
     22 C22         8.6464   51.5777   15.7798 C.3       1 UNK         0.0000 
     23 C23         9.1968   52.6983   14.9044 C.3       1 UNK         0.0000 
     24 C24         8.0583   53.7229   14.8642 C.3       1 UNK         0.0000 
     25 N25         5.8796   53.6934   16.1604 N.am      1 UNK         0.0000 
     26 C26         5.3465   54.7619   16.7597 C.2       1 UNK         0.0000 
     27 O27         4.1673   54.9025   17.0744 O.2       1 UNK         0.0000 
     28 C28         4.1387   53.2676   21.3742 C.2       1 UNK         0.0000 
     29 C29         3.1914   52.3388   21.6852 C.2       1 UNK         0.0000 
     30 C30         2.3044   52.1456   22.8528 C.2       1 UNK         0.0000 
     31 C31         1.4966   51.0720   22.9605 C.2       1 UNK         0.0000 
     32 C32         1.5108   50.0964   21.8850 C.2       1 UNK         0.0000 
     33 C33         2.2850   50.2607   20.7838 C.2       1 UNK         0.0000 
     34 C34         3.1106   51.3840   20.6614 C.2       1 UNK         0.0000 
     35 N35         3.9044   51.6967   19.6817 N.pl3     1 UNK         0.0000 
     36 C36         4.5866   52.9395   19.9646 C.3       1 UNK         0.0000 
     37 H37         7.4875   54.5961   27.9133 H         1 UNK         0.0000 
     38 H38         6.7029   54.4967   29.4646 H         1 UNK         0.0000 
     39 H39         6.9124   53.0312   28.4815 H         1 UNK         0.0000 
     40 H40         3.6618   53.3115   28.5218 H         1 UNK         0.0000 
     41 H41         4.4934   54.2278   29.7746 H         1 UNK         0.0000 
     42 H42         3.5300   55.0687   28.5627 H         1 UNK         0.0000 
     43 H43         3.0846   54.6985   26.4584 H         1 UNK         0.0000 
     44 H44         2.8358   54.8209   24.0631 H         1 UNK         0.0000 
     45 H45         7.0163   53.9222   23.5826 H         1 UNK         0.0000 
     46 H46         7.2870   53.9057   25.9542 H         1 UNK         0.0000 
     47 H47         6.8360   54.4967   21.5159 H         1 UNK         0.0000 
     48 H48         6.3044   56.0409   22.0353 H         1 UNK         0.0000 
     49 H49         5.5805   54.8011   19.4056 H         1 UNK         0.0000 
     50 H50         7.1009   57.3972   17.6007 H         1 UNK         0.0000 
     51 H51         5.3531   57.3064   17.5920 H         1 UNK         0.0000 
     52 H52         7.1050   51.6967   17.3244 H         1 UNK         0.0000 
     53 H53         8.5926   52.5408   17.6815 H         1 UNK         0.0000 
     54 H54         7.9674   50.9505   15.1997 H         1 UNK         0.0000 
     55 H55         9.4321   50.9336   16.1779 H         1 UNK         0.0000 
     56 H56         9.4840   52.3483   13.9115 H         1 UNK         0.0000 
     57 H57        10.0821   53.1377   15.3686 H         1 UNK         0.0000 
     58 H58         8.4122   54.7249   14.6100 H         1 UNK         0.0000 
     59 H59         7.3840   53.4311   14.0570 H         1 UNK         0.0000 
     60 H60         5.3607   53.1272   15.5053 H         1 UNK         0.0000 
     61 H61         2.2443   52.8391   23.6672 H         1 UNK         0.0000 
     62 H62         0.8513   50.9406   23.8180 H         1 UNK         0.0000 
     63 H63         0.8871   49.2176   21.9660 H         1 UNK         0.0000 
     64 H64         2.2598   49.5068   20.0089 H         1 UNK         0.0000 
     65 H65         4.2315   53.6565   19.2259 H         1 UNK         0.0000 
     66 H66         5.6546   52.7523   19.8493 H         1 UNK         0.0000 
     67 H67         4.1112   51.1216   18.8536 H         1 UNK         0.0000 
@<TRIPOS>BOND
     1    1    2 1    
     2    1   37 1    
     3    1   38 1    
     4    1   39 1    
     5    2    3 1    
     6    2    4 1    
     7    3   40 1    
     8    3   41 1    
     9    3   42 1    
    10    4    9 ar   
    11    4    5 ar   
    12    5    6 ar   
    13    5   43 1    
    14    6    7 ar   
    15    6   44 1    
    16    7    8 ar   
    17    7   10 1    
    18    8    9 ar   
    19    8   45 1    
    20    9   46 1    
    21   10   11 1    
    22   10   12 1    
    23   10   28 1    
    24   12   13 1    
    25   12   47 1    
    26   12   48 1    
    27   13   14 am   BACKBONE|DICT|INTERRES
    28   13   49 1    
    29   14   15 2    
    30   14   16 1    
    31   16   17 1    
    32   16   50 1    
    33   16   51 1    
    34   17   26 am   BACKBONE|DICT|INTERRES
    35   17   18 am   BACKBONE|DICT|INTERRES
    36   18   19 2    
    37   18   20 1    
    38   20   24 1    
    39   20   21 1    
    40   20   25 1    
    41   21   22 1    
    42   21   52 1    
    43   21   53 1    
    44   22   23 1    
    45   22   54 1    
    46   22   55 1    
    47   23   24 1    
    48   23   56 1    
    49   23   57 1    
    50   24   58 1    
    51   24   59 1    
    52   25   26 am   BACKBONE|DICT|INTERRES
    53   25   60 1    
    54   26   27 2    
    55   28   36 1    
    56   28   29 2    
    57   29   34 1    
    58   29   30 1    
    59   30   31 2    
    60   30   61 1    
    61   31   32 1    
    62   31   62 1    
    63   32   33 2    
    64   32   63 1    
    65   33   34 1    
    66   33   64 1    
    67   34   35 2    
    68   35   36 1    
    69   35   67 1    
    70   36   65 1    
    71   36   66 1    
@<TRIPOS>SUBSTRUCTURE
     1 UNK         1 GROUP             0       ****    0 ROOT    
