ZINC09472353_466
                    3D
 Schrodinger Suite 2024-2.
 58 61  0  0  1  0            999 V2000
   -6.8438   46.6768   28.7388 C   0  0  0  0  0  0
   -5.6503   46.6218   27.7854 C   0  0  0  0  0  0
   -4.8261   47.7328   27.4301 C   0  0  0  0  0  0
   -3.8330   47.3968   26.4901 C   0  0  0  0  0  0
   -3.8878   45.7179   26.0823 S   0  0  0  0  0  0
   -5.2373   45.4441   27.1385 C   0  0  0  0  0  0
   -5.7814   44.0814   27.2759 C   0  0  0  0  0  0
   -6.6642   43.7881   28.0811 O   0  0  0  0  0  0
   -5.2101   43.2007   26.4154 O   0  0  0  0  0  0
   -5.6031   41.8364   26.4123 C   0  0  0  0  0  0
   -2.8965   48.2745   25.9464 N   0  0  0  0  0  0
   -1.9050   48.0613   25.0524 C   0  0  0  0  0  0
   -1.6647   46.9810   24.5052 O   0  0  0  0  0  0
   -1.0546   49.2812   24.7564 C   0  0  0  0  0  0
   -1.5585   50.5838   24.9238 C   0  0  0  0  0  0
   -0.7579   51.6932   24.6698 C   0  0  0  0  0  0
    0.5587   51.5188   24.2403 C   0  0  0  0  0  0
    1.0676   50.2317   24.0479 C   0  0  0  0  0  0
    0.2663   49.1220   24.3073 C   0  0  0  0  0  0
    1.5958   52.9641   23.9782 S   0  0  0  0  0  0
    2.6296   52.5643   23.0152 O   0  0  0  0  0  0
    0.7055   54.0950   23.6981 O   0  0  0  0  0  0
    2.3534   53.2999   25.5778 N   0  0  0  0  0  0
    1.4956   53.1067   26.7637 C   0  0  0  0  0  0
    1.9967   53.8331   28.0162 C   0  0  0  0  0  0
    3.4442   53.4243   28.2837 C   0  0  0  0  0  0
    4.2757   53.7754   27.0634 C   0  0  0  0  0  0
    3.7067   53.7240   25.7633 C   0  0  0  0  0  0
    4.4839   54.1652   24.6797 C   0  0  0  0  0  0
    5.8083   54.5622   24.8518 C   0  0  0  0  0  0
    6.3728   54.5585   26.1210 C   0  0  0  0  0  0
    5.6060   54.1876   27.2187 C   0  0  0  0  0  0
   -5.0224   49.0781   27.9478 C   0  0  0  0  0  0
   -6.1229   49.6210   27.9871 O   0  0  0  0  0  0
   -3.9151   49.6969   28.3538 N   0  0  0  0  0  0
   -7.7047   46.1602   28.3099 H   0  0  0  0  0  0
   -6.6315   46.1623   29.6775 H   0  0  0  0  0  0
   -7.2097   47.6740   28.9840 H   0  0  0  0  0  0
   -5.0567   41.2968   25.6396 H   0  0  0  0  0  0
   -5.3930   41.3651   27.3746 H   0  0  0  0  0  0
   -6.6706   41.7349   26.2038 H   0  0  0  0  0  0
   -2.8991   49.1876   26.3755 H   0  0  0  0  0  0
   -2.5717   50.7555   25.2586 H   0  0  0  0  0  0
   -1.1553   52.6878   24.8185 H   0  0  0  0  0  0
    2.0864   50.0853   23.7109 H   0  0  0  0  0  0
    0.6966   48.1365   24.1733 H   0  0  0  0  0  0
    0.4458   53.2960   26.5572 H   0  0  0  0  0  0
    1.5820   52.0365   26.9605 H   0  0  0  0  0  0
    1.9229   54.9118   27.8748 H   0  0  0  0  0  0
    1.3578   53.5927   28.8652 H   0  0  0  0  0  0
    3.8219   53.9214   29.1800 H   0  0  0  0  0  0
    3.5062   52.3506   28.4695 H   0  0  0  0  0  0
    4.0884   54.2280   23.6805 H   0  0  0  0  0  0
    6.3977   54.8788   24.0030 H   0  0  0  0  0  0
    7.3983   54.8568   26.2633 H   0  0  0  0  0  0
    6.0500   54.2186   28.2018 H   0  0  0  0  0  0
   -3.0521   49.1593   28.4822 H   0  0  0  0  0  0
   -3.9751   50.6294   28.7281 H   0  0  0  0  0  0
  1  2  1  0  0  0
  1 36  1  0  0  0
  1 37  1  0  0  0
  1 38  1  0  0  0
  2  6  2  0  0  0
  2  3  1  0  0  0
  3  4  2  0  0  0
  3 33  1  0  0  0
  4  5  1  0  0  0
  4 11  1  0  0  0
  5  6  1  0  0  0
  6  7  1  0  0  0
  7  8  2  0  0  0
  7  9  1  0  0  0
  9 10  1  0  0  0
 10 39  1  0  0  0
 10 40  1  0  0  0
 10 41  1  0  0  0
 11 12  1  0  0  0
 11 42  1  0  0  0
 12 13  2  0  0  0
 12 14  1  0  0  0
 14 19  2  0  0  0
 14 15  1  0  0  0
 15 16  2  0  0  0
 15 43  1  0  0  0
 16 17  1  0  0  0
 16 44  1  0  0  0
 17 18  2  0  0  0
 17 20  1  0  0  0
 18 19  1  0  0  0
 18 45  1  0  0  0
 19 46  1  0  0  0
 20 21  2  0  0  0
 20 22  2  0  0  0
 20 23  1  0  0  0
 23 28  1  0  0  0
 23 24  1  0  0  0
 24 25  1  0  0  0
 24 47  1  0  0  0
 24 48  1  0  0  0
 25 26  1  0  0  0
 25 49  1  0  0  0
 25 50  1  0  0  0
 26 27  1  0  0  0
 26 51  1  0  0  0
 26 52  1  0  0  0
 27 32  2  0  0  0
 27 28  1  0  0  0
 28 29  2  0  0  0
 29 30  1  0  0  0
 29 53  1  0  0  0
 30 31  2  0  0  0
 30 54  1  0  0  0
 31 32  1  0  0  0
 31 55  1  0  0  0
 32 56  1  0  0  0
 33 34  2  0  0  0
 33 35  1  0  0  0
 35 57  1  0  0  0
 35 58  1  0  0  0
M  END
> <i_i_glide_confnum>
433

> <i_i_glide_lignum>
467

> <i_i_glide_posenum>
192

> <i_i_glide_rotatable_bonds>
8

> <i_m_Source_File_Index>
3324

> <b_m_subgroup_collapsed>
0

> <r_i_docking_score>
-4.91022

> <r_i_glide_ecoul>
-5.16314

> <r_i_glide_eff_state_penalty>
0

> <r_i_glide_einternal>
9.76085

> <r_i_glide_emodel>
-54.5999

> <r_i_glide_energy>
-46.3116

> <r_i_glide_erotb>
0.466472

> <r_i_glide_esite>
-0.34482

> <r_i_glide_evdw>
-41.1484

> <r_i_glide_gscore>
-4.91022

> <r_i_glide_hbond>
-0.175252

> <r_i_glide_ligand_efficiency>
-0.140292

> <r_i_glide_ligand_efficiency_ln>
-1.0779

> <r_i_glide_ligand_efficiency_sa>
-0.458905

> <r_i_glide_lipo>
-2.45391

> <r_i_glide_metal>
0

> <r_i_glide_rewards>
0.429179

> <s_i_glide_gridfile>
wee1_glide-grid

> <s_m_Source_File>
wee1_decoys_glide_SP.sdf

> <s_m_Source_Path>
/Users/zhangxujun/Desktop

> <s_m_entry_id>
3599

> <s_m_entry_name>
wee1_decoys_glide_SP.3324

> <s_m_subgroup_title>
wee1_decoys_glide_SP

> <s_m_subgroupid>
wee1_decoys_glide_SP


$$$$
