ZINC67337745_2586
                    3D
 Schrodinger Suite 2024-2.
 45 47  0  0  1  0            999 V2000
    4.4397   58.4297   16.4838 C   0  0  0  0  0  0
    4.9375   57.1479   16.7157 C   0  0  0  0  0  0
    4.0990   56.0369   16.5922 C   0  0  0  0  0  0
    2.7629   56.2205   16.2166 C   0  0  0  0  0  0
    2.2517   57.5035   15.9906 C   0  0  0  0  0  0
    3.1031   58.6067   16.1264 C   0  0  0  0  0  0
    0.7831   57.6699   15.6063 C   0  0  0  0  0  0
    0.0136   57.2972   16.6301 F   0  0  0  0  0  0
    0.4770   58.9276   15.2813 F   0  0  0  0  0  0
    0.4970   56.8946   14.5599 F   0  0  0  0  0  0
    4.6307   54.6333   16.8433 C   0  0  0  0  0  0
    4.0386   54.0552   18.0467 N   0  0  0  0  0  0
    4.7081   53.6960   19.1494 C   0  0  0  0  0  0
    5.9007   53.3795   19.1643 O   0  0  0  0  0  0
    3.9047   53.7872   20.2298 N   0  0  0  0  0  0
    4.3625   53.4859   21.5189 N   0  0  0  0  0  0
    5.2275   54.2917   22.1731 C   0  0  0  0  0  0
    5.7501   55.2965   21.6817 O   0  0  0  0  0  0
    5.5326   53.8562   23.6172 C   0  0  1  0  0  0
    5.1196   52.8977   23.8904 H   0  0  0  0  0  0
    6.8653   54.2692   24.1905 C   0  0  0  0  0  0
    5.5972   54.8982   24.7204 C   0  0  2  0  0  0
    5.5050   55.9544   24.4806 H   0  0  0  0  0  0
    5.0615   54.6088   26.1058 C   0  0  0  0  0  0
    5.9147   54.6976   27.2065 C   0  0  0  0  0  0
    5.4107   54.4951   28.4860 C   0  0  0  0  0  0
    4.0612   54.1958   28.6657 C   0  0  0  0  0  0
    3.2105   54.0890   27.5667 C   0  0  0  0  0  0
    3.7105   54.2993   26.2833 C   0  0  0  0  0  0
    3.5750   54.0169   29.9154 F   0  0  0  0  0  0
    5.0811   59.2955   16.5904 H   0  0  0  0  0  0
    5.9721   57.0255   16.9995 H   0  0  0  0  0  0
    2.1149   55.3622   16.1148 H   0  0  0  0  0  0
    2.7420   59.6145   15.9754 H   0  0  0  0  0  0
    5.7224   54.6440   16.8837 H   0  0  0  0  0  0
    4.3709   53.9922   15.9989 H   0  0  0  0  0  0
    3.0329   53.9716   18.0515 H   0  0  0  0  0  0
    3.0063   54.2515   20.2248 H   0  0  0  0  0  0
    3.9993   52.6157   21.8779 H   0  0  0  0  0  0
    7.5044   54.9008   23.5821 H   0  0  0  0  0  0
    7.4224   53.5558   24.7967 H   0  0  0  0  0  0
    6.9569   54.9427   27.0794 H   0  0  0  0  0  0
    6.0672   54.5782   29.3366 H   0  0  0  0  0  0
    2.1656   53.8590   27.7132 H   0  0  0  0  0  0
    3.0487   54.2358   25.4313 H   0  0  0  0  0  0
  1  6  2  0  0  0
  1  2  1  0  0  0
  1 31  1  0  0  0
  2  3  2  0  0  0
  2 32  1  0  0  0
  3  4  1  0  0  0
  3 11  1  0  0  0
  4  5  2  0  0  0
  4 33  1  0  0  0
  5  6  1  0  0  0
  5  7  1  0  0  0
  6 34  1  0  0  0
  7  8  1  0  0  0
  7  9  1  0  0  0
  7 10  1  0  0  0
 11 12  1  0  0  0
 11 35  1  0  0  0
 11 36  1  0  0  0
 12 13  1  0  0  0
 12 37  1  0  0  0
 13 14  2  0  0  0
 13 15  1  0  0  0
 15 16  1  0  0  0
 15 38  1  0  0  0
 16 17  1  0  0  0
 16 39  1  0  0  0
 17 18  2  0  0  0
 17 19  1  0  0  0
 19 20  1  0  0  0
 19 22  1  0  0  0
 19 21  1  0  0  0
 21 22  1  0  0  0
 21 40  1  0  0  0
 21 41  1  0  0  0
 22 23  1  0  0  0
 22 24  1  0  0  0
 24 29  2  0  0  0
 24 25  1  0  0  0
 25 26  2  0  0  0
 25 42  1  0  0  0
 26 27  1  0  0  0
 26 43  1  0  0  0
 27 28  2  0  0  0
 27 30  1  0  0  0
 28 29  1  0  0  0
 28 44  1  0  0  0
 29 45  1  0  0  0
M  END
> <i_i_glide_confnum>
144

> <i_i_glide_lignum>
2587

> <i_i_glide_posenum>
361

> <i_i_glide_rotatable_bonds>
9

> <i_m_Source_File_Index>
697

> <b_m_subgroup_collapsed>
0

> <r_i_docking_score>
-5.30368

> <r_i_glide_ecoul>
-5.99884

> <r_i_glide_eff_state_penalty>
0

> <r_i_glide_einternal>
6.66252

> <r_i_glide_emodel>
-49.1401

> <r_i_glide_energy>
-37.6828

> <r_i_glide_erotb>
1.00083

> <r_i_glide_esite>
-0.127074

> <r_i_glide_evdw>
-31.6839

> <r_i_glide_gscore>
-5.30368

> <r_i_glide_hbond>
-0.32

> <r_i_glide_ligand_efficiency>
-0.189417

> <r_i_glide_ligand_efficiency_ln>
-1.22425

> <r_i_glide_ligand_efficiency_sa>
-0.575182

> <r_i_glide_lipo>
-2.37579

> <r_i_glide_metal>
0

> <r_i_glide_rewards>
-0.997633

> <s_i_glide_gridfile>
wee1_glide-grid

> <s_m_Source_File>
wee1_decoys_glide_SP.sdf

> <s_m_Source_Path>
/Users/zhangxujun/Desktop

> <s_m_entry_id>
972

> <s_m_entry_name>
wee1_decoys_glide_SP.697

> <s_m_subgroup_title>
wee1_decoys_glide_SP

> <s_m_subgroupid>
wee1_decoys_glide_SP


$$$$
