@<TRIPOS>MOLECULE
ZINC62716108_4708
41   44    1
SMALL
USER_CHARGES


@<TRIPOS>ATOM
      1 C1          6.4865   54.2249   26.0540 C.ar      1 UNK         0.0000 
      2 C2          6.2211   54.0969   27.4253 C.ar      1 UNK         0.0000 
      3 C3          4.9023   54.2341   27.8372 C.ar      1 UNK         0.0000 
      4 C4          3.8988   54.4960   26.9504 C.ar      1 UNK         0.0000 
      5 C5          4.1408   54.6477   25.5880 C.ar      1 UNK         0.0000 
      6 C6          5.4620   54.4954   25.1208 C.ar      1 UNK         0.0000 
      7 C7          5.8414   54.6159   23.6902 C.2       1 UNK         0.0000 
      8 C8          5.1476   54.2929   22.5640 C.2       1 UNK         0.0000 
      9 C9          3.7672   53.6277   22.5966 C.3       1 UNK         0.0000 
     10 C10         3.6985   52.5363   21.5161 C.3       1 UNK         0.0000 
     11 C11         3.9611   53.1059   20.1139 C.3       1 UNK         0.0000 
     12 C12         5.1995   54.0059   20.0946 C.2       1 UNK         0.0000 
     13 C13         5.7347   54.5319   21.2295 C.2       1 UNK         0.0000 
     14 O14         6.8553   55.2972   21.1163 O.3       1 UNK         0.0000 
     15 C15         5.7716   54.2538   18.8623 C.2       1 UNK         0.0000 
     16 N16         6.0269   55.4595   18.3570 N.pl3     1 UNK         0.0000 
     17 C17         6.8248   55.3224   17.1456 C.3       1 UNK         0.0000 
     18 C18         6.4924   53.8893   16.7242 C.3       1 UNK         0.0000 
     19 N19         6.0900   53.2967   17.9946 N.pl3     1 UNK         0.0000 
     20 O20         2.7274   54.6332   27.6248 O.3       1 UNK         0.0000 
     21 C21         2.9991   54.2389   28.9427 C.3       1 UNK         0.0000 
     22 O22         4.3928   54.1974   29.0975 O.3       1 UNK         0.0000 
     23 H23         7.5037   54.1090   25.7128 H         1 UNK         0.0000 
     24 H24         7.0179   53.9042   28.1302 H         1 UNK         0.0000 
     25 H25         3.3304   54.8990   24.9219 H         1 UNK         0.0000 
     26 H26         6.8216   55.0560   23.5600 H         1 UNK         0.0000 
     27 H27         3.5755   53.1333   23.5468 H         1 UNK         0.0000 
     28 H28         2.9751   54.3645   22.4506 H         1 UNK         0.0000 
     29 H29         4.4322   51.7560   21.7290 H         1 UNK         0.0000 
     30 H30         2.7231   52.0474   21.5368 H         1 UNK         0.0000 
     31 H31         3.1043   53.6840   19.7675 H         1 UNK         0.0000 
     32 H32         4.0623   52.2793   19.4089 H         1 UNK         0.0000 
     33 H33         7.2203   55.1953   20.2348 H         1 UNK         0.0000 
     34 H34         6.5296   56.0612   16.3995 H         1 UNK         0.0000 
     35 H35         7.8772   55.4522   17.4009 H         1 UNK         0.0000 
     36 H36         7.3408   53.3474   16.2999 H         1 UNK         0.0000 
     37 H37         5.6422   53.8409   16.0378 H         1 UNK         0.0000 
     38 H38         5.9042   52.3018   18.1133 H         1 UNK         0.0000 
     39 H39         2.5506   54.9436   29.6445 H         1 UNK         0.0000 
     40 H40         2.5895   53.2390   29.1069 H         1 UNK         0.0000 
     41 H41         5.7846   56.3424   18.7852 H         1 UNK         0.0000 
@<TRIPOS>BOND
     1    1    6 ar   
     2    1    2 ar   
     3    1   23 1    
     4    2    3 ar   
     5    2   24 1    
     6    3   22 1    
     7    3    4 ar   
     8    4    5 ar   
     9    4   20 1    
    10    5    6 ar   
    11    5   25 1    
    12    6    7 1    
    13    7    8 2    
    14    7   26 1    
    15    8   13 1    
    16    8    9 1    
    17    9   10 1    
    18    9   27 1    
    19    9   28 1    
    20   10   11 1    
    21   10   29 1    
    22   10   30 1    
    23   11   12 1    
    24   11   31 1    
    25   11   32 1    
    26   12   13 2    
    27   12   15 1    
    28   13   14 1    
    29   14   33 1    
    30   15   19 1    
    31   15   16 2    
    32   16   17 1    
    33   16   41 1    
    34   17   18 1    
    35   17   34 1    
    36   17   35 1    
    37   18   19 1    
    38   18   36 1    
    39   18   37 1    
    40   19   38 1    
    41   20   21 1    
    42   21   22 1    
    43   21   39 1    
    44   21   40 1    
@<TRIPOS>SUBSTRUCTURE
     1 UNK         1 GROUP             0       ****    0 ROOT    
