ZINC14075162_5839
                    3D
 Schrodinger Suite 2024-2.
 47 50  0  0  1  0            999 V2000
    4.3266   53.7233   17.7854 C   0  0  0  0  0  0
    5.1714   54.7042   18.5805 C   0  0  0  0  0  0
    5.7422   55.8688   18.0666 C   0  0  0  0  0  0
    6.6742   56.7544   19.2622 S   0  0  0  0  0  0
    6.2768   55.5834   20.4862 C   0  0  0  0  0  0
    5.4594   54.5320   19.9769 C   0  0  0  0  0  0
    5.1044   53.5444   20.9297 C   0  0  0  0  0  0
    5.4879   53.6420   22.2268 N   0  0  0  0  0  0
    6.2589   54.7051   22.5661 C   0  0  0  0  0  0
    6.7017   55.6917   21.7462 N   0  0  0  0  0  0
    6.7048   54.7936   24.0123 C   0  0  0  0  0  0
    5.6335   54.5407   24.9156 O   0  0  0  0  0  0
    5.8558   54.5675   26.2458 C   0  0  0  0  0  0
    6.9197   54.8965   26.7754 O   0  0  0  0  0  0
    4.6788   54.1221   26.9827 C   0  0  0  0  0  0
    3.4412   53.6963   26.5232 C   0  0  0  0  0  0
    2.5914   53.1877   27.5165 C   0  0  0  0  0  0
    3.1772   53.2553   28.7887 C   0  0  0  0  0  0
    4.7303   54.0370   28.7046 S   0  0  0  0  0  0
    2.6233   52.7114   30.0863 C   0  0  0  0  0  0
    1.2325   53.2490   30.4686 C   0  0  0  0  0  0
    0.0801   52.7082   29.6020 C   0  0  0  0  0  0
    0.0801   53.1607   28.1287 C   0  0  0  0  0  0
    1.2157   52.6069   27.2471 C   0  0  0  0  0  0
    4.3654   52.4088   20.5991 N   0  0  0  0  0  0
    5.6532   56.4029   16.6547 C   0  0  0  0  0  0
    4.1722   54.0417   16.7511 H   0  0  0  0  0  0
    4.7888   52.7351   17.7334 H   0  0  0  0  0  0
    3.3318   53.5963   18.2174 H   0  0  0  0  0  0
    7.1295   55.7790   24.2085 H   0  0  0  0  0  0
    7.5023   54.0634   24.1679 H   0  0  0  0  0  0
    3.1756   53.6950   25.4747 H   0  0  0  0  0  0
    3.3184   52.8967   30.9077 H   0  0  0  0  0  0
    2.5386   51.6286   30.0037 H   0  0  0  0  0  0
    1.2330   54.3395   30.4609 H   0  0  0  0  0  0
    1.0320   52.9644   31.5029 H   0  0  0  0  0  0
   -0.8598   53.0268   30.0564 H   0  0  0  0  0  0
    0.0657   51.6172   29.6480 H   0  0  0  0  0  0
    0.0728   54.2495   28.0829 H   0  0  0  0  0  0
   -0.8670   52.8450   27.6871 H   0  0  0  0  0  0
    1.2476   51.5203   27.3409 H   0  0  0  0  0  0
    0.9422   52.7902   26.2060 H   0  0  0  0  0  0
    4.2842   52.1471   19.6213 H   0  0  0  0  0  0
    4.1800   51.7259   21.3203 H   0  0  0  0  0  0
    6.1194   55.7218   15.9418 H   0  0  0  0  0  0
    4.6158   56.5333   16.3473 H   0  0  0  0  0  0
    6.1422   57.3734   16.5401 H   0  0  0  0  0  0
  1  2  1  0  0  0
  1 27  1  0  0  0
  1 28  1  0  0  0
  1 29  1  0  0  0
  2  6  1  0  0  0
  2  3  2  0  0  0
  3  4  1  0  0  0
  3 26  1  0  0  0
  4  5  1  0  0  0
  5 10  2  0  0  0
  5  6  1  0  0  0
  6  7  2  0  0  0
  7  8  1  0  0  0
  7 25  1  0  0  0
  8  9  2  0  0  0
  9 10  1  0  0  0
  9 11  1  0  0  0
 11 12  1  0  0  0
 11 30  1  0  0  0
 11 31  1  0  0  0
 12 13  1  0  0  0
 13 14  2  0  0  0
 13 15  1  0  0  0
 15 19  1  0  0  0
 15 16  2  0  0  0
 16 17  1  0  0  0
 16 32  1  0  0  0
 17 24  1  0  0  0
 17 18  2  0  0  0
 18 19  1  0  0  0
 18 20  1  0  0  0
 20 21  1  0  0  0
 20 33  1  0  0  0
 20 34  1  0  0  0
 21 22  1  0  0  0
 21 35  1  0  0  0
 21 36  1  0  0  0
 22 23  1  0  0  0
 22 37  1  0  0  0
 22 38  1  0  0  0
 23 24  1  0  0  0
 23 39  1  0  0  0
 23 40  1  0  0  0
 24 41  1  0  0  0
 24 42  1  0  0  0
 25 43  1  0  0  0
 25 44  1  0  0  0
 26 45  1  0  0  0
 26 46  1  0  0  0
 26 47  1  0  0  0
M  END
> <i_i_glide_confnum>
3

> <i_i_glide_lignum>
5840

> <i_i_glide_posenum>
367

> <i_i_glide_rotatable_bonds>
4

> <i_m_Source_File_Index>
4016

> <b_m_subgroup_collapsed>
0

> <r_i_docking_score>
-6.91334

> <r_i_glide_ecoul>
-2.54971

> <r_i_glide_eff_state_penalty>
0

> <r_i_glide_einternal>
2.66493

> <r_i_glide_emodel>
-70.5974

> <r_i_glide_energy>
-50.885

> <r_i_glide_erotb>
0.389044

> <r_i_glide_esite>
-0.0142442

> <r_i_glide_evdw>
-48.3353

> <r_i_glide_gscore>
-6.91334

> <r_i_glide_hbond>
-0.303923

> <r_i_glide_ligand_efficiency>
-0.265898

> <r_i_glide_ligand_efficiency_ln>
-1.62357

> <r_i_glide_ligand_efficiency_sa>
-0.78772

> <r_i_glide_lipo>
-2.06522

> <r_i_glide_metal>
0

> <r_i_glide_rewards>
-2.11977

> <s_i_glide_gridfile>
wee1_glide-grid

> <s_m_Source_File>
wee1_decoys_glide_SP.sdf

> <s_m_Source_Path>
/Users/zhangxujun/Desktop

> <s_m_entry_id>
4291

> <s_m_entry_name>
wee1_decoys_glide_SP.4016

> <s_m_subgroup_title>
wee1_decoys_glide_SP

> <s_m_subgroupid>
wee1_decoys_glide_SP


$$$$
