ZINC10325894_4201
                    3D
 Schrodinger Suite 2024-2.
 61 66  0  0  1  0            999 V2000
    4.4066   49.2272   10.0892 C   0  0  0  0  0  0
    4.6935   50.2223   11.1984 C   0  0  0  0  0  0
    5.0135   49.7673   12.4770 C   0  0  0  0  0  0
    5.2620   50.6820   13.4956 C   0  0  0  0  0  0
    5.1891   52.0593   13.2531 C   0  0  0  0  0  0
    4.8626   52.5055   11.9654 C   0  0  0  0  0  0
    4.6114   51.5915   10.9450 C   0  0  0  0  0  0
    5.5019   53.0397   14.3961 C   0  0  2  0  0  0
    6.4642   52.6690   14.7615 H   0  0  0  0  0  0
    4.5351   52.8873   15.5926 C   0  0  0  0  0  0
    4.9982   53.7894   16.7331 C   0  0  0  0  0  0
    5.7114   54.9452   16.5527 C   0  0  0  0  0  0
    6.2010   55.8156   17.7669 C   0  0  1  0  0  0
    5.6846   56.7726   17.6647 H   0  0  0  0  0  0
    5.8008   55.1418   19.0944 C   0  0  0  0  0  0
    5.1365   53.9876   19.1143 C   0  0  0  0  0  0
    4.8941   53.5598   20.3862 N   0  0  0  0  0  0
    5.1928   52.6608   20.7330 H   0  0  0  0  0  0
    5.5187   54.4996   21.1951 N   0  0  0  0  0  0
    6.0437   55.5236   20.4680 C   0  0  0  0  0  0
    6.5961   56.5465   20.8816 O   0  0  0  0  0  0
    5.4141   54.4228   22.5969 C   0  0  0  0  0  0
    6.5334   54.6733   23.4020 C   0  0  0  0  0  0
    6.4156   54.6364   24.7881 C   0  0  0  0  0  0
    5.1815   54.3595   25.3705 C   0  0  0  0  0  0
    4.0657   54.0964   24.5787 C   0  0  0  0  0  0
    4.1831   54.1102   23.1909 C   0  0  0  0  0  0
    4.7658   53.2961   17.9990 N   0  0  0  0  0  0
    7.6925   56.1854   17.7428 C   0  0  0  0  0  0
    8.6474   55.2055   17.4528 C   0  0  0  0  0  0
   10.0001   55.5296   17.4153 C   0  0  0  0  0  0
   10.4123   56.8336   17.6830 C   0  0  0  0  0  0
    9.4808   57.8334   18.0002 C   0  0  0  0  0  0
    8.1167   57.4949   18.0149 C   0  0  0  0  0  0
    9.9346   59.2091   18.3245 N   0  3  0  0  0  0
    9.0967   60.0933   18.4823 O   0  0  0  0  0  0
   11.1390   59.4206   18.4356 O   0  5  0  0  0  0
    6.0032   55.4397   15.1857 C   0  0  0  0  0  0
    6.3638   56.5975   14.9818 O   0  0  0  0  0  0
    5.6648   54.5257   13.9927 C   0  0  0  0  0  0
    3.6739   49.6282    9.3873 H   0  0  0  0  0  0
    3.9822   48.3054   10.4902 H   0  0  0  0  0  0
    5.3201   48.9878    9.5440 H   0  0  0  0  0  0
    5.0701   48.7091   12.6878 H   0  0  0  0  0  0
    5.5058   50.3114   14.4795 H   0  0  0  0  0  0
    4.7989   53.5579   11.7377 H   0  0  0  0  0  0
    4.3582   51.9502    9.9581 H   0  0  0  0  0  0
    3.5086   53.1564   15.3417 H   0  0  0  0  0  0
    4.5628   51.8387   15.8945 H   0  0  0  0  0  0
    7.4913   54.9082   22.9582 H   0  0  0  0  0  0
    7.2774   54.8298   25.4075 H   0  0  0  0  0  0
    5.0909   54.3365   26.4466 H   0  0  0  0  0  0
    3.1143   53.8745   25.0395 H   0  0  0  0  0  0
    3.3105   53.9179   22.5820 H   0  0  0  0  0  0
    4.4866   52.3256   18.0870 H   0  0  0  0  0  0
    8.3397   54.1892   17.2529 H   0  0  0  0  0  0
   10.7321   54.7675   17.1905 H   0  0  0  0  0  0
   11.4705   57.0538   17.6657 H   0  0  0  0  0  0
    7.3784   58.2501   18.2487 H   0  0  0  0  0  0
    6.4403   54.6610   13.2389 H   0  0  0  0  0  0
    4.7216   54.8842   13.5819 H   0  0  0  0  0  0
  1  2  1  0  0  0
  1 41  1  0  0  0
  1 42  1  0  0  0
  1 43  1  0  0  0
  2  7  2  0  0  0
  2  3  1  0  0  0
  3  4  2  0  0  0
  3 44  1  0  0  0
  4  5  1  0  0  0
  4 45  1  0  0  0
  5  6  2  0  0  0
  5  8  1  0  0  0
  6  7  1  0  0  0
  6 46  1  0  0  0
  7 47  1  0  0  0
  8  9  1  0  0  0
  8 40  1  0  0  0
  8 10  1  0  0  0
 10 11  1  0  0  0
 10 48  1  0  0  0
 10 49  1  0  0  0
 11 28  1  0  0  0
 11 12  2  0  0  0
 12 13  1  0  0  0
 12 38  1  0  0  0
 13 14  1  0  0  0
 13 15  1  0  0  0
 13 29  1  0  0  0
 15 20  1  0  0  0
 15 16  2  0  0  0
 16 17  1  0  0  0
 16 28  1  0  0  0
 17 18  1  0  0  0
 17 19  1  0  0  0
 19 20  1  0  0  0
 19 22  1  0  0  0
 20 21  2  0  0  0
 22 27  2  0  0  0
 22 23  1  0  0  0
 23 24  2  0  0  0
 23 50  1  0  0  0
 24 25  1  0  0  0
 24 51  1  0  0  0
 25 26  2  0  0  0
 25 52  1  0  0  0
 26 27  1  0  0  0
 26 53  1  0  0  0
 27 54  1  0  0  0
 28 55  1  0  0  0
 29 34  2  0  0  0
 29 30  1  0  0  0
 30 31  2  0  0  0
 30 56  1  0  0  0
 31 32  1  0  0  0
 31 57  1  0  0  0
 32 33  2  0  0  0
 32 58  1  0  0  0
 33 34  1  0  0  0
 33 35  1  0  0  0
 34 59  1  0  0  0
 35 36  2  0  0  0
 35 37  1  0  0  0
 38 39  2  0  0  0
 38 40  1  0  0  0
 40 60  1  0  0  0
 40 61  1  0  0  0
M  CHG  2  35   1  37  -1
M  END
> <i_i_glide_confnum>
49

> <i_i_glide_lignum>
4202

> <i_i_glide_posenum>
343

> <i_i_glide_rotatable_bonds>
4

> <i_m_Source_File_Index>
3090

> <b_m_subgroup_collapsed>
0

> <r_i_docking_score>
-5.04503

> <r_i_glide_ecoul>
-6.16551

> <r_i_glide_eff_state_penalty>
0

> <r_i_glide_einternal>
4.45345

> <r_i_glide_emodel>
-51.0353

> <r_i_glide_energy>
-40.4382

> <r_i_glide_erotb>
0.251856

> <r_i_glide_esite>
-0.22635

> <r_i_glide_evdw>
-34.2727

> <r_i_glide_gscore>
-5.04503

> <r_i_glide_hbond>
-0.291242

> <r_i_glide_ligand_efficiency>
-0.136352

> <r_i_glide_ligand_efficiency_ln>
-1.09415

> <r_i_glide_ligand_efficiency_sa>
-0.454356

> <r_i_glide_lipo>
-1.80699

> <r_i_glide_metal>
0

> <r_i_glide_rewards>
-0.333842

> <s_i_glide_gridfile>
wee1_glide-grid

> <s_m_Source_File>
wee1_decoys_glide_SP.sdf

> <s_m_Source_Path>
/Users/zhangxujun/Desktop

> <s_m_entry_id>
3365

> <s_m_entry_name>
wee1_decoys_glide_SP.3090

> <s_m_subgroup_title>
wee1_decoys_glide_SP

> <s_m_subgroupid>
wee1_decoys_glide_SP


$$$$
