@<TRIPOS>MOLECULE
ZINC04553445_3952
55   58    1
SMALL
USER_CHARGES


@<TRIPOS>ATOM
      1 C1          1.7394   56.2428   29.4611 C.3       1 UNK         0.0000 
      2 C2          2.5337   54.9211   29.4882 C.3       1 UNK         0.0000 
      3 C3          1.7637   53.6170   29.0983 C.3       1 UNK         0.0000 
      4 C4          2.6236   52.3992   29.5366 C.3       1 UNK         0.0000 
      5 C5          0.4522   53.5406   29.9291 C.3       1 UNK         0.0000 
      6 C6          1.4648   53.5828   27.5414 C.3       1 UNK         0.0000 
      7 H7          1.1063   54.5775   27.2817 H         1 UNK         0.0000 
      8 C8          2.7332   53.3170   26.6816 C.3       1 UNK         0.0000 
      9 C9          2.5293   53.5224   25.1651 C.3       1 UNK         0.0000 
     10 C10         1.2363   52.8467   24.7140 C.2       1 UNK         0.0000 
     11 C11         0.2507   52.4500   25.6325 C.2       1 UNK         0.0000 
     12 S12        -1.1400   51.7624   24.8500 S.3       1 UNK         0.0000 
     13 C13        -0.3789   51.9206   23.3074 C.2       1 UNK         0.0000 
     14 C14         0.9003   52.4710   23.3935 C.2       1 UNK         0.0000 
     15 C15         1.6201   52.5774   22.1341 C.2       1 UNK         0.0000 
     16 N16         1.2520   52.0961   21.0256 N.2       1 UNK         0.0000 
     17 C17        -0.0339   51.3745   20.9590 C.3       1 UNK         0.0000 
     18 H18        -0.5797   51.8376   20.1334 H         1 UNK         0.0000 
     19 N19        -0.9645   51.5315   22.1123 N.pl3     1 UNK         0.0000 
     20 C20         0.1343   49.9127   20.4416 C.ar      1 UNK         0.0000 
     21 C21        -0.7339   48.9128   20.9266 C.ar      1 UNK         0.0000 
     22 C22        -0.6560   47.5973   20.4818 C.ar      1 UNK         0.0000 
     23 C23         0.3172   47.2324   19.5603 C.ar      1 UNK         0.0000 
     24 C24         1.1996   48.1887   19.0593 C.ar      1 UNK         0.0000 
     25 C25         1.0891   49.5311   19.4634 C.ar      1 UNK         0.0000 
     26 O26         1.9141   50.4483   18.8559 O.3       1 UNK         0.0000 
     27 C27         2.2762   47.7391   18.0811 C.3       1 UNK         0.0000 
     28 O28         2.7728   53.2972   22.0218 O.3       1 UNK         0.0000 
     29 C29         0.3688   52.5445   27.1496 C.3       1 UNK         0.0000 
     30 H30         2.3894   57.0788   29.7124 H         1 UNK         0.0000 
     31 H31         0.9277   56.2493   30.1886 H         1 UNK         0.0000 
     32 H32         1.3142   56.4525   28.4816 H         1 UNK         0.0000 
     33 H33         3.4059   55.0469   28.8481 H         1 UNK         0.0000 
     34 H34         2.9540   54.8075   30.4815 H         1 UNK         0.0000 
     35 H35         2.1819   51.4544   29.2196 H         1 UNK         0.0000 
     36 H36         3.6347   52.4430   29.1327 H         1 UNK         0.0000 
     37 H37         2.7252   52.3528   30.6218 H         1 UNK         0.0000 
     38 H38        -0.0270   52.5619   29.8516 H         1 UNK         0.0000 
     39 H39         0.6377   53.7096   30.9919 H         1 UNK         0.0000 
     40 H40        -0.2802   54.2826   29.6058 H         1 UNK         0.0000 
     41 H41         3.5460   53.9739   26.9846 H         1 UNK         0.0000 
     42 H42         3.1042   52.3214   26.8942 H         1 UNK         0.0000 
     43 H43         2.4911   54.5836   24.9246 H         1 UNK         0.0000 
     44 H44         3.3904   53.1311   24.6271 H         1 UNK         0.0000 
     45 H45        -1.7203   50.8636   22.1026 H         1 UNK         0.0000 
     46 H46        -1.5002   49.1347   21.6534 H         1 UNK         0.0000 
     47 H47        -1.3383   46.8552   20.8712 H         1 UNK         0.0000 
     48 H48         0.3842   46.1999   19.2410 H         1 UNK         0.0000 
     49 H49         2.5915   50.0490   18.2953 H         1 UNK         0.0000 
     50 H50         2.2505   46.6667   17.8858 H         1 UNK         0.0000 
     51 H51         2.1645   48.2587   17.1306 H         1 UNK         0.0000 
     52 H52         3.2607   47.9868   18.4819 H         1 UNK         0.0000 
     53 H53         2.6947   53.8306   21.2273 H         1 UNK         0.0000 
     54 H54         0.6218   51.5602   27.5448 H         1 UNK         0.0000 
     55 H55        -0.5952   52.8195   27.5732 H         1 UNK         0.0000 
@<TRIPOS>BOND
     1    1    2 1    
     2    1   30 1    
     3    1   31 1    
     4    1   32 1    
     5    2    3 1    
     6    2   33 1    
     7    2   34 1    
     8    3    4 1    
     9    3    5 1    
    10    3    6 1    
    11    4   35 1    
    12    4   36 1    
    13    4   37 1    
    14    5   38 1    
    15    5   39 1    
    16    5   40 1    
    17    6    7 1    
    18    6   29 1    
    19    6    8 1    
    20    8    9 1    
    21    8   41 1    
    22    8   42 1    
    23    9   10 1    
    24    9   43 1    
    25    9   44 1    
    26   10   14 1    
    27   10   11 2    
    28   11   12 1    
    29   11   29 1    
    30   12   13 1    
    31   13   19 1    
    32   13   14 2    
    33   14   15 1    
    34   15   16 2    
    35   15   28 1    
    36   16   17 1    
    37   17   18 1    
    38   17   19 1    
    39   17   20 1    
    40   19   45 1    
    41   20   25 ar   
    42   20   21 ar   
    43   21   22 ar   
    44   21   46 1    
    45   22   23 ar   
    46   22   47 1    
    47   23   24 ar   
    48   23   48 1    
    49   24   25 ar   
    50   24   27 1    
    51   25   26 1    
    52   26   49 1    
    53   27   50 1    
    54   27   51 1    
    55   27   52 1    
    56   28   53 1    
    57   29   54 1    
    58   29   55 1    
@<TRIPOS>SUBSTRUCTURE
     1 UNK         1 GROUP             0       ****    0 ROOT    
