@<TRIPOS>MOLECULE
ZINC39691345_400
81   85    1
SMALL
USER_CHARGES


@<TRIPOS>ATOM
      1 C1          4.6255   53.2919   27.9407 C.3       1 UNK         0.0000 
      2 C2          3.1532   53.7197   27.6591 C.3       1 UNK         0.0000 
      3 C3          2.8454   54.9806   28.5277 C.3       1 UNK         0.0000 
      4 C4          2.6249   54.7218   30.0251 C.3       1 UNK         0.0000 
      5 C5          1.5897   53.6194   30.2819 C.3       1 UNK         0.0000 
      6 C6          2.0071   52.3242   29.5812 C.3       1 UNK         0.0000 
      7 C7          2.2119   52.5335   28.0680 C.3       1 UNK         0.0000 
      8 C8          3.1081   54.1767   26.1496 C.2       1 UNK         0.0000 
      9 O9          3.9044   55.0542   25.8028 O.2       1 UNK         0.0000 
     10 N10         2.1670   53.7320   25.2703 N.am      1 UNK         0.0000 
     11 C11         1.8670   54.4408   24.0072 C.3       1 UNK         0.0000 
     12 C12         1.6056   53.3309   22.9482 C.3       1 UNK         0.0000 
     13 H13         0.7927   53.5951   22.2699 H         1 UNK         0.0000 
     14 C14         1.1431   52.1163   23.7954 C.3       1 UNK         0.0000 
     15 C15         2.0521   52.3157   25.0163 C.3       1 UNK         0.0000 
     16 C16        -0.3665   52.2613   24.1597 C.3       1 UNK         0.0000 
     17 C17        -0.8109   51.2588   25.2483 C.3       1 UNK         0.0000 
     18 N18        -0.5661   49.8255   24.7233 N.4       1 UNK         0.0000 
     19 C19         0.8497   49.5774   24.1557 C.3       1 UNK         0.0000 
     20 C20         1.2281   50.6972   23.1542 C.3       1 UNK         0.0000 
     21 C21         2.8509   53.0146   22.0800 C.2       1 UNK         0.0000 
     22 O22         3.9834   53.2990   22.4683 O.2       1 UNK         0.0000 
     23 N23         2.5996   52.4964   20.8667 N.am      1 UNK         0.0000 
     24 C24         3.6115   52.2499   19.8453 C.3       1 UNK         0.0000 
     25 C25         3.6429   53.3871   18.8089 C.3       1 UNK         0.0000 
     26 N26         4.7701   53.2965   17.8918 N.am      1 UNK         0.0000 
     27 C27         6.0059   53.7194   18.1887 C.2       1 UNK         0.0000 
     28 O28         6.3039   54.2013   19.2831 O.2       1 UNK         0.0000 
     29 C29         7.0545   53.5624   17.0767 C.3       1 UNK         0.0000 
     30 C30         8.2100   54.5734   17.1380 C.ar      1 UNK         0.0000 
     31 C31         9.5112   54.0848   17.2757 C.ar      1 UNK         0.0000 
     32 C32        10.6000   54.9428   17.3376 C.ar      1 UNK         0.0000 
     33 C33        10.4175   56.3185   17.2796 C.ar      1 UNK         0.0000 
     34 C34         9.1223   56.8672   17.1363 C.ar      1 UNK         0.0000 
     35 C35         7.9909   55.9934   17.0409 C.ar      1 UNK         0.0000 
     36 C36         6.7067   56.5869   16.8479 C.ar      1 UNK         0.0000 
     37 C37         6.5527   57.9699   16.8004 C.ar      1 UNK         0.0000 
     38 C38         7.6536   58.8042   16.9209 C.ar      1 UNK         0.0000 
     39 C39         8.9287   58.2722   17.0797 C.ar      1 UNK         0.0000 
     40 H40         4.7645   52.9365   28.9626 H         1 UNK         0.0000 
     41 H41         4.9554   52.4962   27.2755 H         1 UNK         0.0000 
     42 H42         5.3287   54.1168   27.8099 H         1 UNK         0.0000 
     43 H43         3.6546   55.6968   28.4400 H         1 UNK         0.0000 
     44 H44         1.9299   55.4607   28.1728 H         1 UNK         0.0000 
     45 H45         3.5777   54.4526   30.4814 H         1 UNK         0.0000 
     46 H46         2.3030   55.6573   30.4838 H         1 UNK         0.0000 
     47 H47         1.4693   53.4295   31.3473 H         1 UNK         0.0000 
     48 H48         0.6110   53.9387   29.9181 H         1 UNK         0.0000 
     49 H49         2.9263   51.9474   30.0307 H         1 UNK         0.0000 
     50 H50         1.2525   51.5534   29.7460 H         1 UNK         0.0000 
     51 H51         1.2101   52.7243   27.6784 H         1 UNK         0.0000 
     52 H52         2.5762   51.5876   27.6804 H         1 UNK         0.0000 
     53 H53         2.6345   55.1221   23.6316 H         1 UNK         0.0000 
     54 H54         0.8862   54.8967   24.0784 H         1 UNK         0.0000 
     55 H55         1.8300   51.6967   25.8649 H         1 UNK         0.0000 
     56 H56         3.0890   52.0958   24.7496 H         1 UNK         0.0000 
     57 H57        -0.5491   53.2510   24.5743 H         1 UNK         0.0000 
     58 H58        -1.0000   52.2114   23.2728 H         1 UNK         0.0000 
     59 H59        -0.2666   51.3564   26.1892 H         1 UNK         0.0000 
     60 H60        -1.8811   51.3244   25.4582 H         1 UNK         0.0000 
     61 H61        -0.7552   49.1652   25.4697 H         1 UNK         0.0000 
     62 H62         1.5042   49.5289   25.0202 H         1 UNK         0.0000 
     63 H63         0.8289   48.5926   23.6863 H         1 UNK         0.0000 
     64 H64         0.6330   50.6304   22.2411 H         1 UNK         0.0000 
     65 H65         2.2528   50.4932   22.8420 H         1 UNK         0.0000 
     66 H66         1.6446   52.3058   20.6046 H         1 UNK         0.0000 
     67 H67         3.2816   51.3408   19.3384 H         1 UNK         0.0000 
     68 H68         4.6057   52.0158   20.2335 H         1 UNK         0.0000 
     69 H69         3.5341   54.3737   19.2671 H         1 UNK         0.0000 
     70 H70         2.7733   53.2708   18.1594 H         1 UNK         0.0000 
     71 H71         4.6248   52.7782   17.0359 H         1 UNK         0.0000 
     72 H72         6.5794   53.6406   16.0972 H         1 UNK         0.0000 
     73 H73         7.4347   52.5421   17.1417 H         1 UNK         0.0000 
     74 H74         9.6866   53.0211   17.3488 H         1 UNK         0.0000 
     75 H75        11.5932   54.5380   17.4623 H         1 UNK         0.0000 
     76 H76        11.2693   56.9768   17.3527 H         1 UNK         0.0000 
     77 H77         5.8316   55.9700   16.7398 H         1 UNK         0.0000 
     78 H78         5.5711   58.4020   16.6670 H         1 UNK         0.0000 
     79 H79         7.5100   59.8755   16.8824 H         1 UNK         0.0000 
     80 H80         9.7830   58.9305   17.1551 H         1 UNK         0.0000 
     81 H81        -1.2411   49.6362   23.9963 H         1 UNK         0.0000 
@<TRIPOS>BOND
     1    1    2 1    
     2    1   40 1    
     3    1   41 1    
     4    1   42 1    
     5    2    7 1    
     6    2    3 1    
     7    2    8 1    
     8    3    4 1    
     9    3   43 1    
    10    3   44 1    
    11    4    5 1    
    12    4   45 1    
    13    4   46 1    
    14    5    6 1    
    15    5   47 1    
    16    5   48 1    
    17    6    7 1    
    18    6   49 1    
    19    6   50 1    
    20    7   51 1    
    21    7   52 1    
    22    8    9 2    
    23    8   10 am   BACKBONE|DICT|INTERRES
    24   10   15 1    
    25   10   11 1    
    26   11   12 1    
    27   11   53 1    
    28   11   54 1    
    29   12   13 1    
    30   12   14 1    
    31   12   21 1    
    32   14   20 1    
    33   14   15 1    
    34   14   16 1    
    35   15   55 1    
    36   15   56 1    
    37   16   17 1    
    38   16   57 1    
    39   16   58 1    
    40   17   18 1    
    41   17   59 1    
    42   17   60 1    
    43   18   19 1    
    44   18   61 1    
    45   18   81 1    
    46   19   20 1    
    47   19   62 1    
    48   19   63 1    
    49   20   64 1    
    50   20   65 1    
    51   21   22 2    
    52   21   23 am   BACKBONE|DICT|INTERRES
    53   23   24 1    
    54   23   66 1    
    55   24   25 1    
    56   24   67 1    
    57   24   68 1    
    58   25   26 1    
    59   25   69 1    
    60   25   70 1    
    61   26   27 am   BACKBONE|DICT|INTERRES
    62   26   71 1    
    63   27   28 2    
    64   27   29 1    
    65   29   30 1    
    66   29   72 1    
    67   29   73 1    
    68   30   35 ar   
    69   30   31 ar   
    70   31   32 ar   
    71   31   74 1    
    72   32   33 ar   
    73   32   75 1    
    74   33   34 ar   
    75   33   76 1    
    76   34   39 ar   
    77   34   35 ar   
    78   35   36 ar   
    79   36   37 ar   
    80   36   77 1    
    81   37   38 ar   
    82   37   78 1    
    83   38   39 ar   
    84   38   79 1    
    85   39   80 1    
@<TRIPOS>SUBSTRUCTURE
     1 UNK         1 GROUP             0       ****    0 ROOT    
