@<TRIPOS>MOLECULE
ZINC33727842_1227
65   69    1
SMALL
USER_CHARGES


@<TRIPOS>ATOM
      1 C1          0.6216   52.4992   30.8576 C.3       1 UNK         0.0000 
      2 C2         -0.0383   52.0942   29.5369 C.2       1 UNK         0.0000 
      3 C3          0.4621   52.2421   28.2850 C.2       1 UNK         0.0000 
      4 C4         -0.4491   52.0226   27.0463 C.3       1 UNK         0.0000 
      5 H5         -0.6095   53.0153   26.6382 H         1 UNK         0.0000 
      6 N6         -1.8312   51.6302   27.4469 N.pl3     1 UNK         0.0000 
      7 C7         -2.7893   51.6897   26.3172 C.3       1 UNK         0.0000 
      8 C8         -4.2477   51.4552   26.7573 C.3       1 UNK         0.0000 
      9 C9         -4.4447   50.2120   27.6347 C.3       1 UNK         0.0000 
     10 S10        -3.6553   50.5017   29.2259 S.3       1 UNK         0.0000 
     11 C11        -2.1857   51.3263   28.7095 C.2       1 UNK         0.0000 
     12 N12        -1.3016   51.5812   29.6877 N.pl3     1 UNK         0.0000 
     13 C13         0.1288   51.2037   25.8911 C.ar      1 UNK         0.0000 
     14 C14         0.2120   49.8124   25.9873 C.ar      1 UNK         0.0000 
     15 C15         0.6605   49.0637   24.9073 C.ar      1 UNK         0.0000 
     16 C16         1.0659   49.6958   23.7339 C.ar      1 UNK         0.0000 
     17 C17         1.0026   51.0901   23.6251 C.ar      1 UNK         0.0000 
     18 C18         0.5034   51.8340   24.6965 C.ar      1 UNK         0.0000 
     19 N19         1.3694   51.7790   22.4595 N.am      1 UNK         0.0000 
     20 C20         2.3207   51.4260   21.5678 C.2       1 UNK         0.0000 
     21 O21         3.1041   50.4955   21.7347 O.2       1 UNK         0.0000 
     22 C22         2.4819   52.3520   20.3515 C.3       1 UNK         0.0000 
     23 C23         3.9458   52.6191   19.9633 C.3       1 UNK         0.0000 
     24 C24         3.8313   53.0810   18.5097 C.3       1 UNK         0.0000 
     25 C25         2.7036   52.2305   17.9089 C.3       1 UNK         0.0000 
     26 C26         1.8137   51.7877   19.0827 C.3       1 UNK         0.0000 
     27 C27         1.8668   52.5945   28.0917 C.2       1 UNK         0.0000 
     28 O28         2.7433   52.1260   28.8219 O.2       1 UNK         0.0000 
     29 N29         2.1250   53.4322   27.0640 N.am      1 UNK         0.0000 
     30 C30         3.3865   53.8725   26.6192 C.ar      1 UNK         0.0000 
     31 C31         3.5303   54.0969   25.2469 C.ar      1 UNK         0.0000 
     32 C32         4.7602   54.4965   24.7305 C.ar      1 UNK         0.0000 
     33 C33         5.8407   54.6981   25.5871 C.ar      1 UNK         0.0000 
     34 C34         5.7023   54.4990   26.9593 C.ar      1 UNK         0.0000 
     35 C35         4.4763   54.0910   27.4778 C.ar      1 UNK         0.0000 
     36 H36         1.1905   51.6964   31.3103 H         1 UNK         0.0000 
     37 H37         1.3067   53.3314   30.7119 H         1 UNK         0.0000 
     38 H38        -0.1093   52.8385   31.5916 H         1 UNK         0.0000 
     39 H39        -2.6907   52.6535   25.8135 H         1 UNK         0.0000 
     40 H40        -2.4956   50.9152   25.6063 H         1 UNK         0.0000 
     41 H41        -4.6211   52.3381   27.2790 H         1 UNK         0.0000 
     42 H42        -4.8713   51.3651   25.8654 H         1 UNK         0.0000 
     43 H43        -5.4969   49.9933   27.8124 H         1 UNK         0.0000 
     44 H44        -3.9779   49.3263   27.1986 H         1 UNK         0.0000 
     45 H45        -0.0970   49.2959   26.8823 H         1 UNK         0.0000 
     46 H46         0.7048   47.9875   24.9910 H         1 UNK         0.0000 
     47 H47         1.4232   49.0846   22.9184 H         1 UNK         0.0000 
     48 H48         0.4172   52.9072   24.6046 H         1 UNK         0.0000 
     49 H49         0.9123   52.6641   22.3091 H         1 UNK         0.0000 
     50 H50         2.0384   53.2952   20.6455 H         1 UNK         0.0000 
     51 H51         4.5590   51.7158   20.0155 H         1 UNK         0.0000 
     52 H52         4.4125   53.3774   20.5937 H         1 UNK         0.0000 
     53 H53         4.7695   52.9575   17.9659 H         1 UNK         0.0000 
     54 H54         3.5628   54.1386   18.4744 H         1 UNK         0.0000 
     55 H55         3.1186   51.3514   17.4103 H         1 UNK         0.0000 
     56 H56         2.1406   52.7848   17.1580 H         1 UNK         0.0000 
     57 H57         0.7988   52.1694   18.9727 H         1 UNK         0.0000 
     58 H58         1.7614   50.6962   19.0882 H         1 UNK         0.0000 
     59 H59         1.3496   53.6725   26.4692 H         1 UNK         0.0000 
     60 H60         2.7055   53.9348   24.5689 H         1 UNK         0.0000 
     61 H61         4.8754   54.6488   23.6667 H         1 UNK         0.0000 
     62 H62         6.7921   55.0077   25.1796 H         1 UNK         0.0000 
     63 H63         6.5414   54.6607   27.6224 H         1 UNK         0.0000 
     64 H64         4.3887   53.9485   28.5438 H         1 UNK         0.0000 
     65 H65        -1.5976   51.3170   30.6210 H         1 UNK         0.0000 
@<TRIPOS>BOND
     1    1    2 1    
     2    1   36 1    
     3    1   37 1    
     4    1   38 1    
     5    2   12 1    
     6    2    3 2    
     7    3    4 1    
     8    3   27 1    
     9    4    5 1    
    10    4    6 1    
    11    4   13 1    
    12    6   11 1    
    13    6    7 1    
    14    7    8 1    
    15    7   39 1    
    16    7   40 1    
    17    8    9 1    
    18    8   41 1    
    19    8   42 1    
    20    9   10 1    
    21    9   43 1    
    22    9   44 1    
    23   10   11 1    
    24   11   12 2    
    25   12   65 1    
    26   13   18 ar   
    27   13   14 ar   
    28   14   15 ar   
    29   14   45 1    
    30   15   16 ar   
    31   15   46 1    
    32   16   17 ar   
    33   16   47 1    
    34   17   18 ar   
    35   17   19 1    
    36   18   48 1    
    37   19   20 am   BACKBONE|DICT|INTERRES
    38   19   49 1    
    39   20   21 2    
    40   20   22 1    
    41   22   26 1    
    42   22   23 1    
    43   22   50 1    
    44   23   24 1    
    45   23   51 1    
    46   23   52 1    
    47   24   25 1    
    48   24   53 1    
    49   24   54 1    
    50   25   26 1    
    51   25   55 1    
    52   25   56 1    
    53   26   57 1    
    54   26   58 1    
    55   27   28 2    
    56   27   29 am   BACKBONE|DICT|INTERRES
    57   29   30 1    
    58   29   59 1    
    59   30   35 ar   
    60   30   31 ar   
    61   31   32 ar   
    62   31   60 1    
    63   32   33 ar   
    64   32   61 1    
    65   33   34 ar   
    66   33   62 1    
    67   34   35 ar   
    68   34   63 1    
    69   35   64 1    
@<TRIPOS>SUBSTRUCTURE
     1 UNK         1 GROUP             0       ****    0 ROOT    
