@<TRIPOS>MOLECULE
ZINC60204830_3650
41   43    1
SMALL
USER_CHARGES


@<TRIPOS>ATOM
      1 C1         -6.9100   52.0590   26.0592 C.3       1 UNK         0.0000 
      2 O2         -6.0767   51.6760   27.1476 O.3       1 UNK         0.0000 
      3 C3         -4.7004   51.6667   26.9905 C.ar      1 UNK         0.0000 
      4 C4         -4.0554   52.0077   25.7928 C.ar      1 UNK         0.0000 
      5 C5         -2.6598   51.9997   25.6798 C.ar      1 UNK         0.0000 
      6 C6         -1.8847   51.6991   26.8223 C.ar      1 UNK         0.0000 
      7 C7         -2.5292   51.2966   27.9996 C.ar      1 UNK         0.0000 
      8 C8         -3.9302   51.2746   28.0928 C.ar      1 UNK         0.0000 
      9 O9         -4.6148   50.9207   29.2423 O.3       1 UNK         0.0000 
     10 C10        -3.9695   50.0987   30.2090 C.3       1 UNK         0.0000 
     11 N11        -0.4819   51.8364   26.7775 N.am      1 UNK         0.0000 
     12 C12         0.2776   52.5417   27.6457 C.2       1 UNK         0.0000 
     13 O13        -0.0901   52.8848   28.7704 O.2       1 UNK         0.0000 
     14 C14         1.5690   52.9609   27.1215 C.2       1 UNK         0.0000 
     15 C15         2.7415   53.2280   27.8307 C.2       1 UNK         0.0000 
     16 C16         3.8192   53.6993   26.9942 C.ar      1 UNK         0.0000 
     17 C17         3.4090   53.7766   25.6247 C.ar      1 UNK         0.0000 
     18 S18         1.7432   53.2969   25.4032 S.3       1 UNK         0.0000 
     19 C19         4.2777   54.1852   24.6019 C.ar      1 UNK         0.0000 
     20 C20         5.5815   54.5262   24.9379 C.ar      1 UNK         0.0000 
     21 C21         6.0064   54.4814   26.2573 C.ar      1 UNK         0.0000 
     22 C22         5.1540   54.0862   27.2860 C.ar      1 UNK         0.0000 
     23 Cl23        5.8049   54.0976   28.8816 Cl        1 UNK         0.0000 
     24 Cl24        6.6823   55.0295   23.7077 Cl        1 UNK         0.0000 
     25 Cl25        2.9084   53.0086   29.5385 Cl        1 UNK         0.0000 
     26 C26        -2.0601   52.3355   24.3353 C.2       1 UNK         0.0000 
     27 O27        -2.4501   53.2967   23.6803 O.2       1 UNK         0.0000 
     28 N28        -1.1175   51.5096   23.8800 N.am      1 UNK         0.0000 
     29 H29        -7.9531   52.0186   26.3744 H         1 UNK         0.0000 
     30 H30        -6.7961   51.3831   25.2103 H         1 UNK         0.0000 
     31 H31        -6.7027   53.0810   25.7371 H         1 UNK         0.0000 
     32 H32        -4.6423   52.2756   24.9262 H         1 UNK         0.0000 
     33 H33        -1.9249   51.0224   28.8510 H         1 UNK         0.0000 
     34 H34        -4.6616   49.8900   31.0256 H         1 UNK         0.0000 
     35 H35        -3.6961   49.1421   29.7624 H         1 UNK         0.0000 
     36 H36        -3.0843   50.5586   30.6492 H         1 UNK         0.0000 
     37 H37        -0.0619   51.6369   25.8839 H         1 UNK         0.0000 
     38 H38         3.9479   54.2311   23.5730 H         1 UNK         0.0000 
     39 H39         7.0222   54.7586   26.4953 H         1 UNK         0.0000 
     40 H40        -0.9530   50.6291   24.3449 H         1 UNK         0.0000 
     41 H41        -0.6958   51.6934   22.9828 H         1 UNK         0.0000 
@<TRIPOS>BOND
     1    1    2 1    
     2    1   29 1    
     3    1   30 1    
     4    1   31 1    
     5    2    3 1    
     6    3    8 ar   
     7    3    4 ar   
     8    4    5 ar   
     9    4   32 1    
    10    5    6 ar   
    11    5   26 1    
    12    6    7 ar   
    13    6   11 1    
    14    7    8 ar   
    15    7   33 1    
    16    8    9 1    
    17    9   10 1    
    18   10   34 1    
    19   10   35 1    
    20   10   36 1    
    21   11   12 am   BACKBONE|DICT|INTERRES
    22   11   37 1    
    23   12   13 2    
    24   12   14 1    
    25   14   18 1    
    26   14   15 2    
    27   15   16 1    
    28   15   25 1    
    29   16   22 ar   
    30   16   17 ar   
    31   17   18 1    
    32   17   19 ar   
    33   19   20 ar   
    34   19   38 1    
    35   20   21 ar   
    36   20   24 1    
    37   21   22 ar   
    38   21   39 1    
    39   22   23 1    
    40   26   27 2    
    41   26   28 am   BACKBONE|DICT|INTERRES
    42   28   40 1    
    43   28   41 1    
@<TRIPOS>SUBSTRUCTURE
     1 UNK         1 GROUP             0       ****    0 ROOT    
