@<TRIPOS>MOLECULE
ZINC30826958_2972
49   51    1
SMALL
USER_CHARGES


@<TRIPOS>ATOM
      1 C1          4.4981   54.6042   24.5047 C.ar      1 UNK         0.0000 
      2 C2          3.9366   54.4949   25.7669 C.ar      1 UNK         0.0000 
      3 C3          4.7481   54.4580   26.9043 C.ar      1 UNK         0.0000 
      4 C4          6.1403   54.4790   26.7431 C.ar      1 UNK         0.0000 
      5 C5          6.7042   54.5802   25.4722 C.ar      1 UNK         0.0000 
      6 C6          5.8877   54.6620   24.3488 C.ar      1 UNK         0.0000 
      7 N7          6.5090   54.9030   23.1065 N.pl3     1 UNK         0.0000 
      8 C8          6.0271   54.7395   21.8410 C.2       1 UNK         0.0000 
      9 S9          6.7064   55.6965   20.6499 S.2       1 UNK         0.0000 
     10 N10         5.0695   53.7654   21.7090 N.am      1 UNK         0.0000 
     11 C11         4.4007   53.2475   20.6533 C.2       1 UNK         0.0000 
     12 O12         4.6473   53.4526   19.4644 O.2       1 UNK         0.0000 
     13 C13         3.3104   52.2914   21.0639 C.ar      1 UNK         0.0000 
     14 C14         3.2161   51.0314   20.4641 C.ar      1 UNK         0.0000 
     15 C15         2.2513   50.1154   20.8819 C.ar      1 UNK         0.0000 
     16 C16         1.3544   50.4516   21.8968 C.ar      1 UNK         0.0000 
     17 C17         1.4163   51.7220   22.4840 C.ar      1 UNK         0.0000 
     18 C18         2.3853   52.6327   22.0625 C.ar      1 UNK         0.0000 
     19 Cl19        0.3156   52.2003   23.7302 Cl        1 UNK         0.0000 
     20 Cl20        0.1819   49.2839   22.3986 Cl        1 UNK         0.0000 
     21 N21         4.1910   54.4126   28.1773 N.pl3     1 UNK         0.0000 
     22 C22         2.8165   54.8711   28.4553 C.3       1 UNK         0.0000 
     23 C23         1.7801   53.7241   28.5192 C.3       1 UNK         0.0000 
     24 N24         2.2653   52.7599   29.5152 N.am      1 UNK         0.0000 
     25 C25         3.5744   52.1825   29.1916 C.3       1 UNK         0.0000 
     26 C26         4.5947   53.3401   29.0966 C.3       1 UNK         0.0000 
     27 C27         1.8338   52.7467   30.8054 C.2       1 UNK         0.0000 
     28 O28         2.4288   52.0966   31.6696 O.2       1 UNK         0.0000 
     29 C29         0.5085   53.4424   31.1877 C.3       1 UNK         0.0000 
     30 F30         0.5568   54.7407   30.8802 F         1 UNK         0.0000 
     31 F31         0.3043   53.3527   32.5003 F         1 UNK         0.0000 
     32 F32        -0.4952   52.8695   30.5247 F         1 UNK         0.0000 
     33 H33         3.8297   54.7339   23.6710 H         1 UNK         0.0000 
     34 H34         2.8609   54.4695   25.8475 H         1 UNK         0.0000 
     35 H35         6.7870   54.4529   27.6087 H         1 UNK         0.0000 
     36 H36         7.7742   54.6234   25.3534 H         1 UNK         0.0000 
     37 H37         7.3572   55.4491   23.1775 H         1 UNK         0.0000 
     38 H38         4.7585   53.3869   22.5903 H         1 UNK         0.0000 
     39 H39         3.9037   50.7469   19.6813 H         1 UNK         0.0000 
     40 H40         2.2075   49.1413   20.4163 H         1 UNK         0.0000 
     41 H41         2.3963   53.6144   22.5105 H         1 UNK         0.0000 
     42 H42         2.8422   55.3892   29.4154 H         1 UNK         0.0000 
     43 H43         2.5019   55.6137   27.7222 H         1 UNK         0.0000 
     44 H44         1.7527   53.2352   27.5440 H         1 UNK         0.0000 
     45 H45         0.7576   54.0613   28.6858 H         1 UNK         0.0000 
     46 H46         3.8914   51.3982   29.8801 H         1 UNK         0.0000 
     47 H47         3.5038   51.7114   28.2126 H         1 UNK         0.0000 
     48 H48         4.7042   53.8022   30.0793 H         1 UNK         0.0000 
     49 H49         5.5658   52.9274   28.8218 H         1 UNK         0.0000 
@<TRIPOS>BOND
     1    1    6 ar   
     2    1    2 ar   
     3    1   33 1    
     4    2    3 ar   
     5    2   34 1    
     6    3    4 ar   
     7    3   21 1    
     8    4    5 ar   
     9    4   35 1    
    10    5    6 ar   
    11    5   36 1    
    12    6    7 1    
    13    7    8 1    
    14    7   37 1    
    15    8    9 2    
    16    8   10 am   BACKBONE|DICT|INTERRES
    17   10   11 am   BACKBONE|DICT|INTERRES
    18   10   38 1    
    19   11   12 2    
    20   11   13 1    
    21   13   18 ar   
    22   13   14 ar   
    23   14   15 ar   
    24   14   39 1    
    25   15   16 ar   
    26   15   40 1    
    27   16   17 ar   
    28   16   20 1    
    29   17   18 ar   
    30   17   19 1    
    31   18   41 1    
    32   21   26 1    
    33   21   22 1    
    34   22   23 1    
    35   22   42 1    
    36   22   43 1    
    37   23   24 1    
    38   23   44 1    
    39   23   45 1    
    40   24   25 1    
    41   24   27 am   BACKBONE|DICT|INTERRES
    42   25   26 1    
    43   25   46 1    
    44   25   47 1    
    45   26   48 1    
    46   26   49 1    
    47   27   28 2    
    48   27   29 1    
    49   29   30 1    
    50   29   31 1    
    51   29   32 1    
@<TRIPOS>SUBSTRUCTURE
     1 UNK         1 GROUP             0       ****    0 ROOT    
