@<TRIPOS>MOLECULE
ZINC45891710_1749
39   40    1
SMALL
USER_CHARGES


@<TRIPOS>ATOM
      1 C1          0.1715   53.5866   30.0712 C.3       1 UNK         0.0000 
      2 C2          1.6329   53.1754   29.8063 C.3       1 UNK         0.0000 
      3 C3          1.6519   52.2380   28.5666 C.3       1 UNK         0.0000 
      4 C4          1.9727   52.8915   27.2039 C.3       1 UNK         0.0000 
      5 N5          3.1462   53.7660   27.3007 N.pl3     1 UNK         0.0000 
      6 C6          2.7000   54.8987   28.1194 C.3       1 UNK         0.0000 
      7 C7          2.4655   54.4673   29.5819 C.3       1 UNK         0.0000 
      8 C8          3.9832   54.0054   26.2061 C.ar      1 UNK         0.0000 
      9 C9          3.5042   53.9111   24.8864 C.ar      1 UNK         0.0000 
     10 C10         4.3497   54.0974   23.7860 C.ar      1 UNK         0.0000 
     11 C11         5.6809   54.4967   24.0028 C.ar      1 UNK         0.0000 
     12 C12         6.1579   54.6306   25.3048 C.ar      1 UNK         0.0000 
     13 C13         5.3319   54.3817   26.3999 C.ar      1 UNK         0.0000 
     14 N14         5.8922   54.4963   27.6796 N.pl3     1 UNK         0.0000 
     15 Cl15        6.7559   54.8891   22.7027 Cl        1 UNK         0.0000 
     16 N16         3.8008   53.9541   22.4977 N.am      1 UNK         0.0000 
     17 C17         4.2142   53.0609   21.5735 C.2       1 UNK         0.0000 
     18 O18         5.1044   52.2318   21.7520 O.2       1 UNK         0.0000 
     19 C19         3.5044   53.0953   20.2278 C.3       1 UNK         0.0000 
     20 H20        -0.2674   54.0964   29.2120 H         1 UNK         0.0000 
     21 H21        -0.4506   52.7175   30.2904 H         1 UNK         0.0000 
     22 H22         0.0921   54.2523   30.9318 H         1 UNK         0.0000 
     23 H23         2.0321   52.6356   30.6665 H         1 UNK         0.0000 
     24 H24         0.7546   51.6173   28.5176 H         1 UNK         0.0000 
     25 H25         2.4219   51.4809   28.7264 H         1 UNK         0.0000 
     26 H26         1.1072   53.4251   26.8046 H         1 UNK         0.0000 
     27 H27         2.1909   52.0968   26.4930 H         1 UNK         0.0000 
     28 H28         3.4466   55.6949   28.1188 H         1 UNK         0.0000 
     29 H29         1.7948   55.3421   27.6998 H         1 UNK         0.0000 
     30 H30         3.4570   54.3018   30.0070 H         1 UNK         0.0000 
     31 H31         2.0992   55.2947   30.1930 H         1 UNK         0.0000 
     32 H32         2.4729   53.6436   24.7096 H         1 UNK         0.0000 
     33 H33         7.1846   54.9245   25.4549 H         1 UNK         0.0000 
     34 H34         5.3034   54.2755   28.4699 H         1 UNK         0.0000 
     35 H35         6.8332   54.8353   27.8199 H         1 UNK         0.0000 
     36 H36         2.9882   54.5094   22.2761 H         1 UNK         0.0000 
     37 H37         3.5325   54.0984   19.8024 H         1 UNK         0.0000 
     38 H38         2.4633   52.7925   20.3375 H         1 UNK         0.0000 
     39 H39         3.9848   52.4147   19.5215 H         1 UNK         0.0000 
@<TRIPOS>BOND
     1    1    2 1    
     2    1   20 1    
     3    1   21 1    
     4    1   22 1    
     5    2    7 1    
     6    2    3 1    
     7    2   23 1    
     8    3    4 1    
     9    3   24 1    
    10    3   25 1    
    11    4    5 1    
    12    4   26 1    
    13    4   27 1    
    14    5    6 1    
    15    5    8 1    
    16    6    7 1    
    17    6   28 1    
    18    6   29 1    
    19    7   30 1    
    20    7   31 1    
    21    8   13 ar   
    22    8    9 ar   
    23    9   10 ar   
    24    9   32 1    
    25   10   11 ar   
    26   10   16 1    
    27   11   12 ar   
    28   11   15 1    
    29   12   13 ar   
    30   12   33 1    
    31   13   14 1    
    32   14   34 1    
    33   14   35 1    
    34   16   17 am   BACKBONE|DICT|INTERRES
    35   16   36 1    
    36   17   18 2    
    37   17   19 1    
    38   19   37 1    
    39   19   38 1    
    40   19   39 1    
@<TRIPOS>SUBSTRUCTURE
     1 UNK         1 GROUP             0       ****    0 ROOT    
