@<TRIPOS>MOLECULE
ZINC38651416_6005
60   63    1
SMALL
USER_CHARGES


@<TRIPOS>ATOM
      1 C1         -1.6796   49.1346   20.0066 C.3       1 UNK         0.0000 
      2 C2         -1.0900   50.5147   19.6608 C.3       1 UNK         0.0000 
      3 H3         -0.1959   50.3484   19.0559 H         1 UNK         0.0000 
      4 C4         -0.7088   51.2990   20.9365 C.2       1 UNK         0.0000 
      5 O5         -1.4869   52.0968   21.4673 O.2       1 UNK         0.0000 
      6 O6          0.5640   51.0242   21.3275 O.3       1 UNK         0.0000 
      7 C7          1.2075   51.8134   22.2543 C.ar      1 UNK         0.0000 
      8 C8          0.7929   51.9155   23.5847 C.ar      1 UNK         0.0000 
      9 C9          1.5143   52.6934   24.4939 C.ar      1 UNK         0.0000 
     10 C10         2.6773   53.3891   24.1157 C.ar      1 UNK         0.0000 
     11 C11         3.0902   53.2342   22.7717 C.ar      1 UNK         0.0000 
     12 C12         2.3685   52.4715   21.8577 C.ar      1 UNK         0.0000 
     13 O13         4.2670   53.7624   22.2854 O.3       1 UNK         0.0000 
     14 C14         5.1668   54.2463   23.1629 C.2       1 UNK         0.0000 
     15 C15         4.9171   54.4977   24.4627 C.2       1 UNK         0.0000 
     16 C16         3.5291   54.2650   25.0774 C.3       1 UNK         0.0000 
     17 H17         3.1046   55.2728   25.0826 H         1 UNK         0.0000 
     18 C18         3.5066   53.8491   26.5683 C.ar      1 UNK         0.0000 
     19 C19         4.6355   53.2969   27.1912 C.ar      1 UNK         0.0000 
     20 C20         4.5998   52.9093   28.5252 C.ar      1 UNK         0.0000 
     21 C21         3.4285   53.0667   29.2547 C.ar      1 UNK         0.0000 
     22 C22         2.3068   53.6539   28.6719 C.ar      1 UNK         0.0000 
     23 C23         2.3544   54.0521   27.3375 C.ar      1 UNK         0.0000 
     24 Cl24        3.3640   52.4966   30.8809 Cl        1 UNK         0.0000 
     25 C25         5.9094   55.1640   25.2343 C.1       1 UNK         0.0000 
     26 N26         6.7044   55.6967   25.8759 N.1       1 UNK         0.0000 
     27 N27         6.3168   54.5202   22.4792 N.pl3     1 UNK         0.0000 
     28 O28        -2.0782   51.1937   18.8706 O.3       1 UNK         0.0000 
     29 C29        -1.7663   52.3610   18.1951 C.ar      1 UNK         0.0000 
     30 C30        -0.4728   52.8951   18.0803 C.ar      1 UNK         0.0000 
     31 C31        -0.2731   54.1122   17.4343 C.ar      1 UNK         0.0000 
     32 C32        -1.3547   54.8079   16.8876 C.ar      1 UNK         0.0000 
     33 C33        -2.6361   54.2527   16.9612 C.ar      1 UNK         0.0000 
     34 C34        -2.8351   53.0374   17.6116 C.ar      1 UNK         0.0000 
     35 C35        -1.1286   56.1759   16.2388 C.3       1 UNK         0.0000 
     36 C36        -1.7539   56.2849   14.8333 C.3       1 UNK         0.0000 
     37 C37        -1.6038   57.3158   17.1616 C.3       1 UNK         0.0000 
     38 H38        -1.0042   48.5446   20.6283 H         1 UNK         0.0000 
     39 H39        -2.6290   49.2277   20.5395 H         1 UNK         0.0000 
     40 H40        -1.8659   48.5598   19.0995 H         1 UNK         0.0000 
     41 H41        -0.0874   51.3848   23.9164 H         1 UNK         0.0000 
     42 H42         1.1477   52.7271   25.5065 H         1 UNK         0.0000 
     43 H43         2.7227   52.3790   20.8405 H         1 UNK         0.0000 
     44 H44         5.5461   53.1050   26.6427 H         1 UNK         0.0000 
     45 H45         5.4711   52.4653   28.9756 H         1 UNK         0.0000 
     46 H46         1.4001   53.7844   29.2437 H         1 UNK         0.0000 
     47 H47         1.4776   54.4939   26.8894 H         1 UNK         0.0000 
     48 H48         7.1548   54.8217   22.9560 H         1 UNK         0.0000 
     49 H49         6.3027   54.5678   21.4690 H         1 UNK         0.0000 
     50 H50         0.3848   52.3980   18.5087 H         1 UNK         0.0000 
     51 H51         0.7259   54.5231   17.3909 H         1 UNK         0.0000 
     52 H52        -3.4842   54.7700   16.5337 H         1 UNK         0.0000 
     53 H53        -3.8303   52.6217   17.6799 H         1 UNK         0.0000 
     54 H54        -0.0523   56.3025   16.1026 H         1 UNK         0.0000 
     55 H55        -1.4288   55.4659   14.1898 H         1 UNK         0.0000 
     56 H56        -2.8430   56.2676   14.8677 H         1 UNK         0.0000 
     57 H57        -1.4616   57.2158   14.3455 H         1 UNK         0.0000 
     58 H58        -1.1545   57.2403   18.1533 H         1 UNK         0.0000 
     59 H59        -1.3296   58.2911   16.7571 H         1 UNK         0.0000 
     60 H60        -2.6886   57.3006   17.2817 H         1 UNK         0.0000 
@<TRIPOS>BOND
     1    1    2 1    
     2    1   38 1    
     3    1   39 1    
     4    1   40 1    
     5    2    3 1    
     6    2    4 1    
     7    2   28 1    
     8    4    5 2    
     9    4    6 1    
    10    6    7 1    
    11    7   12 ar   
    12    7    8 ar   
    13    8    9 ar   
    14    8   41 1    
    15    9   10 ar   
    16    9   42 1    
    17   10   16 1    
    18   10   11 ar   
    19   11   12 ar   
    20   11   13 1    
    21   12   43 1    
    22   13   14 1    
    23   14   15 2    
    24   14   27 1    
    25   15   16 1    
    26   15   25 1    
    27   16   17 1    
    28   16   18 1    
    29   18   23 ar   
    30   18   19 ar   
    31   19   20 ar   
    32   19   44 1    
    33   20   21 ar   
    34   20   45 1    
    35   21   22 ar   
    36   21   24 1    
    37   22   23 ar   
    38   22   46 1    
    39   23   47 1    
    40   25   26 3    
    41   27   48 1    
    42   27   49 1    
    43   28   29 1    
    44   29   34 ar   
    45   29   30 ar   
    46   30   31 ar   
    47   30   50 1    
    48   31   32 ar   
    49   31   51 1    
    50   32   33 ar   
    51   32   35 1    
    52   33   34 ar   
    53   33   52 1    
    54   34   53 1    
    55   35   36 1    
    56   35   37 1    
    57   35   54 1    
    58   36   55 1    
    59   36   56 1    
    60   36   57 1    
    61   37   58 1    
    62   37   59 1    
    63   37   60 1    
@<TRIPOS>SUBSTRUCTURE
     1 UNK         1 GROUP             0       ****    0 ROOT    
