@<TRIPOS>MOLECULE
ZINC32971178_5950
62   65    1
SMALL
USER_CHARGES


@<TRIPOS>ATOM
      1 C1          5.8600   53.7093   28.6457 C.3       1 UNK         0.0000 
      2 C2          5.0186   53.9540   27.4098 C.ar      1 UNK         0.0000 
      3 C3          5.5529   54.6912   26.3582 C.ar      1 UNK         0.0000 
      4 C4          4.8007   54.8965   25.2102 C.ar      1 UNK         0.0000 
      5 C5          3.5174   54.3614   25.1048 C.ar      1 UNK         0.0000 
      6 C6          2.9555   53.5841   26.1343 C.ar      1 UNK         0.0000 
      7 C7          3.7344   53.4109   27.2969 C.ar      1 UNK         0.0000 
      8 N8          1.7069   52.9574   25.9722 N.pl3     1 UNK         0.0000 
      9 C9          0.9392   52.3132   27.0635 C.3       1 UNK         0.0000 
     10 C10         0.3153   50.9648   26.6294 C.3       1 UNK         0.0000 
     11 N11        -0.6367   51.1039   25.5243 N.pl3     1 UNK         0.0000 
     12 C12        -0.4642   52.3527   24.7697 C.3       1 UNK         0.0000 
     13 C13         1.0157   52.8330   24.6578 C.3       1 UNK         0.0000 
     14 H14         0.9606   53.8382   24.2389 H         1 UNK         0.0000 
     15 C15         1.7850   51.9460   23.6562 C.3       1 UNK         0.0000 
     16 C16        -1.2322   49.9795   24.9725 C.ar      1 UNK         0.0000 
     17 C17        -0.5489   49.2470   23.9960 C.ar      1 UNK         0.0000 
     18 C18        -1.0856   48.0762   23.4664 C.ar      1 UNK         0.0000 
     19 C19        -2.3263   47.5992   23.9096 C.ar      1 UNK         0.0000 
     20 C20        -3.0179   48.3375   24.8790 C.ar      1 UNK         0.0000 
     21 C21        -2.4797   49.5061   25.4187 C.ar      1 UNK         0.0000 
     22 N22        -3.1711   50.0925   26.4817 N.pl3     1 UNK         0.0000 
     23 S23        -4.1131   51.5633   26.2395 S.o2      1 UNK         0.0000 
     24 O24        -4.8139   51.4166   24.9589 O.2       1 UNK         0.0000 
     25 O25        -3.2268   52.7048   26.4812 O.2       1 UNK         0.0000 
     26 C26        -5.3552   51.5850   27.5457 C.ar      1 UNK         0.0000 
     27 C27        -6.6461   51.9992   27.1979 C.ar      1 UNK         0.0000 
     28 C28        -7.6528   52.0681   28.1576 C.ar      1 UNK         0.0000 
     29 C29        -7.3825   51.7104   29.4757 C.ar      1 UNK         0.0000 
     30 C30        -6.1038   51.2902   29.8339 C.ar      1 UNK         0.0000 
     31 C31        -5.0782   51.2282   28.8834 C.ar      1 UNK         0.0000 
     32 C32        -3.6982   50.7892   29.3544 C.3       1 UNK         0.0000 
     33 F33        -8.8909   52.4852   27.8078 F         1 UNK         0.0000 
     34 C34        -2.8858   46.3056   23.4052 C.2       1 UNK         0.0000 
     35 O35        -3.6951   45.6968   24.1426 O.co2     1 UNK         0.0000 
     36 O36        -2.4823   45.8646   22.3072 O.co2     1 UNK         0.0000 
     37 H37         6.8909   53.4880   28.3676 H         1 UNK         0.0000 
     38 H38         5.8670   54.5944   29.2824 H         1 UNK         0.0000 
     39 H39         5.4997   52.8526   29.2163 H         1 UNK         0.0000 
     40 H40         6.5484   55.1051   26.4302 H         1 UNK         0.0000 
     41 H41         5.2247   55.4609   24.3963 H         1 UNK         0.0000 
     42 H42         2.9791   54.5460   24.1895 H         1 UNK         0.0000 
     43 H43         3.3854   52.8120   28.1194 H         1 UNK         0.0000 
     44 H44         0.1488   52.9985   27.3761 H         1 UNK         0.0000 
     45 H45         1.5288   52.1375   27.9590 H         1 UNK         0.0000 
     46 H46        -0.2308   50.5648   27.4859 H         1 UNK         0.0000 
     47 H47         1.1039   50.2634   26.3627 H         1 UNK         0.0000 
     48 H48        -0.9145   52.2763   23.7782 H         1 UNK         0.0000 
     49 H49        -1.0511   53.1131   25.2834 H         1 UNK         0.0000 
     50 H50         1.2094   51.7846   22.7432 H         1 UNK         0.0000 
     51 H51         2.7225   52.4021   23.3521 H         1 UNK         0.0000 
     52 H52         2.0199   50.9693   24.0794 H         1 UNK         0.0000 
     53 H53         0.4216   49.5635   23.6514 H         1 UNK         0.0000 
     54 H54        -0.5006   47.5372   22.7342 H         1 UNK         0.0000 
     55 H55        -3.9649   47.9736   25.2573 H         1 UNK         0.0000 
     56 H56        -2.5109   50.2491   27.2298 H         1 UNK         0.0000 
     57 H57        -6.8755   52.2813   26.1795 H         1 UNK         0.0000 
     58 H58        -8.1671   51.7583   30.2160 H         1 UNK         0.0000 
     59 H59        -5.9102   51.0070   30.8581 H         1 UNK         0.0000 
     60 H60        -2.9101   51.3892   28.9005 H         1 UNK         0.0000 
     61 H61        -3.5841   50.8967   30.4344 H         1 UNK         0.0000 
     62 H62        -3.5202   49.7395   29.1112 H         1 UNK         0.0000 
@<TRIPOS>BOND
     1    1    2 1    
     2    1   37 1    
     3    1   38 1    
     4    1   39 1    
     5    2    7 ar   
     6    2    3 ar   
     7    3    4 ar   
     8    3   40 1    
     9    4    5 ar   
    10    4   41 1    
    11    5    6 ar   
    12    5   42 1    
    13    6    7 ar   
    14    6    8 1    
    15    7   43 1    
    16    8   13 1    
    17    8    9 1    
    18    9   10 1    
    19    9   44 1    
    20    9   45 1    
    21   10   11 1    
    22   10   46 1    
    23   10   47 1    
    24   11   12 1    
    25   11   16 1    
    26   12   13 1    
    27   12   48 1    
    28   12   49 1    
    29   13   14 1    
    30   13   15 1    
    31   15   50 1    
    32   15   51 1    
    33   15   52 1    
    34   16   21 ar   
    35   16   17 ar   
    36   17   18 ar   
    37   17   53 1    
    38   18   19 ar   
    39   18   54 1    
    40   19   20 ar   
    41   19   34 1    
    42   20   21 ar   
    43   20   55 1    
    44   21   22 1    
    45   22   23 1    
    46   22   56 1    
    47   23   24 2    
    48   23   25 2    
    49   23   26 1    
    50   26   31 ar   
    51   26   27 ar   
    52   27   28 ar   
    53   27   57 1    
    54   28   29 ar   
    55   28   33 1    
    56   29   30 ar   
    57   29   58 1    
    58   30   31 ar   
    59   30   59 1    
    60   31   32 1    
    61   32   60 1    
    62   32   61 1    
    63   32   62 1    
    64   34   35 2    
    65   34   36 1    
@<TRIPOS>SUBSTRUCTURE
     1 UNK         1 GROUP             0       ****    0 ROOT    
