@<TRIPOS>MOLECULE
ZINC62214258_236
58   61    1
SMALL
USER_CHARGES


@<TRIPOS>ATOM
      1 C1         -0.0700   52.3532   30.8327 C.3       1 UNK         0.0000 
      2 N2          1.1998   53.2092   30.6314 N.4       1 UNK         0.0000 
      3 C3          1.0092   54.2447   29.5092 C.3       1 UNK         0.0000 
      4 C4          2.2961   55.0839   29.3965 C.3       1 UNK         0.0000 
      5 N5          3.5035   54.2778   29.1495 N.pl3     1 UNK         0.0000 
      6 C6          3.6801   53.1526   30.0791 C.3       1 UNK         0.0000 
      7 C7          2.4085   52.3061   30.3134 C.3       1 UNK         0.0000 
      8 C8          4.2114   54.3405   27.9591 C.ar      1 UNK         0.0000 
      9 C9          5.6088   54.3717   27.9829 C.ar      1 UNK         0.0000 
     10 C10         6.3340   54.4849   26.7998 C.ar      1 UNK         0.0000 
     11 C11         5.6683   54.5560   25.5755 C.ar      1 UNK         0.0000 
     12 C12         4.2665   54.4960   25.5450 C.ar      1 UNK         0.0000 
     13 C13         3.5473   54.3781   26.7304 C.ar      1 UNK         0.0000 
     14 N14         6.4536   54.7648   24.4272 N.am      1 UNK         0.0000 
     15 C15         6.1371   54.4967   23.1441 C.2       1 UNK         0.0000 
     16 O16         5.1648   53.8214   22.7966 O.2       1 UNK         0.0000 
     17 C17         7.1021   55.0949   22.1078 C.3       1 UNK         0.0000 
     18 N18         6.4987   55.0922   20.7718 N.am      1 UNK         0.0000 
     19 C19         6.3549   56.1683   19.9880 C.2       1 UNK         0.0000 
     20 O20         6.7044   57.2967   20.3396 O.2       1 UNK         0.0000 
     21 C21         5.7588   55.8923   18.5918 C.3       1 UNK         0.0000 
     22 H22         5.2344   54.9411   18.4926 H         1 UNK         0.0000 
     23 C23         5.1883   57.0963   17.8510 C.3       1 UNK         0.0000 
     24 C24         6.4728   56.4611   17.3712 C.3       1 UNK         0.0000 
     25 H25         6.3686   55.8558   16.4695 H         1 UNK         0.0000 
     26 C26         7.8089   57.1939   17.3995 C.ar      1 UNK         0.0000 
     27 C27         8.9758   56.4822   17.6864 C.ar      1 UNK         0.0000 
     28 C28        10.2059   57.1352   17.6875 C.ar      1 UNK         0.0000 
     29 C29        10.2625   58.4985   17.4050 C.ar      1 UNK         0.0000 
     30 C30         9.1013   59.2137   17.1145 C.ar      1 UNK         0.0000 
     31 C31         7.8725   58.5599   17.1079 C.ar      1 UNK         0.0000 
     32 H32        -0.2717   51.7829   29.9228 H         1 UNK         0.0000 
     33 H33         0.1210   51.6969   31.6801 H         1 UNK         0.0000 
     34 H34        -0.8937   53.0215   31.0758 H         1 UNK         0.0000 
     35 H35         0.1815   54.8773   29.8302 H         1 UNK         0.0000 
     36 H36         0.7541   53.7137   28.5896 H         1 UNK         0.0000 
     37 H37         2.1722   55.8406   28.6188 H         1 UNK         0.0000 
     38 H38         2.4702   55.6276   30.3253 H         1 UNK         0.0000 
     39 H39         4.0133   53.6098   31.0076 H         1 UNK         0.0000 
     40 H40         4.4908   52.4978   29.7526 H         1 UNK         0.0000 
     41 H41         2.5338   51.6964   31.2080 H         1 UNK         0.0000 
     42 H42         2.1450   51.6952   29.4465 H         1 UNK         0.0000 
     43 H43         6.1399   54.3417   28.9236 H         1 UNK         0.0000 
     44 H44         7.4118   54.5203   26.8511 H         1 UNK         0.0000 
     45 H45         3.7190   54.5657   24.6166 H         1 UNK         0.0000 
     46 H46         2.4687   54.3379   26.6898 H         1 UNK         0.0000 
     47 H47         7.3489   55.2057   24.5731 H         1 UNK         0.0000 
     48 H48         7.3973   56.0976   22.4146 H         1 UNK         0.0000 
     49 H49         8.0108   54.4967   22.0815 H         1 UNK         0.0000 
     50 H50         6.1386   54.2042   20.4520 H         1 UNK         0.0000 
     51 H51         4.2839   56.9685   17.2547 H         1 UNK         0.0000 
     52 H52         5.2495   58.0966   18.2758 H         1 UNK         0.0000 
     53 H53         8.9292   55.4265   17.9085 H         1 UNK         0.0000 
     54 H54        11.1087   56.5859   17.9166 H         1 UNK         0.0000 
     55 H55        11.2174   59.0028   17.4080 H         1 UNK         0.0000 
     56 H56         9.1492   60.2680   16.8862 H         1 UNK         0.0000 
     57 H57         6.9747   59.1180   16.8797 H         1 UNK         0.0000 
     58 H58         1.3798   53.7121   31.4903 H         1 UNK         0.0000 
@<TRIPOS>BOND
     1    1    2 1    
     2    1   32 1    
     3    1   33 1    
     4    1   34 1    
     5    2    7 1    
     6    2    3 1    
     7    2   58 1    
     8    3    4 1    
     9    3   35 1    
    10    3   36 1    
    11    4    5 1    
    12    4   37 1    
    13    4   38 1    
    14    5    6 1    
    15    5    8 1    
    16    6    7 1    
    17    6   39 1    
    18    6   40 1    
    19    7   41 1    
    20    7   42 1    
    21    8   13 ar   
    22    8    9 ar   
    23    9   10 ar   
    24    9   43 1    
    25   10   11 ar   
    26   10   44 1    
    27   11   12 ar   
    28   11   14 1    
    29   12   13 ar   
    30   12   45 1    
    31   13   46 1    
    32   14   15 am   BACKBONE|DICT|INTERRES
    33   14   47 1    
    34   15   16 2    
    35   15   17 1    
    36   17   18 1    
    37   17   48 1    
    38   17   49 1    
    39   18   19 am   BACKBONE|DICT|INTERRES
    40   18   50 1    
    41   19   20 2    
    42   19   21 1    
    43   21   22 1    
    44   21   24 1    
    45   21   23 1    
    46   23   24 1    
    47   23   51 1    
    48   23   52 1    
    49   24   25 1    
    50   24   26 1    
    51   26   31 ar   
    52   26   27 ar   
    53   27   28 ar   
    54   27   53 1    
    55   28   29 ar   
    56   28   54 1    
    57   29   30 ar   
    58   29   55 1    
    59   30   31 ar   
    60   30   56 1    
    61   31   57 1    
@<TRIPOS>SUBSTRUCTURE
     1 UNK         1 GROUP             0       ****    0 ROOT    
