@<TRIPOS>MOLECULE
ZINC35545040_5340
65   69    1
SMALL
USER_CHARGES


@<TRIPOS>ATOM
      1 C1          3.6724   52.0978   31.6839 C.3       1 UNK         0.0000 
      2 O2          3.9042   52.9636   30.5851 O.3       1 UNK         0.0000 
      3 C3          3.1371   52.8495   29.4437 C.ar      1 UNK         0.0000 
      4 C4          1.9062   52.1791   29.4043 C.ar      1 UNK         0.0000 
      5 C5          1.1898   52.0893   28.2158 C.ar      1 UNK         0.0000 
      6 C6          1.6780   52.6777   27.0512 C.ar      1 UNK         0.0000 
      7 C7          2.9082   53.3508   27.0898 C.ar      1 UNK         0.0000 
      8 C8          3.6439   53.4435   28.2811 C.ar      1 UNK         0.0000 
      9 O9          4.8707   54.0756   28.3771 O.3       1 UNK         0.0000 
     10 C10         5.5226   54.5298   27.1937 C.3       1 UNK         0.0000 
     11 N11         0.8976   52.4948   25.8951 N.am      1 UNK         0.0000 
     12 C12         1.0722   52.9676   24.6440 C.2       1 UNK         0.0000 
     13 O13         1.9502   53.7724   24.3261 O.2       1 UNK         0.0000 
     14 C14         0.0740   52.4914   23.5543 C.3       1 UNK         0.0000 
     15 H15        -0.6554   53.3002   23.5389 H         1 UNK         0.0000 
     16 C16        -0.6446   51.1665   23.8934 C.3       1 UNK         0.0000 
     17 C17        -1.5679   50.7772   22.7477 C.ar      1 UNK         0.0000 
     18 C18        -2.6902   49.9870   23.0160 C.ar      1 UNK         0.0000 
     19 C19        -3.5541   49.5750   21.9987 C.ar      1 UNK         0.0000 
     20 C20        -3.2982   49.9815   20.6891 C.ar      1 UNK         0.0000 
     21 C21        -2.1919   50.7777   20.4086 C.ar      1 UNK         0.0000 
     22 C22        -1.2917   51.1671   21.4120 C.ar      1 UNK         0.0000 
     23 N23        -0.2558   52.0716   21.1156 N.pl3     1 UNK         0.0000 
     24 C24         0.7531   52.3927   22.1586 C.3       1 UNK         0.0000 
     25 H25         1.0888   53.4004   21.9033 H         1 UNK         0.0000 
     26 C26         1.9352   51.3711   22.1117 C.3       1 UNK         0.0000 
     27 N27         2.6092   51.4540   20.8044 N.pl3     1 UNK         0.0000 
     28 C28         1.6260   51.0518   19.7719 C.3       1 UNK         0.0000 
     29 C29         0.4256   52.0294   19.8028 C.3       1 UNK         0.0000 
     30 C30         3.6054   52.4509   20.5201 C.ar      1 UNK         0.0000 
     31 C31         4.0466   53.3920   21.4674 C.ar      1 UNK         0.0000 
     32 C32         4.9972   54.3533   21.1143 C.ar      1 UNK         0.0000 
     33 C33         5.5155   54.3649   19.8176 C.ar      1 UNK         0.0000 
     34 C34         5.0829   53.4041   18.9041 C.ar      1 UNK         0.0000 
     35 N35         4.1574   52.5002   19.2865 N.pl3     1 UNK         0.0000 
     36 C36        -4.7621   48.6931   22.3139 C.3       1 UNK         0.0000 
     37 F37        -4.5232   47.9046   23.3659 F         1 UNK         0.0000 
     38 F38        -5.8058   49.4757   22.5928 F         1 UNK         0.0000 
     39 F39        -5.0786   47.9140   21.2772 F         1 UNK         0.0000 
     40 H40         4.3511   52.3947   32.4791 H         1 UNK         0.0000 
     41 H41         3.9044   51.0687   31.4252 H         1 UNK         0.0000 
     42 H42         2.6594   52.1630   32.0807 H         1 UNK         0.0000 
     43 H43         1.4793   51.7230   30.2844 H         1 UNK         0.0000 
     44 H44         0.2518   51.5499   28.2140 H         1 UNK         0.0000 
     45 H45         3.3201   53.7869   26.1997 H         1 UNK         0.0000 
     46 H46         6.4866   54.9692   27.4602 H         1 UNK         0.0000 
     47 H47         5.7141   53.7051   26.5041 H         1 UNK         0.0000 
     48 H48         4.9411   55.2972   26.6826 H         1 UNK         0.0000 
     49 H49         0.1014   51.8927   26.0384 H         1 UNK         0.0000 
     50 H50         0.0723   50.3552   24.0251 H         1 UNK         0.0000 
     51 H51        -1.2330   51.2576   24.8070 H         1 UNK         0.0000 
     52 H52        -2.8872   49.6808   24.0332 H         1 UNK         0.0000 
     53 H53        -3.9598   49.6954   19.8857 H         1 UNK         0.0000 
     54 H54        -2.0698   51.0993   19.3873 H         1 UNK         0.0000 
     55 H55         2.6739   51.5466   22.8912 H         1 UNK         0.0000 
     56 H56         1.5929   50.3445   22.2541 H         1 UNK         0.0000 
     57 H57         1.3154   50.0136   19.9102 H         1 UNK         0.0000 
     58 H58         2.0954   51.0851   18.7890 H         1 UNK         0.0000 
     59 H59        -0.2377   51.8946   18.9527 H         1 UNK         0.0000 
     60 H60         0.8322   53.0317   19.6533 H         1 UNK         0.0000 
     61 H61         3.6501   53.4167   22.4708 H         1 UNK         0.0000 
     62 H62         5.3230   55.0806   21.8396 H         1 UNK         0.0000 
     63 H63         6.2500   55.1023   19.5318 H         1 UNK         0.0000 
     64 H64         5.4433   53.3030   17.8900 H         1 UNK         0.0000 
     65 H65         3.9253   51.7599   18.6312 H         1 UNK         0.0000 
@<TRIPOS>BOND
     1    1    2 1    
     2    1   40 1    
     3    1   41 1    
     4    1   42 1    
     5    2    3 1    
     6    3    8 ar   
     7    3    4 ar   
     8    4    5 ar   
     9    4   43 1    
    10    5    6 ar   
    11    5   44 1    
    12    6    7 ar   
    13    6   11 1    
    14    7    8 ar   
    15    7   45 1    
    16    8    9 1    
    17    9   10 1    
    18   10   46 1    
    19   10   47 1    
    20   10   48 1    
    21   11   12 am   BACKBONE|DICT|INTERRES
    22   11   49 1    
    23   12   13 2    
    24   12   14 1    
    25   14   15 1    
    26   14   24 1    
    27   14   16 1    
    28   16   17 1    
    29   16   50 1    
    30   16   51 1    
    31   17   22 ar   
    32   17   18 ar   
    33   18   19 ar   
    34   18   52 1    
    35   19   20 ar   
    36   19   36 1    
    37   20   21 ar   
    38   20   53 1    
    39   21   22 ar   
    40   21   54 1    
    41   22   23 1    
    42   23   29 1    
    43   23   24 1    
    44   24   25 1    
    45   24   26 1    
    46   26   27 1    
    47   26   55 1    
    48   26   56 1    
    49   27   28 1    
    50   27   30 1    
    51   28   29 1    
    52   28   57 1    
    53   28   58 1    
    54   29   59 1    
    55   29   60 1    
    56   30   35 ar   
    57   30   31 ar   
    58   31   32 ar   
    59   31   61 1    
    60   32   33 ar   
    61   32   62 1    
    62   33   34 ar   
    63   33   63 1    
    64   34   35 ar   
    65   34   64 1    
    66   35   65 1    
    67   36   37 1    
    68   36   38 1    
    69   36   39 1    
@<TRIPOS>SUBSTRUCTURE
     1 UNK         1 GROUP             0       ****    0 ROOT    
