@<TRIPOS>MOLECULE
ZINC08411495_2812
53   55    1
SMALL
USER_CHARGES


@<TRIPOS>ATOM
      1 C1          2.4654   51.4445   19.1555 C.3       1 UNK         0.0000 
      2 C2          1.5814   50.9155   20.2987 C.3       1 UNK         0.0000 
      3 C3          0.0936   51.1055   19.9196 C.3       1 UNK         0.0000 
      4 C4          1.9053   49.4248   20.5562 C.3       1 UNK         0.0000 
      5 O5          1.9373   51.7342   21.4254 O.3       1 UNK         0.0000 
      6 C6          1.3958   51.6387   22.6787 C.2       1 UNK         0.0000 
      7 O7          0.5760   50.7739   22.9963 O.2       1 UNK         0.0000 
      8 N8          1.8868   52.6399   23.5397 N.am      1 UNK         0.0000 
      9 C9          2.7890   53.6940   23.0486 C.3       1 UNK         0.0000 
     10 C10         3.5905   54.2236   24.2253 C.2       1 UNK         0.0000 
     11 C11         3.3709   53.9774   25.5391 C.2       1 UNK         0.0000 
     12 C12         2.1924   53.0891   25.9944 C.3       1 UNK         0.0000 
     13 H13         2.6185   52.1250   26.2436 H         1 UNK         0.0000 
     14 C14         1.1939   52.8499   24.8195 C.3       1 UNK         0.0000 
     15 C15         1.5724   53.6189   27.3478 C.3       1 UNK         0.0000 
     16 H16         1.1072   54.5750   27.1103 H         1 UNK         0.0000 
     17 C17         2.7024   53.9212   28.4191 C.3       1 UNK         0.0000 
     18 C18         4.0121   54.4891   27.8502 C.2       1 UNK         0.0000 
     19 C19         4.3010   54.4960   26.5345 C.2       1 UNK         0.0000 
     20 C20         5.6030   54.9424   26.1221 C.1       1 UNK         0.0000 
     21 N21         6.6648   55.2967   25.8212 N.1       1 UNK         0.0000 
     22 N22         4.9272   54.8934   28.8062 N.pl3     1 UNK         0.0000 
     23 C23         3.1466   52.7029   29.1299 C.1       1 UNK         0.0000 
     24 N24         3.5039   51.7559   29.6882 N.1       1 UNK         0.0000 
     25 C25         2.1395   54.9117   29.3580 C.1       1 UNK         0.0000 
     26 N26         1.6936   55.6939   30.0821 N.1       1 UNK         0.0000 
     27 C27         0.3379   52.8221   27.9109 C.ar      1 UNK         0.0000 
     28 C28         0.2299   52.4458   29.2661 C.ar      1 UNK         0.0000 
     29 C29        -0.8456   51.6967   29.7409 C.ar      1 UNK         0.0000 
     30 C30        -1.8543   51.2967   28.8746 C.ar      1 UNK         0.0000 
     31 C31        -1.8146   51.6969   27.5468 C.ar      1 UNK         0.0000 
     32 C32        -0.7641   52.4948   27.0964 C.ar      1 UNK         0.0000 
     33 Br33       -3.2307   51.2285   26.3640 Br        1 UNK         0.0000 
     34 H34         2.3026   50.8940   18.2280 H         1 UNK         0.0000 
     35 H35         3.5239   51.3541   19.3990 H         1 UNK         0.0000 
     36 H36         2.2723   52.4986   18.9507 H         1 UNK         0.0000 
     37 H37        -0.5775   50.7215   20.6877 H         1 UNK         0.0000 
     38 H38        -0.1448   52.1605   19.7809 H         1 UNK         0.0000 
     39 H39        -0.1467   50.5865   18.9918 H         1 UNK         0.0000 
     40 H40         1.2427   48.9818   21.2992 H         1 UNK         0.0000 
     41 H41         1.8126   48.8342   19.6449 H         1 UNK         0.0000 
     42 H42         2.9252   49.3022   20.9228 H         1 UNK         0.0000 
     43 H43         3.4923   53.3096   22.3084 H         1 UNK         0.0000 
     44 H44         2.2316   54.4970   22.5653 H         1 UNK         0.0000 
     45 H45         4.4290   54.8508   23.9521 H         1 UNK         0.0000 
     46 H46         0.4831   53.6667   24.6865 H         1 UNK         0.0000 
     47 H47         0.6311   51.9468   25.0634 H         1 UNK         0.0000 
     48 H48         4.7339   54.8247   29.7947 H         1 UNK         0.0000 
     49 H49         5.8392   55.2503   28.5468 H         1 UNK         0.0000 
     50 H50         0.9547   52.7203   30.0104 H         1 UNK         0.0000 
     51 H51        -0.8964   51.4075   30.7828 H         1 UNK         0.0000 
     52 H52        -2.6639   50.6801   29.2404 H         1 UNK         0.0000 
     53 H53        -0.8601   52.8577   26.0920 H         1 UNK         0.0000 
@<TRIPOS>BOND
     1    1    2 1    
     2    1   34 1    
     3    1   35 1    
     4    1   36 1    
     5    2    3 1    
     6    2    4 1    
     7    2    5 1    
     8    3   37 1    
     9    3   38 1    
    10    3   39 1    
    11    4   40 1    
    12    4   41 1    
    13    4   42 1    
    14    5    6 1    
    15    6    7 2    
    16    6    8 am   BACKBONE|DICT|INTERRES
    17    8   14 1    
    18    8    9 1    
    19    9   10 1    
    20    9   43 1    
    21    9   44 1    
    22   10   11 2    
    23   10   45 1    
    24   11   19 1    
    25   11   12 1    
    26   12   13 1    
    27   12   14 1    
    28   12   15 1    
    29   14   46 1    
    30   14   47 1    
    31   15   16 1    
    32   15   17 1    
    33   15   27 1    
    34   17   18 1    
    35   17   23 1    
    36   17   25 1    
    37   18   19 2    
    38   18   22 1    
    39   19   20 1    
    40   20   21 3    
    41   22   48 1    
    42   22   49 1    
    43   23   24 3    
    44   25   26 3    
    45   27   32 ar   
    46   27   28 ar   
    47   28   29 ar   
    48   28   50 1    
    49   29   30 ar   
    50   29   51 1    
    51   30   31 ar   
    52   30   52 1    
    53   31   32 ar   
    54   31   33 1    
    55   32   53 1    
@<TRIPOS>SUBSTRUCTURE
     1 UNK         1 GROUP             0       ****    0 ROOT    
