@<TRIPOS>MOLECULE
ZINC36648024_1102
66   69    1
SMALL
USER_CHARGES


@<TRIPOS>ATOM
      1 C1          7.2694   53.3681   27.8000 C.3       1 UNK         0.0000 
      2 C2          5.8170   53.6377   28.2099 C.3       1 UNK         0.0000 
      3 C3          5.2020   54.9006   27.5688 C.3       1 UNK         0.0000 
      4 N4          4.7198   54.7898   26.0937 N.4       1 UNK         0.0000 
      5 C5          3.7949   53.5762   25.9210 C.3       1 UNK         0.0000 
      6 C6          3.1326   53.5880   24.5284 C.3       1 UNK         0.0000 
      7 C7          4.1295   53.9066   23.4041 C.2       1 UNK         0.0000 
      8 C8          5.3604   54.4963   23.7121 C.2       1 UNK         0.0000 
      9 S9          6.3039   54.8410   22.3191 S.3       1 UNK         0.0000 
     10 C10         5.1059   54.0925   21.2923 C.2       1 UNK         0.0000 
     11 C11         3.9900   53.6021   22.0113 C.2       1 UNK         0.0000 
     12 C12         2.8614   52.8967   21.3611 C.2       1 UNK         0.0000 
     13 O13         2.9014   52.4833   20.1995 O.2       1 UNK         0.0000 
     14 O14         1.7820   52.7904   22.1622 O.3       1 UNK         0.0000 
     15 C15         0.5812   52.1911   21.6994 C.3       1 UNK         0.0000 
     16 C16        -0.3928   52.0618   22.8753 C.3       1 UNK         0.0000 
     17 N17         5.2635   54.0125   19.9049 N.am      1 UNK         0.0000 
     18 C18         6.3062   54.4068   19.1403 C.2       1 UNK         0.0000 
     19 O19         7.3499   54.8976   19.5742 O.2       1 UNK         0.0000 
     20 C20         6.1474   54.2265   17.6162 C.3       1 UNK         0.0000 
     21 H21         5.1091   53.9541   17.4248 H         1 UNK         0.0000 
     22 C22         7.0522   53.0339   17.2002 C.3       1 UNK         0.0000 
     23 C23         6.9957   52.8018   15.6808 C.3       1 UNK         0.0000 
     24 C24         7.3576   54.0836   14.9118 C.3       1 UNK         0.0000 
     25 C25         6.4774   55.2754   15.3298 C.3       1 UNK         0.0000 
     26 N26         6.4371   55.4705   16.8075 N.pl3     1 UNK         0.0000 
     27 S27         5.9272   57.1142   17.3258 S.o2      1 UNK         0.0000 
     28 O28         5.8878   57.2335   18.7869 O.2       1 UNK         0.0000 
     29 O29         6.6478   58.0944   16.5069 O.2       1 UNK         0.0000 
     30 C30         4.2041   57.1434   16.7733 C.2       1 UNK         0.0000 
     31 C31         3.2241   56.2098   17.0870 C.2       1 UNK         0.0000 
     32 C32         1.9958   56.4970   16.4827 C.2       1 UNK         0.0000 
     33 C33         2.0322   57.6579   15.7236 C.2       1 UNK         0.0000 
     34 S34         3.6004   58.3939   15.7323 S.3       1 UNK         0.0000 
     35 C35         5.8986   54.8065   25.0916 C.3       1 UNK         0.0000 
     36 H36         7.7622   52.6851   28.4816 H         1 UNK         0.0000 
     37 H37         7.8598   54.2856   27.7884 H         1 UNK         0.0000 
     38 H38         7.3521   52.8914   26.8318 H         1 UNK         0.0000 
     39 H39         5.2048   52.7455   28.0867 H         1 UNK         0.0000 
     40 H40         5.8125   53.8213   29.2814 H         1 UNK         0.0000 
     41 H41         4.3126   55.2249   28.1122 H         1 UNK         0.0000 
     42 H42         5.9333   55.6969   27.5963 H         1 UNK         0.0000 
     43 H43         4.4453   52.7286   26.0825 H         1 UNK         0.0000 
     44 H44         3.0367   53.6206   26.7058 H         1 UNK         0.0000 
     45 H45         2.6591   52.6157   24.3950 H         1 UNK         0.0000 
     46 H46         2.3299   54.3254   24.5033 H         1 UNK         0.0000 
     47 H47         0.1470   52.8074   20.9104 H         1 UNK         0.0000 
     48 H48         0.7846   51.2061   21.2756 H         1 UNK         0.0000 
     49 H49        -1.3435   51.6419   22.5464 H         1 UNK         0.0000 
     50 H50         0.0112   51.4035   23.6450 H         1 UNK         0.0000 
     51 H51        -0.5950   53.0277   23.3390 H         1 UNK         0.0000 
     52 H52         4.4959   53.5517   19.4326 H         1 UNK         0.0000 
     53 H53         8.1025   53.2313   17.4296 H         1 UNK         0.0000 
     54 H54         6.7105   52.0998   17.6493 H         1 UNK         0.0000 
     55 H55         7.6751   51.9952   15.4014 H         1 UNK         0.0000 
     56 H56         5.9963   52.4682   15.3968 H         1 UNK         0.0000 
     57 H57         8.4062   54.3323   15.0821 H         1 UNK         0.0000 
     58 H58         7.2629   53.9124   13.8387 H         1 UNK         0.0000 
     59 H59         6.8103   56.1910   14.8396 H         1 UNK         0.0000 
     60 H60         5.4662   55.0241   15.0067 H         1 UNK         0.0000 
     61 H61         3.3803   55.3600   17.7311 H         1 UNK         0.0000 
     62 H62         1.1146   55.8869   16.6115 H         1 UNK         0.0000 
     63 H63         1.2277   58.1161   15.1683 H         1 UNK         0.0000 
     64 H64         6.3423   55.8014   25.1669 H         1 UNK         0.0000 
     65 H65         6.6212   54.0481   25.3543 H         1 UNK         0.0000 
     66 H66         4.1573   55.6095   25.9075 H         1 UNK         0.0000 
@<TRIPOS>BOND
     1    1    2 1    
     2    1   36 1    
     3    1   37 1    
     4    1   38 1    
     5    2    3 1    
     6    2   39 1    
     7    2   40 1    
     8    3    4 1    
     9    3   41 1    
    10    3   42 1    
    11    4   35 1    
    12    4    5 1    
    13    4   66 1    
    14    5    6 1    
    15    5   43 1    
    16    5   44 1    
    17    6    7 1    
    18    6   45 1    
    19    6   46 1    
    20    7   11 1    
    21    7    8 2    
    22    8    9 1    
    23    8   35 1    
    24    9   10 1    
    25   10   11 2    
    26   10   17 am   BACKBONE|DICT|INTERRES
    27   11   12 1    
    28   12   13 2    
    29   12   14 1    
    30   14   15 1    
    31   15   16 1    
    32   15   47 1    
    33   15   48 1    
    34   16   49 1    
    35   16   50 1    
    36   16   51 1    
    37   17   18 am   BACKBONE|DICT|INTERRES
    38   17   52 1    
    39   18   19 2    
    40   18   20 1    
    41   20   21 1    
    42   20   26 1    
    43   20   22 1    
    44   22   23 1    
    45   22   53 1    
    46   22   54 1    
    47   23   24 1    
    48   23   55 1    
    49   23   56 1    
    50   24   25 1    
    51   24   57 1    
    52   24   58 1    
    53   25   26 1    
    54   25   59 1    
    55   25   60 1    
    56   26   27 1    
    57   27   28 2    
    58   27   29 2    
    59   27   30 1    
    60   30   34 1    
    61   30   31 2    
    62   31   32 1    
    63   31   61 1    
    64   32   33 2    
    65   32   62 1    
    66   33   34 1    
    67   33   63 1    
    68   35   64 1    
    69   35   65 1    
@<TRIPOS>SUBSTRUCTURE
     1 UNK         1 GROUP             0       ****    0 ROOT    
