@<TRIPOS>MOLECULE
ZINC63588612_2174
57   60    1
SMALL
USER_CHARGES


@<TRIPOS>ATOM
      1 C1         -2.1590   51.5525   20.1912 C.3       1 UNK         0.0000 
      2 C2         -0.6878   51.2421   20.3842 C.ar      1 UNK         0.0000 
      3 C3         -0.0160   50.4492   19.4515 C.ar      1 UNK         0.0000 
      4 C4          1.3416   50.1666   19.6129 C.ar      1 UNK         0.0000 
      5 C5          2.0251   50.6752   20.7213 C.ar      1 UNK         0.0000 
      6 C6          1.3639   51.4586   21.6712 C.ar      1 UNK         0.0000 
      7 C7          0.0043   51.7431   21.4899 C.ar      1 UNK         0.0000 
      8 N8          2.1033   51.9404   22.7620 N.pl3     1 UNK         0.0000 
      9 C9          1.6947   52.3946   24.0566 C.2       1 UNK         0.0000 
     10 N10         0.6191   51.5940   24.5547 N.pl3     1 UNK         0.0000 
     11 C11        -0.0681   51.8647   25.8158 C.3       1 UNK         0.0000 
     12 C12         0.8140   51.5489   27.0353 C.3       1 UNK         0.0000 
     13 C13         0.3498   52.1866   28.3258 C.2       1 UNK         0.0000 
     14 C14         0.6637   53.3678   28.8865 C.2       1 UNK         0.0000 
     15 C15         1.4571   54.4975   28.3808 C.2       1 UNK         0.0000 
     16 C16         1.6763   55.5878   29.1432 C.2       1 UNK         0.0000 
     17 C17         1.1044   55.6056   30.4820 C.2       1 UNK         0.0000 
     18 C18         0.3772   54.5628   30.9673 C.2       1 UNK         0.0000 
     19 C19         0.1495   53.4287   30.1826 C.2       1 UNK         0.0000 
     20 N20        -0.4944   52.3250   30.4819 N.pl3     1 UNK         0.0000 
     21 C21        -0.5221   51.4440   29.3062 C.3       1 UNK         0.0000 
     22 N22         2.2420   53.3391   24.7405 N.am      1 UNK         0.0000 
     23 C23         3.3704   54.0199   24.2865 C.2       1 UNK         0.0000 
     24 O24         3.4433   54.4966   23.1512 O.2       1 UNK         0.0000 
     25 C25         4.4965   54.2082   25.2875 C.ar      1 UNK         0.0000 
     26 C26         4.4525   53.6980   26.5955 C.ar      1 UNK         0.0000 
     27 C27         5.5140   53.9097   27.4748 C.ar      1 UNK         0.0000 
     28 C28         6.6146   54.6292   27.0204 C.ar      1 UNK         0.0000 
     29 N29         6.7022   55.1208   25.7594 N.ar      1 UNK         0.0000 
     30 C30         5.6606   54.8984   24.9179 C.ar      1 UNK         0.0000 
     31 C31         2.0634   49.3022   18.5964 C.3       1 UNK         0.0000 
     32 H32        -2.7194   50.6263   20.0627 H         1 UNK         0.0000 
     33 H33        -2.5811   52.0855   21.0437 H         1 UNK         0.0000 
     34 H34        -2.3000   52.1448   19.2866 H         1 UNK         0.0000 
     35 H35        -0.5471   50.0547   18.5964 H         1 UNK         0.0000 
     36 H36         3.0755   50.4522   20.8412 H         1 UNK         0.0000 
     37 H37        -0.5136   52.3709   22.1999 H         1 UNK         0.0000 
     38 H38         0.0993   51.0460   23.8825 H         1 UNK         0.0000 
     39 H39        -0.4027   52.8971   25.8213 H         1 UNK         0.0000 
     40 H40        -0.9693   51.2509   25.8626 H         1 UNK         0.0000 
     41 H41         0.8994   50.4702   27.1717 H         1 UNK         0.0000 
     42 H42         1.8311   51.8967   26.8826 H         1 UNK         0.0000 
     43 H43         1.8514   54.4976   27.3752 H         1 UNK         0.0000 
     44 H44         2.2417   56.4289   28.7687 H         1 UNK         0.0000 
     45 H45         1.2695   56.4710   31.1105 H         1 UNK         0.0000 
     46 H46        -0.0116   54.6212   31.9742 H         1 UNK         0.0000 
     47 H47        -1.5559   51.3012   28.9889 H         1 UNK         0.0000 
     48 H48        -0.0973   50.4969   29.5953 H         1 UNK         0.0000 
     49 H49         3.0221   52.2612   22.4889 H         1 UNK         0.0000 
     50 H50         3.6151   53.1193   26.9440 H         1 UNK         0.0000 
     51 H51         5.4864   53.5156   28.4811 H         1 UNK         0.0000 
     52 H52         7.4483   54.8202   27.6788 H         1 UNK         0.0000 
     53 H53         5.7827   55.2988   23.9233 H         1 UNK         0.0000 
     54 H54         1.4347   48.4665   18.2885 H         1 UNK         0.0000 
     55 H55         2.3037   49.8857   17.7063 H         1 UNK         0.0000 
     56 H56         2.9841   48.8761   18.9987 H         1 UNK         0.0000 
     57 H57        -0.9275   52.1015   31.3856 H         1 UNK         0.0000 
@<TRIPOS>BOND
     1    1    2 1    
     2    1   32 1    
     3    1   33 1    
     4    1   34 1    
     5    2    7 ar   
     6    2    3 ar   
     7    3    4 ar   
     8    3   35 1    
     9    4    5 ar   
    10    4   31 1    
    11    5    6 ar   
    12    5   36 1    
    13    6    7 ar   
    14    6    8 1    
    15    7   37 1    
    16    8   49 1    
    17    8    9 1    
    18    9   10 1    
    19    9   22 2    
    20   10   11 1    
    21   10   38 1    
    22   11   12 1    
    23   11   39 1    
    24   11   40 1    
    25   12   13 1    
    26   12   41 1    
    27   12   42 1    
    28   13   21 1    
    29   13   14 2    
    30   14   19 1    
    31   14   15 1    
    32   15   16 2    
    33   15   43 1    
    34   16   17 1    
    35   16   44 1    
    36   17   18 2    
    37   17   45 1    
    38   18   19 1    
    39   18   46 1    
    40   19   20 2    
    41   20   21 1    
    42   20   57 1    
    43   21   47 1    
    44   21   48 1    
    45   22   23 am   BACKBONE|DICT|INTERRES
    46   23   24 2    
    47   23   25 1    
    48   25   30 ar   
    49   25   26 ar   
    50   26   27 ar   
    51   26   50 1    
    52   27   28 ar   
    53   27   51 1    
    54   28   29 ar   
    55   28   52 1    
    56   29   30 ar   
    57   30   53 1    
    58   31   54 1    
    59   31   55 1    
    60   31   56 1    
@<TRIPOS>SUBSTRUCTURE
     1 UNK         1 GROUP             0       ****    0 ROOT    
