@<TRIPOS>MOLECULE
ZINC09135601_107
61   64    1
SMALL
USER_CHARGES


@<TRIPOS>ATOM
      1 C1         -0.9154   51.5276   25.1382 C.3       1 UNK         0.0000 
      2 N2         -0.3075   51.1539   23.8581 N.pl3     1 UNK         0.0000 
      3 C3         -0.4718   49.7020   23.6959 C.3       1 UNK         0.0000 
      4 C4          0.0468   49.2139   22.3357 C.3       1 UNK         0.0000 
      5 C5          1.5232   49.5938   22.1776 C.3       1 UNK         0.0000 
      6 C6          1.7064   51.0852   22.4520 C.ar      1 UNK         0.0000 
      7 C7          0.8170   51.7879   23.3054 C.ar      1 UNK         0.0000 
      8 C8          1.0043   53.1644   23.4882 C.ar      1 UNK         0.0000 
      9 C9          2.0617   53.8318   22.8825 C.ar      1 UNK         0.0000 
     10 C10         2.9804   53.1388   22.0933 C.ar      1 UNK         0.0000 
     11 C11         2.7822   51.7717   21.8771 C.ar      1 UNK         0.0000 
     12 C12         4.1949   53.8925   21.5277 C.3       1 UNK         0.0000 
     13 H13         3.8535   54.8963   21.2814 H         1 UNK         0.0000 
     14 C14         5.3775   53.9946   22.5472 C.3       1 UNK         0.0000 
     15 N15         4.9376   54.0966   23.9435 N.am      1 UNK         0.0000 
     16 C16         5.6775   54.4970   25.0038 C.2       1 UNK         0.0000 
     17 O17         6.8386   54.8910   24.8819 O.2       1 UNK         0.0000 
     18 C18         5.0066   54.4548   26.3530 C.2       1 UNK         0.0000 
     19 O19         5.5826   54.8967   27.3487 O.2       1 UNK         0.0000 
     20 N20         3.7690   53.8939   26.3939 N.am      1 UNK         0.0000 
     21 C21         2.8461   53.8900   27.4542 C.ar      1 UNK         0.0000 
     22 C22         1.8848   52.8734   27.4576 C.ar      1 UNK         0.0000 
     23 C23         0.9031   52.8311   28.4497 C.ar      1 UNK         0.0000 
     24 C24         0.8587   53.8226   29.4286 C.ar      1 UNK         0.0000 
     25 C25         1.7957   54.8552   29.4196 C.ar      1 UNK         0.0000 
     26 C26         2.7961   54.8825   28.4474 C.ar      1 UNK         0.0000 
     27 F27         1.7324   55.8395   30.3453 F         1 UNK         0.0000 
     28 F28        -0.0956   53.7840   30.3838 F         1 UNK         0.0000 
     29 C29         3.6435   53.3328   19.0315 C.3       1 UNK         0.0000 
     30 C30         4.4260   53.2967   17.7170 C.3       1 UNK         0.0000 
     31 C31         5.8606   53.6952   18.0598 C.3       1 UNK         0.0000 
     32 C32         5.8144   54.2087   19.4962 C.3       1 UNK         0.0000 
     33 H33        -0.3550   51.1036   25.9759 H         1 UNK         0.0000 
     34 H34        -0.9658   52.6080   25.2809 H         1 UNK         0.0000 
     35 H35        -1.9440   51.1651   25.2047 H         1 UNK         0.0000 
     36 H36         0.1619   49.2522   24.4649 H         1 UNK         0.0000 
     37 H37        -1.4659   49.3402   23.9653 H         1 UNK         0.0000 
     38 H38        -0.0958   48.1378   22.2467 H         1 UNK         0.0000 
     39 H39        -0.5458   49.6595   21.5346 H         1 UNK         0.0000 
     40 H40         1.8781   49.3304   21.1794 H         1 UNK         0.0000 
     41 H41         2.1310   49.0257   22.8816 H         1 UNK         0.0000 
     42 H42         0.3169   53.7461   24.0824 H         1 UNK         0.0000 
     43 H43         2.1775   54.8933   23.0492 H         1 UNK         0.0000 
     44 H44         3.4800   51.2193   21.2638 H         1 UNK         0.0000 
     45 H45         6.0195   54.8439   22.2987 H         1 UNK         0.0000 
     46 H46         5.9971   53.0978   22.4821 H         1 UNK         0.0000 
     47 H47         3.9851   53.8011   24.0869 H         1 UNK         0.0000 
     48 H48         3.4537   53.3977   25.5779 H         1 UNK         0.0000 
     49 H49         1.8950   52.1030   26.6992 H         1 UNK         0.0000 
     50 H50         0.1719   52.0345   28.4577 H         1 UNK         0.0000 
     51 H51         3.5039   55.6962   28.4714 H         1 UNK         0.0000 
     52 H52         2.9553   52.5025   19.1923 H         1 UNK         0.0000 
     53 H53         3.1044   54.2711   19.1286 H         1 UNK         0.0000 
     54 H54         4.3851   52.3026   17.2684 H         1 UNK         0.0000 
     55 H55         3.9861   53.9882   16.9968 H         1 UNK         0.0000 
     56 H56         6.2512   54.4482   17.3737 H         1 UNK         0.0000 
     57 H57         6.5177   52.8260   17.9944 H         1 UNK         0.0000 
     58 H58         5.4994   55.2539   19.5656 H         1 UNK         0.0000 
     59 H59         6.7367   54.0971   20.0558 H         1 UNK         0.0000 
     60 N60         4.7035   53.3670   20.1539 N.4       1 UNK         0.0000 
     61 H61         5.0423   52.4234   20.2872 H         1 UNK         0.0000 
@<TRIPOS>BOND
     1    1    2 1    
     2    1   33 1    
     3    1   34 1    
     4    1   35 1    
     5    2    7 1    
     6    2    3 1    
     7    3    4 1    
     8    3   36 1    
     9    3   37 1    
    10    4    5 1    
    11    4   38 1    
    12    4   39 1    
    13    5    6 1    
    14    5   40 1    
    15    5   41 1    
    16    6   11 ar   
    17    6    7 ar   
    18    7    8 ar   
    19    8    9 ar   
    20    8   42 1    
    21    9   10 ar   
    22    9   43 1    
    23   10   11 ar   
    24   10   12 1    
    25   11   44 1    
    26   12   13 1    
    27   12   14 1    
    28   12   60 1    
    29   14   15 1    
    30   14   45 1    
    31   14   46 1    
    32   15   16 am   BACKBONE|DICT|INTERRES
    33   15   47 1    
    34   16   17 2    
    35   16   18 1    
    36   18   19 2    
    37   18   20 am   BACKBONE|DICT|INTERRES
    38   20   21 1    
    39   20   48 1    
    40   21   26 ar   
    41   21   22 ar   
    42   22   23 ar   
    43   22   49 1    
    44   23   24 ar   
    45   23   50 1    
    46   24   25 ar   
    47   24   28 1    
    48   25   26 ar   
    49   25   27 1    
    50   26   51 1    
    51   29   30 1    
    52   29   52 1    
    53   29   53 1    
    54   29   60 1    
    55   30   31 1    
    56   30   54 1    
    57   30   55 1    
    58   31   32 1    
    59   31   56 1    
    60   31   57 1    
    61   32   58 1    
    62   32   59 1    
    63   32   60 1    
    64   60   61 1    
@<TRIPOS>SUBSTRUCTURE
     1 UNK         1 GROUP             0       ****    0 ROOT    
