ZINC35226237_840
                    3D
 Schrodinger Suite 2024-2.
 58 61  0  0  1  0            999 V2000
    1.6329   50.5553   22.0042 C   0  0  0  0  0  0
    2.6547   51.6453   21.7360 C   0  0  0  0  0  0
    3.7490   51.3890   20.9095 C   0  0  0  0  0  0
    4.7042   52.3767   20.6934 C   0  0  0  0  0  0
    4.5599   53.6299   21.2958 C   0  0  0  0  0  0
    3.4523   53.8951   22.1029 C   0  0  0  0  0  0
    2.5072   52.8981   22.3329 C   0  0  0  0  0  0
    5.5080   54.6497   21.0663 N   0  0  0  0  0  0
    6.4614   55.1676   21.9369 C   0  0  0  0  0  0
    7.1728   56.0911   21.3411 N   0  0  0  0  0  0
    6.7238   56.1885   20.0352 N   0  0  0  0  0  0
    5.7857   55.2917   19.8738 C   0  0  0  0  0  0
    4.9811   55.0167   18.3290 S   0  0  0  0  0  0
    6.1769   53.8293   17.6241 C   0  0  0  0  0  0
    7.4446   54.5059   17.1214 C   0  0  0  0  0  0
    7.4696   55.0794   15.8475 C   0  0  0  0  0  0
    8.6349   55.6827   15.3815 C   0  0  0  0  0  0
    9.7713   55.7075   16.1876 C   0  0  0  0  0  0
    9.7540   55.1358   17.4578 C   0  0  0  0  0  0
    8.5901   54.5303   17.9219 C   0  0  0  0  0  0
    6.7315   54.7291   23.3771 C   0  0  2  0  0  0
    7.4731   55.4002   23.8172 H   0  0  0  0  0  0
    7.3266   53.3040   23.3917 C   0  0  0  0  0  0
    5.5216   54.8960   24.1846 N   0  0  0  0  0  0
    5.2903   54.4958   25.4419 C   0  0  0  0  0  0
    6.1724   54.2803   26.2720 O   0  0  0  0  0  0
    3.9701   54.2879   25.5914 N   0  0  0  0  0  0
    3.2534   53.6969   26.6427 C   0  0  0  0  0  0
    1.9201   53.3858   26.3596 C   0  0  0  0  0  0
    1.1153   52.7617   27.3101 C   0  0  0  0  0  0
    1.6379   52.4451   28.5612 C   0  0  0  0  0  0
    2.9668   52.7580   28.8645 C   0  0  0  0  0  0
    3.7788   53.3859   27.9091 C   0  0  0  0  0  0
    3.4953   52.3960   30.1689 C   0  0  0  0  0  0
    3.9044   52.0970   31.2085 N   0  0  0  0  0  0
    0.7389   50.7157   21.4021 H   0  0  0  0  0  0
    2.0360   49.5659   21.7848 H   0  0  0  0  0  0
    1.3455   50.5527   23.0574 H   0  0  0  0  0  0
    3.8613   50.4303   20.4255 H   0  0  0  0  0  0
    5.5441   52.1494   20.0556 H   0  0  0  0  0  0
    3.3030   54.8734   22.5332 H   0  0  0  0  0  0
    1.6491   53.1074   22.9542 H   0  0  0  0  0  0
    6.4377   53.0608   18.3504 H   0  0  0  0  0  0
    5.6894   53.2834   16.8120 H   0  0  0  0  0  0
    6.5861   55.0638   15.2252 H   0  0  0  0  0  0
    8.6566   56.1313   14.3985 H   0  0  0  0  0  0
   10.6746   56.1763   15.8245 H   0  0  0  0  0  0
   10.6379   55.1633   18.0801 H   0  0  0  0  0  0
    8.5774   54.0965   18.9099 H   0  0  0  0  0  0
    8.2930   53.2967   22.8880 H   0  0  0  0  0  0
    7.5113   52.9654   24.4081 H   0  0  0  0  0  0
    6.6751   52.5942   22.8817 H   0  0  0  0  0  0
    4.8047   55.4576   23.7548 H   0  0  0  0  0  0
    3.4051   54.4876   24.7823 H   0  0  0  0  0  0
    1.4966   53.6115   25.3903 H   0  0  0  0  0  0
    0.0895   52.5136   27.0764 H   0  0  0  0  0  0
    0.9986   51.9563   29.2842 H   0  0  0  0  0  0
    4.8076   53.6137   28.1501 H   0  0  0  0  0  0
  1  2  1  0  0  0
  1 36  1  0  0  0
  1 37  1  0  0  0
  1 38  1  0  0  0
  2  7  2  0  0  0
  2  3  1  0  0  0
  3  4  2  0  0  0
  3 39  1  0  0  0
  4  5  1  0  0  0
  4 40  1  0  0  0
  5  6  2  0  0  0
  5  8  1  0  0  0
  6  7  1  0  0  0
  6 41  1  0  0  0
  7 42  1  0  0  0
  8 12  1  0  0  0
  8  9  1  0  0  0
  9 10  2  0  0  0
  9 21  1  0  0  0
 10 11  1  0  0  0
 11 12  2  0  0  0
 12 13  1  0  0  0
 13 14  1  0  0  0
 14 15  1  0  0  0
 14 43  1  0  0  0
 14 44  1  0  0  0
 15 20  2  0  0  0
 15 16  1  0  0  0
 16 17  2  0  0  0
 16 45  1  0  0  0
 17 18  1  0  0  0
 17 46  1  0  0  0
 18 19  2  0  0  0
 18 47  1  0  0  0
 19 20  1  0  0  0
 19 48  1  0  0  0
 20 49  1  0  0  0
 21 22  1  0  0  0
 21 23  1  0  0  0
 21 24  1  0  0  0
 23 50  1  0  0  0
 23 51  1  0  0  0
 23 52  1  0  0  0
 24 25  1  0  0  0
 24 53  1  0  0  0
 25 26  2  0  0  0
 25 27  1  0  0  0
 27 28  1  0  0  0
 27 54  1  0  0  0
 28 33  2  0  0  0
 28 29  1  0  0  0
 29 30  2  0  0  0
 29 55  1  0  0  0
 30 31  1  0  0  0
 30 56  1  0  0  0
 31 32  2  0  0  0
 31 57  1  0  0  0
 32 33  1  0  0  0
 32 34  1  0  0  0
 33 58  1  0  0  0
 34 35  3  0  0  0
M  END
> <i_i_glide_confnum>
62

> <i_i_glide_lignum>
841

> <i_i_glide_posenum>
92

> <i_i_glide_rotatable_bonds>
10

> <i_m_Source_File_Index>
4794

> <b_m_subgroup_collapsed>
0

> <r_i_docking_score>
-5.61198

> <r_i_glide_ecoul>
-2.10993

> <r_i_glide_eff_state_penalty>
0

> <r_i_glide_einternal>
10.5562

> <r_i_glide_emodel>
-66.0035

> <r_i_glide_energy>
-52.532

> <r_i_glide_erotb>
0.827643

> <r_i_glide_esite>
0

> <r_i_glide_evdw>
-50.4221

> <r_i_glide_gscore>
-5.61198

> <r_i_glide_hbond>
-0.140406

> <r_i_glide_ligand_efficiency>
-0.165058

> <r_i_glide_ligand_efficiency_ln>
-1.23984

> <r_i_glide_ligand_efficiency_sa>
-0.534724

> <r_i_glide_lipo>
-1.96021

> <r_i_glide_metal>
0

> <r_i_glide_rewards>
-1.50141

> <s_i_glide_gridfile>
wee1_glide-grid

> <s_m_Source_File>
wee1_decoys_glide_SP.sdf

> <s_m_Source_Path>
/Users/zhangxujun/Desktop

> <s_m_entry_id>
5069

> <s_m_entry_name>
wee1_decoys_glide_SP.4794

> <s_m_subgroup_title>
wee1_decoys_glide_SP

> <s_m_subgroupid>
wee1_decoys_glide_SP


$$$$
