@<TRIPOS>MOLECULE
ZINC01114395_2538
47   49    1
SMALL
USER_CHARGES


@<TRIPOS>ATOM
      1 C1          5.9283   54.0905   28.4814 C.3       1 UNK         0.0000 
      2 C2          5.3468   53.8038   27.0932 C.3       1 UNK         0.0000 
      3 H3          5.4464   52.7300   26.9261 H         1 UNK         0.0000 
      4 C4          3.8673   54.2239   27.0256 C.3       1 UNK         0.0000 
      5 C5          3.1782   53.7903   25.7182 C.3       1 UNK         0.0000 
      6 C6          4.1070   54.0009   24.5118 C.2       1 UNK         0.0000 
      7 C7          5.4617   54.3357   24.6742 C.2       1 UNK         0.0000 
      8 S8          6.2878   54.4967   23.1669 S.3       1 UNK         0.0000 
      9 C9          4.8220   54.1357   22.2849 C.2       1 UNK         0.0000 
     10 C10         3.7606   53.7943   23.1503 C.2       1 UNK         0.0000 
     11 C11         2.4305   53.3935   22.7205 C.2       1 UNK         0.0000 
     12 O12         1.4049   53.7714   23.2814 O.2       1 UNK         0.0000 
     13 N13         2.3890   52.5678   21.6732 N.am      1 UNK         0.0000 
     14 N14         4.7418   54.1979   20.8937 N.am      1 UNK         0.0000 
     15 C15         5.6150   54.7220   20.0058 C.2       1 UNK         0.0000 
     16 O16         6.6602   55.2971   20.3144 O.2       1 UNK         0.0000 
     17 C17         5.2428   54.6062   18.5045 C.3       1 UNK         0.0000 
     18 H18         6.0954   54.2009   17.9595 H         1 UNK         0.0000 
     19 C19         4.0618   53.6609   18.1870 C.3       1 UNK         0.0000 
     20 O20         4.8423   55.8924   18.0189 O.3       1 UNK         0.0000 
     21 C21         5.7441   56.7721   17.4413 C.ar      1 UNK         0.0000 
     22 C22         7.1366   56.5763   17.4107 C.ar      1 UNK         0.0000 
     23 C23         7.9693   57.4936   16.7707 C.ar      1 UNK         0.0000 
     24 C24         7.4271   58.6139   16.1456 C.ar      1 UNK         0.0000 
     25 C25         6.0488   58.8225   16.1685 C.ar      1 UNK         0.0000 
     26 C26         5.2146   57.9175   16.8277 C.ar      1 UNK         0.0000 
     27 Cl27        3.5142   58.2311   16.8761 Cl        1 UNK         0.0000 
     28 Cl28        8.4624   59.7416   15.3492 Cl        1 UNK         0.0000 
     29 C29         6.1559   54.5521   26.0103 C.3       1 UNK         0.0000 
     30 H30         5.8829   55.1517   28.7287 H         1 UNK         0.0000 
     31 H31         5.3771   53.5505   29.2508 H         1 UNK         0.0000 
     32 H32         6.9726   53.7818   28.5508 H         1 UNK         0.0000 
     33 H33         3.7780   55.2968   27.1791 H         1 UNK         0.0000 
     34 H34         3.3215   53.7901   27.8657 H         1 UNK         0.0000 
     35 H35         2.8872   52.7422   25.7844 H         1 UNK         0.0000 
     36 H36         2.2567   54.3586   25.6093 H         1 UNK         0.0000 
     37 H37         1.4914   52.2846   21.3120 H         1 UNK         0.0000 
     38 H38         3.2302   52.1389   21.3194 H         1 UNK         0.0000 
     39 H39         3.8521   53.9145   20.5070 H         1 UNK         0.0000 
     40 H40         4.2621   52.6401   18.5196 H         1 UNK         0.0000 
     41 H41         3.1294   53.9965   18.6454 H         1 UNK         0.0000 
     42 H42         3.8897   53.6137   17.1109 H         1 UNK         0.0000 
     43 H43         7.5986   55.7251   17.8863 H         1 UNK         0.0000 
     44 H44         9.0370   57.3322   16.7615 H         1 UNK         0.0000 
     45 H45         5.6286   59.6962   15.6863 H         1 UNK         0.0000 
     46 H46         6.2052   55.6187   26.2312 H         1 UNK         0.0000 
     47 H47         7.1811   54.1864   25.9792 H         1 UNK         0.0000 
@<TRIPOS>BOND
     1    1    2 1    
     2    1   30 1    
     3    1   31 1    
     4    1   32 1    
     5    2    3 1    
     6    2   29 1    
     7    2    4 1    
     8    4    5 1    
     9    4   33 1    
    10    4   34 1    
    11    5    6 1    
    12    5   35 1    
    13    5   36 1    
    14    6   10 1    
    15    6    7 2    
    16    7    8 1    
    17    7   29 1    
    18    8    9 1    
    19    9   10 2    
    20    9   14 am   BACKBONE|DICT|INTERRES
    21   10   11 1    
    22   11   12 2    
    23   11   13 am   BACKBONE|DICT|INTERRES
    24   13   37 1    
    25   13   38 1    
    26   14   15 am   BACKBONE|DICT|INTERRES
    27   14   39 1    
    28   15   16 2    
    29   15   17 1    
    30   17   18 1    
    31   17   19 1    
    32   17   20 1    
    33   19   40 1    
    34   19   41 1    
    35   19   42 1    
    36   20   21 1    
    37   21   26 ar   
    38   21   22 ar   
    39   22   23 ar   
    40   22   43 1    
    41   23   24 ar   
    42   23   44 1    
    43   24   25 ar   
    44   24   28 1    
    45   25   26 ar   
    46   25   45 1    
    47   26   27 1    
    48   29   46 1    
    49   29   47 1    
@<TRIPOS>SUBSTRUCTURE
     1 UNK         1 GROUP             0       ****    0 ROOT    
