@<TRIPOS>MOLECULE
ZINC17081835_2600
44   47    1
SMALL
USER_CHARGES


@<TRIPOS>ATOM
      1 C1          3.1043   52.4967   18.5070 C.ar      1 UNK         0.0000 
      2 C2          2.2296   51.4269   18.6890 C.ar      1 UNK         0.0000 
      3 C3          1.9555   50.9618   19.9745 C.ar      1 UNK         0.0000 
      4 C4          2.5513   51.5648   21.0828 C.ar      1 UNK         0.0000 
      5 C5          3.4169   52.6613   20.9029 C.ar      1 UNK         0.0000 
      6 C6          3.7062   53.1039   19.6088 C.ar      1 UNK         0.0000 
      7 N7          4.1123   53.2667   21.9589 N.am      1 UNK         0.0000 
      8 C8          3.5882   53.6967   23.1265 C.2       1 UNK         0.0000 
      9 O9          2.3840   53.6808   23.3938 O.2       1 UNK         0.0000 
     10 C10         4.5804   54.1082   24.1083 C.2       1 UNK         0.0000 
     11 C11         5.9040   54.4967   23.7921 C.2       1 UNK         0.0000 
     12 C12         6.6527   54.8871   24.8861 C.2       1 UNK         0.0000 
     13 S13         5.7557   54.7950   26.3578 S.3       1 UNK         0.0000 
     14 C14         4.3331   54.2494   25.4904 C.2       1 UNK         0.0000 
     15 N15         3.1563   53.8959   26.1469 N.am      1 UNK         0.0000 
     16 C16         2.7043   54.3259   27.3435 C.2       1 UNK         0.0000 
     17 O17         3.2181   55.2417   27.9795 O.2       1 UNK         0.0000 
     18 C18         1.3799   53.7337   27.8942 C.3       1 UNK         0.0000 
     19 H19         0.7366   54.6113   27.9818 H         1 UNK         0.0000 
     20 C20         0.7062   52.6448   26.9871 C.3       1 UNK         0.0000 
     21 H21         0.8393   52.7258   25.9074 H         1 UNK         0.0000 
     22 C22         1.2195   51.3576   27.5900 C.3       1 UNK         0.0000 
     23 C23         0.7384   51.6967   28.9817 C.3       1 UNK         0.0000 
     24 H24         0.9089   50.8967   29.6817 H         1 UNK         0.0000 
     25 C25         1.4839   53.0220   29.3045 C.3       1 UNK         0.0000 
     26 H26         0.8846   53.5849   30.0220 H         1 UNK         0.0000 
     27 C27         2.8583   52.8384   30.0103 C.2       1 UNK         0.0000 
     28 O28         3.3584   51.6967   30.0816 O.co2     1 UNK         0.0000 
     29 C29        -0.7246   51.9517   28.6563 C.2       1 UNK         0.0000 
     30 C30        -0.7452   52.4967   27.4254 C.2       1 UNK         0.0000 
     31 F31         2.3045   51.0505   22.3113 F         1 UNK         0.0000 
     32 H32         3.3349   52.8377   17.5088 H         1 UNK         0.0000 
     33 H33         1.7866   50.9426   17.8310 H         1 UNK         0.0000 
     34 H34         1.2975   50.1171   20.1123 H         1 UNK         0.0000 
     35 H35         4.3932   53.9216   19.4474 H         1 UNK         0.0000 
     36 H36         5.0902   53.4417   21.7975 H         1 UNK         0.0000 
     37 H37         6.3172   54.5044   22.7938 H         1 UNK         0.0000 
     38 H38         7.6786   55.2165   24.8817 H         1 UNK         0.0000 
     39 H39         2.5075   53.3617   25.5862 H         1 UNK         0.0000 
     40 H40         2.3044   51.2783   27.5522 H         1 UNK         0.0000 
     41 H41         0.7864   50.4462   27.1664 H         1 UNK         0.0000 
     42 H42        -1.5489   51.7086   29.3114 H         1 UNK         0.0000 
     43 H43        -1.5969   52.8171   26.8439 H         1 UNK         0.0000 
     44 O44         3.4029   53.8551   30.4817 O.co2     1 UNK         0.0000 
@<TRIPOS>BOND
     1    1    6 ar   
     2    1    2 ar   
     3    1   32 1    
     4    2    3 ar   
     5    2   33 1    
     6    3    4 ar   
     7    3   34 1    
     8    4    5 ar   
     9    4   31 1    
    10    5    6 ar   
    11    5    7 1    
    12    6   35 1    
    13    7    8 am   BACKBONE|DICT|INTERRES
    14    7   36 1    
    15    8    9 2    
    16    8   10 1    
    17   10   14 2    
    18   10   11 1    
    19   11   12 2    
    20   11   37 1    
    21   12   13 1    
    22   12   38 1    
    23   13   14 1    
    24   14   15 am   BACKBONE|DICT|INTERRES
    25   15   16 am   BACKBONE|DICT|INTERRES
    26   15   39 1    
    27   16   17 2    
    28   16   18 1    
    29   18   19 1    
    30   18   25 1    
    31   18   20 1    
    32   20   21 1    
    33   20   30 1    
    34   20   22 1    
    35   22   23 1    
    36   22   40 1    
    37   22   41 1    
    38   23   24 1    
    39   23   25 1    
    40   23   29 1    
    41   25   26 1    
    42   25   27 1    
    43   27   28 2    
    44   27   44 1    
    45   29   30 2    
    46   29   42 1    
    47   30   43 1    
@<TRIPOS>SUBSTRUCTURE
     1 UNK         1 GROUP             0       ****    0 ROOT    
