@<TRIPOS>MOLECULE
ZINC12246357_1072
70   75    1
SMALL
USER_CHARGES


@<TRIPOS>ATOM
      1 C1         10.9821   55.9467   14.9168 C.3       1 UNK         0.0000 
      2 C2         11.3398   57.2118   17.1127 C.3       1 UNK         0.0000 
      3 C3          9.9040   57.6694   17.3066 C.ar      1 UNK         0.0000 
      4 C4          9.3768   58.7281   16.5616 C.ar      1 UNK         0.0000 
      5 C5          8.0598   59.1383   16.7680 C.ar      1 UNK         0.0000 
      6 C6          7.2695   58.4964   17.7208 C.ar      1 UNK         0.0000 
      7 C7          7.7830   57.4464   18.4832 C.ar      1 UNK         0.0000 
      8 C8          9.1094   57.0387   18.2651 C.ar      1 UNK         0.0000 
      9 O9          6.9505   56.8921   19.4368 O.3       1 UNK         0.0000 
     10 C10         7.4898   55.9329   20.3437 C.3       1 UNK         0.0000 
     11 C11         6.4341   55.5467   21.3941 C.3       1 UNK         0.0000 
     12 H12         5.9046   56.4526   21.6814 H         1 UNK         0.0000 
     13 C13         5.3780   54.5699   20.8387 C.3       1 UNK         0.0000 
     14 C14         4.4199   54.0927   21.9391 C.3       1 UNK         0.0000 
     15 C15         5.1881   53.5187   23.1433 C.3       1 UNK         0.0000 
     16 N16         6.0904   54.5736   23.6540 N.am      1 UNK         0.0000 
     17 C17         7.1107   55.0436   22.6938 C.3       1 UNK         0.0000 
     18 C18         6.1933   54.9595   24.9633 C.2       1 UNK         0.0000 
     19 O19         7.1038   55.6871   25.3744 O.2       1 UNK         0.0000 
     20 C20         5.2071   54.4899   25.9189 C.ar      1 UNK         0.0000 
     21 C21         3.8156   54.4962   25.7482 C.ar      1 UNK         0.0000 
     22 N22         3.2938   53.9820   26.9177 N.pl3     1 UNK         0.0000 
     23 C23         2.0735   53.6443   27.4784 C.2       1 UNK         0.0000 
     24 C24         2.2233   53.1554   28.7615 C.2       1 UNK         0.0000 
     25 S25         3.9045   53.1210   29.2830 S.3       1 UNK         0.0000 
     26 C26         4.3896   53.7726   27.7271 C.ar      1 UNK         0.0000 
     27 N27         5.5198   54.1131   27.1511 N.2       1 UNK         0.0000 
     28 C28        12.8870   55.2585   16.5221 C.3       1 UNK         0.0000 
     29 C29        13.0636   53.8846   15.8929 C.ar      1 UNK         0.0000 
     30 C30        13.5388   53.7821   14.5829 C.ar      1 UNK         0.0000 
     31 C31        13.7146   52.5400   13.9798 C.ar      1 UNK         0.0000 
     32 C32        13.4270   51.3575   14.6970 C.ar      1 UNK         0.0000 
     33 C33        12.9558   51.4521   16.0440 C.ar      1 UNK         0.0000 
     34 C34        12.7797   52.7307   16.6283 C.ar      1 UNK         0.0000 
     35 C35        12.6883   50.2445   16.7381 C.ar      1 UNK         0.0000 
     36 C36        12.8914   49.0261   16.0892 C.ar      1 UNK         0.0000 
     37 C37        13.3409   49.0270   14.7702 C.ar      1 UNK         0.0000 
     38 N38        13.6127   50.1590   14.0789 N.ar      1 UNK         0.0000 
     39 H39        11.6645   56.6041   14.3762 H         1 UNK         0.0000 
     40 H40        10.9809   54.9394   14.4980 H         1 UNK         0.0000 
     41 H41         9.9648   56.3421   14.9201 H         1 UNK         0.0000 
     42 H42        11.9346   57.9224   16.5351 H         1 UNK         0.0000 
     43 H43        11.8208   57.0759   18.0829 H         1 UNK         0.0000 
     44 H44         9.9800   59.2360   15.8231 H         1 UNK         0.0000 
     45 H45         7.6455   59.9627   16.2034 H         1 UNK         0.0000 
     46 H46         6.2554   58.8361   17.8816 H         1 UNK         0.0000 
     47 H47         9.5438   56.2348   18.8405 H         1 UNK         0.0000 
     48 H48         8.3626   56.3583   20.8437 H         1 UNK         0.0000 
     49 H49         7.8308   55.0430   19.8111 H         1 UNK         0.0000 
     50 H50         5.8882   53.6976   20.4255 H         1 UNK         0.0000 
     51 H51         4.8435   55.0113   19.9960 H         1 UNK         0.0000 
     52 H52         3.7595   53.3262   21.5316 H         1 UNK         0.0000 
     53 H53         3.7610   54.8987   22.2629 H         1 UNK         0.0000 
     54 H54         5.8118   52.6878   22.8112 H         1 UNK         0.0000 
     55 H55         4.4975   53.1183   23.8785 H         1 UNK         0.0000 
     56 H56         7.6778   55.8896   23.0869 H         1 UNK         0.0000 
     57 H57         7.7905   54.2184   22.4812 H         1 UNK         0.0000 
     58 H58         3.2008   54.7889   24.9097 H         1 UNK         0.0000 
     59 H59         1.1591   53.7628   26.9159 H         1 UNK         0.0000 
     60 H60         1.4442   52.8087   29.4275 H         1 UNK         0.0000 
     61 H61        13.5625   55.9949   16.0804 H         1 UNK         0.0000 
     62 H62        13.0756   55.2157   17.5979 H         1 UNK         0.0000 
     63 H63        13.7697   54.6739   14.0174 H         1 UNK         0.0000 
     64 H64        14.0709   52.4678   12.9613 H         1 UNK         0.0000 
     65 H65        12.4210   52.7968   17.6464 H         1 UNK         0.0000 
     66 H66        12.3290   50.2760   17.7578 H         1 UNK         0.0000 
     67 H67        12.7044   48.0962   16.6004 H         1 UNK         0.0000 
     68 H68        13.4942   48.1032   14.2284 H         1 UNK         0.0000 
     69 N69        11.4646   55.8539   16.3832 N.4       1 UNK         0.0000 
     70 H70        10.8406   55.2107   16.8553 H         1 UNK         0.0000 
@<TRIPOS>BOND
     1    1   39 1    
     2    1   40 1    
     3    1   41 1    
     4    1   69 1    
     5    2    3 1    
     6    2   42 1    
     7    2   43 1    
     8    2   69 1    
     9    3    8 ar   
    10    3    4 ar   
    11    4    5 ar   
    12    4   44 1    
    13    5    6 ar   
    14    5   45 1    
    15    6    7 ar   
    16    6   46 1    
    17    7    8 ar   
    18    7    9 1    
    19    8   47 1    
    20    9   10 1    
    21   10   11 1    
    22   10   48 1    
    23   10   49 1    
    24   11   12 1    
    25   11   17 1    
    26   11   13 1    
    27   13   14 1    
    28   13   50 1    
    29   13   51 1    
    30   14   15 1    
    31   14   52 1    
    32   14   53 1    
    33   15   16 1    
    34   15   54 1    
    35   15   55 1    
    36   16   17 1    
    37   16   18 am   BACKBONE|DICT|INTERRES
    38   17   56 1    
    39   17   57 1    
    40   18   19 2    
    41   18   20 1    
    42   20   27 ar   
    43   20   21 ar   
    44   21   22 ar   
    45   21   58 1    
    46   22   26 ar   
    47   22   23 1    
    48   23   24 2    
    49   23   59 1    
    50   24   25 1    
    51   24   60 1    
    52   25   26 1    
    53   26   27 ar   
    54   28   29 1    
    55   28   61 1    
    56   28   62 1    
    57   28   69 1    
    58   29   34 ar   
    59   29   30 ar   
    60   30   31 ar   
    61   30   63 1    
    62   31   32 ar   
    63   31   64 1    
    64   32   38 ar   
    65   32   33 ar   
    66   33   34 ar   
    67   33   35 ar   
    68   34   65 1    
    69   35   36 ar   
    70   35   66 1    
    71   36   37 ar   
    72   36   67 1    
    73   37   38 ar   
    74   37   68 1    
    75   69   70 1    
@<TRIPOS>SUBSTRUCTURE
     1 UNK         1 GROUP             0       ****    0 ROOT    
