@<TRIPOS>MOLECULE
ZINC22906236_434
54   57    1
SMALL
USER_CHARGES


@<TRIPOS>ATOM
      1 C1          7.0979   53.9120   27.7370 C.3       1 UNK         0.0000 
      2 C2          5.7042   53.8796   27.0909 C.3       1 UNK         0.0000 
      3 H3          5.4023   52.8332   27.0582 H         1 UNK         0.0000 
      4 C4          5.6729   54.4894   25.6731 C.2       1 UNK         0.0000 
      5 O5          4.7954   55.2979   25.3735 O.2       1 UNK         0.0000 
      6 N6          6.6462   54.0987   24.8190 N.am      1 UNK         0.0000 
      7 N7          6.7069   54.6094   23.5156 N.am      1 UNK         0.0000 
      8 C8          5.8598   54.1688   22.5568 C.2       1 UNK         0.0000 
      9 O9          5.0094   53.2961   22.7449 O.2       1 UNK         0.0000 
     10 C10         6.0054   54.8136   21.1951 C.ar      1 UNK         0.0000 
     11 C11         7.1464   55.5562   20.8404 C.ar      1 UNK         0.0000 
     12 C12         7.2518   56.1298   19.5752 C.ar      1 UNK         0.0000 
     13 C13         6.2083   56.0063   18.6596 C.ar      1 UNK         0.0000 
     14 C14         5.0531   55.2852   18.9988 C.ar      1 UNK         0.0000 
     15 C15         4.9874   54.6499   20.2428 C.ar      1 UNK         0.0000 
     16 N16         3.9050   55.1850   18.1897 N.am      1 UNK         0.0000 
     17 C17         3.5134   55.9907   17.1786 C.2       1 UNK         0.0000 
     18 O18         4.1899   56.8917   16.6843 O.2       1 UNK         0.0000 
     19 C19         2.1471   55.7998   16.7588 C.2       1 UNK         0.0000 
     20 C20         1.3323   56.7490   16.1386 C.2       1 UNK         0.0000 
     21 C21         0.0524   56.2704   15.8421 C.2       1 UNK         0.0000 
     22 C22        -0.1085   54.9364   16.1898 C.2       1 UNK         0.0000 
     23 S23         1.3312   54.2587   16.8786 S.3       1 UNK         0.0000 
     24 O24         4.8830   54.6647   27.9603 O.3       1 UNK         0.0000 
     25 C25         3.5911   54.2840   28.2602 C.ar      1 UNK         0.0000 
     26 C26         2.9805   54.9936   29.2852 C.ar      1 UNK         0.0000 
     27 C27         1.7525   54.6073   29.8097 C.ar      1 UNK         0.0000 
     28 C28         1.0874   53.4792   29.2817 C.ar      1 UNK         0.0000 
     29 C29        -0.1017   52.9777   29.8580 C.ar      1 UNK         0.0000 
     30 C30        -0.7594   51.8946   29.2801 C.ar      1 UNK         0.0000 
     31 C31        -0.2695   51.3101   28.1187 C.ar      1 UNK         0.0000 
     32 C32         0.9179   51.7565   27.5486 C.ar      1 UNK         0.0000 
     33 C33         1.6350   52.8249   28.1380 C.ar      1 UNK         0.0000 
     34 C34         2.8904   53.2453   27.6378 C.ar      1 UNK         0.0000 
     35 H35         7.7660   53.1838   27.2808 H         1 UNK         0.0000 
     36 H36         7.5609   54.8959   27.6774 H         1 UNK         0.0000 
     37 H37         7.0360   53.6562   28.7946 H         1 UNK         0.0000 
     38 H38         7.3193   53.3683   25.0003 H         1 UNK         0.0000 
     39 H39         7.1705   55.5063   23.4789 H         1 UNK         0.0000 
     40 H40         7.9759   55.6785   21.5239 H         1 UNK         0.0000 
     41 H41         8.1425   56.6789   19.3056 H         1 UNK         0.0000 
     42 H42         6.3176   56.4797   17.6965 H         1 UNK         0.0000 
     43 H43         4.0987   54.0867   20.4970 H         1 UNK         0.0000 
     44 H44         3.2177   54.5154   18.5033 H         1 UNK         0.0000 
     45 H45         1.6506   57.7628   15.9360 H         1 UNK         0.0000 
     46 H46        -0.7183   56.8736   15.3865 H         1 UNK         0.0000 
     47 H47        -0.9858   54.3230   16.0587 H         1 UNK         0.0000 
     48 H48         3.4995   55.8483   29.6816 H         1 UNK         0.0000 
     49 H49         1.3164   55.1484   30.6383 H         1 UNK         0.0000 
     50 H50        -0.4936   53.4348   30.7548 H         1 UNK         0.0000 
     51 H51        -1.6622   51.5039   29.7291 H         1 UNK         0.0000 
     52 H52        -0.8063   50.4870   27.6715 H         1 UNK         0.0000 
     53 H53         1.3025   51.2830   26.6593 H         1 UNK         0.0000 
     54 H54         3.2993   52.7219   26.7884 H         1 UNK         0.0000 
@<TRIPOS>BOND
     1    1    2 1    
     2    1   35 1    
     3    1   36 1    
     4    1   37 1    
     5    2    3 1    
     6    2    4 1    
     7    2   24 1    
     8    4    5 2    
     9    4    6 am   BACKBONE|DICT|INTERRES
    10    6    7 1    
    11    6   38 1    
    12    7    8 am   BACKBONE|DICT|INTERRES
    13    7   39 1    
    14    8    9 2    
    15    8   10 1    
    16   10   15 ar   
    17   10   11 ar   
    18   11   12 ar   
    19   11   40 1    
    20   12   13 ar   
    21   12   41 1    
    22   13   14 ar   
    23   13   42 1    
    24   14   15 ar   
    25   14   16 1    
    26   15   43 1    
    27   16   17 am   BACKBONE|DICT|INTERRES
    28   16   44 1    
    29   17   18 2    
    30   17   19 1    
    31   19   23 1    
    32   19   20 2    
    33   20   21 1    
    34   20   45 1    
    35   21   22 2    
    36   21   46 1    
    37   22   23 1    
    38   22   47 1    
    39   24   25 1    
    40   25   34 ar   
    41   25   26 ar   
    42   26   27 ar   
    43   26   48 1    
    44   27   28 ar   
    45   27   49 1    
    46   28   33 ar   
    47   28   29 ar   
    48   29   30 ar   
    49   29   50 1    
    50   30   31 ar   
    51   30   51 1    
    52   31   32 ar   
    53   31   52 1    
    54   32   33 ar   
    55   32   53 1    
    56   33   34 ar   
    57   34   54 1    
@<TRIPOS>SUBSTRUCTURE
     1 UNK         1 GROUP             0       ****    0 ROOT    
