ZINC10010863_3000
                    3D
 Schrodinger Suite 2024-2.
 57 59  0  0  1  0            999 V2000
    7.0413   54.2536   26.2171 C   0  0  0  0  0  0
    5.7380   54.3408   26.9930 C   0  0  0  0  0  0
    5.7912   54.3647   28.3877 C   0  0  0  0  0  0
    4.6269   54.4693   29.1419 C   0  0  0  0  0  0
    3.3883   54.5165   28.5087 C   0  0  0  0  0  0
    3.3216   54.4814   27.1142 C   0  0  0  0  0  0
    4.4906   54.4046   26.3465 C   0  0  0  0  0  0
    4.3860   54.3861   24.8287 C   0  0  0  0  0  0
    2.2282   54.6023   29.2755 N   0  0  0  0  0  0
    1.5604   53.1847   30.0894 S   0  0  0  0  0  0
    0.6072   53.6999   31.0779 O   0  0  0  0  0  0
    2.6847   52.3306   30.4904 O   0  0  0  0  0  0
    0.6350   52.3139   28.8427 C   0  0  0  0  0  0
   -0.7252   52.0727   29.0328 C   0  0  0  0  0  0
   -1.4436   51.3805   28.0621 C   0  0  0  0  0  0
   -0.8004   50.9600   26.9003 C   0  0  0  0  0  0
    0.5600   51.1968   26.7087 C   0  0  0  0  0  0
    1.2832   51.8645   27.6907 C   0  0  0  0  0  0
   -1.5113   50.1785   25.9889 N   0  0  0  0  0  0
   -1.9725   50.4843   24.7399 C   0  0  0  0  0  0
   -1.7995   52.0101   24.0354 S   0  0  0  0  0  0
   -2.5746   49.3816   24.1920 N   0  0  0  0  0  0
   -3.2329   49.1633   23.0233 C   0  0  0  0  0  0
   -3.4197   49.9951   22.1341 O   0  0  0  0  0  0
   -3.7163   47.8098   22.8648 C   0  0  0  0  0  0
   -4.2469   47.0737   23.8688 C   0  0  0  0  0  0
   -4.7397   45.6801   23.7840 C   0  0  0  0  0  0
   -5.3594   45.1222   24.9082 C   0  0  0  0  0  0
   -5.8352   43.8135   24.8815 C   0  0  0  0  0  0
   -5.6961   43.0416   23.7305 C   0  0  0  0  0  0
   -5.0761   43.5718   22.5893 C   0  0  0  0  0  0
   -4.6072   44.8963   22.6264 C   0  0  0  0  0  0
   -4.9121   42.7423   21.3726 N   0  3  0  0  0  0
   -5.5543   41.6973   21.2817 O   0  0  0  0  0  0
   -4.1377   43.1255   20.5028 O   0  5  0  0  0  0
    7.1027   55.0520   25.4757 H   0  0  0  0  0  0
    7.9031   54.3459   26.8819 H   0  0  0  0  0  0
    7.1044   53.3010   25.6905 H   0  0  0  0  0  0
    6.7404   54.3121   28.8988 H   0  0  0  0  0  0
    4.6945   54.4958   30.2188 H   0  0  0  0  0  0
    2.3580   54.4977   26.6277 H   0  0  0  0  0  0
    4.8959   55.2540   24.4125 H   0  0  0  0  0  0
    4.8688   53.4963   24.4262 H   0  0  0  0  0  0
    3.3519   54.3971   24.4836 H   0  0  0  0  0  0
    1.6754   55.4471   29.2547 H   0  0  0  0  0  0
   -1.2192   52.3797   29.9430 H   0  0  0  0  0  0
   -2.4867   51.1458   28.2303 H   0  0  0  0  0  0
    1.0576   50.8377   25.8202 H   0  0  0  0  0  0
    2.3443   52.0189   27.5624 H   0  0  0  0  0  0
   -1.7621   49.2739   26.3650 H   0  0  0  0  0  0
   -2.4870   48.5510   24.7550 H   0  0  0  0  0  0
   -3.6361   47.4303   21.8576 H   0  0  0  0  0  0
   -4.3279   47.5197   24.8516 H   0  0  0  0  0  0
   -5.4773   45.6991   25.8141 H   0  0  0  0  0  0
   -6.3126   43.3946   25.7562 H   0  0  0  0  0  0
   -6.0660   42.0264   23.7342 H   0  0  0  0  0  0
   -4.1345   45.3094   21.7485 H   0  0  0  0  0  0
  1  2  1  0  0  0
  1 36  1  0  0  0
  1 37  1  0  0  0
  1 38  1  0  0  0
  2  7  2  0  0  0
  2  3  1  0  0  0
  3  4  2  0  0  0
  3 39  1  0  0  0
  4  5  1  0  0  0
  4 40  1  0  0  0
  5  6  2  0  0  0
  5  9  1  0  0  0
  6  7  1  0  0  0
  6 41  1  0  0  0
  7  8  1  0  0  0
  8 42  1  0  0  0
  8 43  1  0  0  0
  8 44  1  0  0  0
  9 10  1  0  0  0
  9 45  1  0  0  0
 10 11  2  0  0  0
 10 12  2  0  0  0
 10 13  1  0  0  0
 13 18  2  0  0  0
 13 14  1  0  0  0
 14 15  2  0  0  0
 14 46  1  0  0  0
 15 16  1  0  0  0
 15 47  1  0  0  0
 16 17  2  0  0  0
 16 19  1  0  0  0
 17 18  1  0  0  0
 17 48  1  0  0  0
 18 49  1  0  0  0
 19 20  1  0  0  0
 19 50  1  0  0  0
 20 21  2  0  0  0
 20 22  1  0  0  0
 22 23  1  0  0  0
 22 51  1  0  0  0
 23 24  2  0  0  0
 23 25  1  0  0  0
 25 26  2  0  0  0
 25 52  1  0  0  0
 26 27  1  0  0  0
 26 53  1  0  0  0
 27 32  2  0  0  0
 27 28  1  0  0  0
 28 29  2  0  0  0
 28 54  1  0  0  0
 29 30  1  0  0  0
 29 55  1  0  0  0
 30 31  2  0  0  0
 30 56  1  0  0  0
 31 32  1  0  0  0
 31 33  1  0  0  0
 32 57  1  0  0  0
 33 34  2  0  0  0
 33 35  1  0  0  0
M  CHG  2  33   1  35  -1
M  END
> <i_i_glide_confnum>
189

> <i_i_glide_lignum>
3001

> <i_i_glide_posenum>
269

> <i_i_glide_rotatable_bonds>
10

> <i_m_Source_File_Index>
317

> <b_m_subgroup_collapsed>
0

> <r_i_docking_score>
-2.66381

> <r_i_glide_ecoul>
-6.34314

> <r_i_glide_eff_state_penalty>
0

> <r_i_glide_einternal>
9.05032

> <r_i_glide_emodel>
-47.2609

> <r_i_glide_energy>
-49.4301

> <r_i_glide_erotb>
0.707279

> <r_i_glide_esite>
-0.270034

> <r_i_glide_evdw>
-43.0869

> <r_i_glide_gscore>
-2.66381

> <r_i_glide_hbond>
-0.0507315

> <r_i_glide_ligand_efficiency>
-0.076109

> <r_i_glide_ligand_efficiency_ln>
-0.584766

> <r_i_glide_ligand_efficiency_sa>
-0.248958

> <r_i_glide_lipo>
-2.06982

> <r_i_glide_metal>
0

> <r_i_glide_rewards>
2.12531

> <s_i_glide_gridfile>
wee1_glide-grid

> <s_m_Source_File>
wee1_decoys_glide_SP.sdf

> <s_m_Source_Path>
/Users/zhangxujun/Desktop

> <s_m_entry_id>
592

> <s_m_entry_name>
wee1_decoys_glide_SP.317

> <s_m_subgroup_title>
wee1_decoys_glide_SP

> <s_m_subgroupid>
wee1_decoys_glide_SP


$$$$
