@<TRIPOS>MOLECULE
ZINC40399621_2515
51   54    1
SMALL
USER_CHARGES


@<TRIPOS>ATOM
      1 C1          6.5572   54.8508   26.0574 C.3       1 UNK         0.0000 
      2 C2          5.4943   54.5352   25.0217 C.ar      1 UNK         0.0000 
      3 C3          4.1793   54.2732   25.4176 C.ar      1 UNK         0.0000 
      4 C4          3.1994   53.9769   24.4653 C.ar      1 UNK         0.0000 
      5 C5          3.5358   53.9564   23.1091 C.ar      1 UNK         0.0000 
      6 C6          4.8435   54.2327   22.7026 C.ar      1 UNK         0.0000 
      7 C7          5.8294   54.4967   23.6654 C.ar      1 UNK         0.0000 
      8 N8          5.1053   54.2276   21.3271 N.am      1 UNK         0.0000 
      9 C9          5.9057   55.0775   20.6436 C.2       1 UNK         0.0000 
     10 O10         6.4911   56.0241   21.1754 O.2       1 UNK         0.0000 
     11 C11         6.0951   54.8509   19.1106 C.3       1 UNK         0.0000 
     12 H12         7.1841   54.8274   19.0217 H         1 UNK         0.0000 
     13 C13         5.5069   53.4703   18.6173 C.3       1 UNK         0.0000 
     14 C14         3.9596   53.4879   18.4369 C.2       1 UNK         0.0000 
     15 O15         3.2159   52.5597   18.7372 O.2       1 UNK         0.0000 
     16 N16         3.5044   54.6337   17.8904 N.am      1 UNK         0.0000 
     17 C17         4.2213   55.7651   17.7390 C.ar      1 UNK         0.0000 
     18 C18         5.4631   55.9593   18.2422 C.ar      1 UNK         0.0000 
     19 C19         6.1094   57.2456   18.0170 C.ar      1 UNK         0.0000 
     20 O20         7.2104   57.5747   18.4444 O.2       1 UNK         0.0000 
     21 N21         5.3586   58.0969   17.2811 N.pl3     1 UNK         0.0000 
     22 H22         5.7743   59.0062   17.1512 H         1 UNK         0.0000 
     23 C23         4.1089   57.8523   16.7923 C.ar      1 UNK         0.0000 
     24 N24         3.5580   56.7108   17.0216 N.2       1 UNK         0.0000 
     25 N25         3.4790   58.8967   16.0631 N.pl3     1 UNK         0.0000 
     26 C26         2.2356   59.0033   15.4126 C.ar      1 UNK         0.0000 
     27 C27         1.9030   60.2543   14.8834 C.ar      1 UNK         0.0000 
     28 C28         0.6789   60.4583   14.2515 C.ar      1 UNK         0.0000 
     29 C29        -0.2220   59.4041   14.1397 C.ar      1 UNK         0.0000 
     30 C30         0.0964   58.1483   14.6476 C.ar      1 UNK         0.0000 
     31 C31         1.3214   57.9472   15.2796 C.ar      1 UNK         0.0000 
     32 F32        -1.4141   59.6012   13.5332 F         1 UNK         0.0000 
     33 C33         1.7712   53.6968   24.8945 C.3       1 UNK         0.0000 
     34 H34         7.5041   54.3978   25.7697 H         1 UNK         0.0000 
     35 H35         6.2971   54.4450   27.0364 H         1 UNK         0.0000 
     36 H36         6.7056   55.9277   26.1403 H         1 UNK         0.0000 
     37 H37         3.9196   54.2960   26.4661 H         1 UNK         0.0000 
     38 H38         2.7722   53.7465   22.3720 H         1 UNK         0.0000 
     39 H39         6.8483   54.6948   23.3622 H         1 UNK         0.0000 
     40 H40         4.5375   53.5968   20.7812 H         1 UNK         0.0000 
     41 H41         5.8963   53.2521   17.6218 H         1 UNK         0.0000 
     42 H42         5.8068   52.6251   19.2402 H         1 UNK         0.0000 
     43 H43         2.5342   54.6511   17.6285 H         1 UNK         0.0000 
     44 H44         3.9594   59.7914   16.1031 H         1 UNK         0.0000 
     45 H45         2.5915   61.0832   14.9764 H         1 UNK         0.0000 
     46 H46         0.4277   61.4296   13.8528 H         1 UNK         0.0000 
     47 H47        -0.6075   57.3351   14.5535 H         1 UNK         0.0000 
     48 H48         1.5345   56.9628   15.6644 H         1 UNK         0.0000 
     49 H49         1.0690   54.1745   24.2099 H         1 UNK         0.0000 
     50 H50         1.5756   52.6244   24.8907 H         1 UNK         0.0000 
     51 H51         1.5659   54.0955   25.8888 H         1 UNK         0.0000 
@<TRIPOS>BOND
     1    1    2 1    
     2    1   34 1    
     3    1   35 1    
     4    1   36 1    
     5    2    7 ar   
     6    2    3 ar   
     7    3    4 ar   
     8    3   37 1    
     9    4    5 ar   
    10    4   33 1    
    11    5    6 ar   
    12    5   38 1    
    13    6    7 ar   
    14    6    8 1    
    15    7   39 1    
    16    8    9 am   BACKBONE|DICT|INTERRES
    17    8   40 1    
    18    9   10 2    
    19    9   11 1    
    20   11   12 1    
    21   11   18 1    
    22   11   13 1    
    23   13   14 1    
    24   13   41 1    
    25   13   42 1    
    26   14   15 2    
    27   14   16 am   BACKBONE|DICT|INTERRES
    28   16   17 1    
    29   16   43 1    
    30   17   24 ar   
    31   17   18 ar   
    32   18   19 ar   
    33   19   20 2    
    34   19   21 ar   
    35   21   22 1    
    36   21   23 ar   
    37   23   24 ar   
    38   23   25 1    
    39   25   26 1    
    40   25   44 1    
    41   26   31 ar   
    42   26   27 ar   
    43   27   28 ar   
    44   27   45 1    
    45   28   29 ar   
    46   28   46 1    
    47   29   30 ar   
    48   29   32 1    
    49   30   31 ar   
    50   30   47 1    
    51   31   48 1    
    52   33   49 1    
    53   33   50 1    
    54   33   51 1    
@<TRIPOS>SUBSTRUCTURE
     1 UNK         1 GROUP             0       ****    0 ROOT    
