@<TRIPOS>MOLECULE
ZINC39666000_339
66   69    1
SMALL
USER_CHARGES


@<TRIPOS>ATOM
      1 C1          2.7046   45.9241   15.6771 C.3       1 UNK         0.0000 
      2 C2          1.6864   46.7326   16.4593 C.ar      1 UNK         0.0000 
      3 C3          0.3988   46.9237   15.9592 C.ar      1 UNK         0.0000 
      4 C4         -0.5144   47.6917   16.6771 C.ar      1 UNK         0.0000 
      5 C5         -0.1605   48.2668   17.8983 C.ar      1 UNK         0.0000 
      6 C6          1.1314   48.0544   18.4016 C.ar      1 UNK         0.0000 
      7 C7          2.0487   47.2967   17.6812 C.ar      1 UNK         0.0000 
      8 O8         -1.1458   49.0208   18.5128 O.3       1 UNK         0.0000 
      9 C9         -0.9938   49.6158   19.8077 C.3       1 UNK         0.0000 
     10 H10        -1.9840   50.0284   20.0074 H         1 UNK         0.0000 
     11 C11        -0.7564   48.5593   20.9108 C.3       1 UNK         0.0000 
     12 C12        -0.0186   50.8319   19.7860 C.3       1 UNK         0.0000 
     13 N13         0.3457   51.3928   21.0942 N.am      1 UNK         0.0000 
     14 C14        -0.5076   51.9908   21.9458 C.2       1 UNK         0.0000 
     15 O15        -1.7091   52.0952   21.7005 O.2       1 UNK         0.0000 
     16 C16         0.0177   52.5729   23.2839 C.3       1 UNK         0.0000 
     17 H17        -0.5658   53.4776   23.4605 H         1 UNK         0.0000 
     18 C18         1.4779   53.0354   23.1952 C.3       1 UNK         0.0000 
     19 N19         1.8745   53.1122   24.6057 N.am      1 UNK         0.0000 
     20 C20         0.9213   52.4088   25.4812 C.3       1 UNK         0.0000 
     21 C21        -0.0342   51.6474   24.5221 C.3       1 UNK         0.0000 
     22 C22        -1.4858   51.4919   25.0407 C.3       1 UNK         0.0000 
     23 C23        -1.5410   50.7026   26.3556 C.3       1 UNK         0.0000 
     24 N24        -0.9712   49.2973   26.0817 N.4       1 UNK         0.0000 
     25 C25         0.4625   49.3006   25.5104 C.3       1 UNK         0.0000 
     26 C26         0.4910   50.2000   24.2511 C.3       1 UNK         0.0000 
     27 C27         3.0517   53.6967   24.9602 C.2       1 UNK         0.0000 
     28 O28         3.8337   54.1218   24.1061 O.2       1 UNK         0.0000 
     29 C29         3.4563   53.8235   26.4168 C.ar      1 UNK         0.0000 
     30 C30         2.5437   54.1543   27.4317 C.ar      1 UNK         0.0000 
     31 C31         2.9722   54.3402   28.7469 C.ar      1 UNK         0.0000 
     32 C32         4.3200   54.1932   29.0688 C.ar      1 UNK         0.0000 
     33 C33         5.2412   53.8700   28.0750 C.ar      1 UNK         0.0000 
     34 C34         4.8117   53.6971   26.7606 C.ar      1 UNK         0.0000 
     35 Cl35        6.9137   53.6952   28.4605 Cl        1 UNK         0.0000 
     36 Cl36        1.8361   54.7779   29.9702 Cl        1 UNK         0.0000 
     37 H37         3.1598   45.1698   16.3190 H         1 UNK         0.0000 
     38 H38         3.5023   46.5767   15.3209 H         1 UNK         0.0000 
     39 H39         2.2578   45.4090   14.8262 H         1 UNK         0.0000 
     40 H40         0.1072   46.4943   15.0120 H         1 UNK         0.0000 
     41 H41        -1.5065   47.8495   16.2806 H         1 UNK         0.0000 
     42 H42         1.4631   48.4810   19.3319 H         1 UNK         0.0000 
     43 H43         3.0544   47.1775   18.0589 H         1 UNK         0.0000 
     44 H44        -1.2725   48.8459   21.8254 H         1 UNK         0.0000 
     45 H45        -1.1525   47.5863   20.6192 H         1 UNK         0.0000 
     46 H46         0.2972   48.4382   21.1558 H         1 UNK         0.0000 
     47 H47         0.9091   50.5799   19.2761 H         1 UNK         0.0000 
     48 H48        -0.4527   51.6207   19.1688 H         1 UNK         0.0000 
     49 H49         1.3238   51.3500   21.3376 H         1 UNK         0.0000 
     50 H50         2.1154   52.2774   22.7375 H         1 UNK         0.0000 
     51 H51         1.5805   53.9799   22.6552 H         1 UNK         0.0000 
     52 H52         0.3078   53.1654   25.9657 H         1 UNK         0.0000 
     53 H53         1.3557   51.7727   26.2513 H         1 UNK         0.0000 
     54 H54        -1.9128   52.4783   25.2297 H         1 UNK         0.0000 
     55 H55        -2.1320   51.0444   24.2831 H         1 UNK         0.0000 
     56 H56        -0.9421   51.1346   27.1592 H         1 UNK         0.0000 
     57 H57        -2.5590   50.5475   26.7178 H         1 UNK         0.0000 
     58 H58        -1.0123   48.7919   26.9827 H         1 UNK         0.0000 
     59 H59         1.1040   49.6389   26.3228 H         1 UNK         0.0000 
     60 H60         0.7051   48.2595   25.2880 H         1 UNK         0.0000 
     61 H61        -0.0796   49.7184   23.4617 H         1 UNK         0.0000 
     62 H62         1.5153   50.2339   23.8765 H         1 UNK         0.0000 
     63 H63         1.5032   54.3287   27.2129 H         1 UNK         0.0000 
     64 H64         4.6567   54.3464   30.0825 H         1 UNK         0.0000 
     65 H65         5.5461   53.4566   26.0038 H         1 UNK         0.0000 
     66 H66        -1.5901   48.7982   25.4599 H         1 UNK         0.0000 
@<TRIPOS>BOND
     1    1    2 1    
     2    1   37 1    
     3    1   38 1    
     4    1   39 1    
     5    2    7 ar   
     6    2    3 ar   
     7    3    4 ar   
     8    3   40 1    
     9    4    5 ar   
    10    4   41 1    
    11    5    6 ar   
    12    5    8 1    
    13    6    7 ar   
    14    6   42 1    
    15    7   43 1    
    16    8    9 1    
    17    9   10 1    
    18    9   11 1    
    19    9   12 1    
    20   11   44 1    
    21   11   45 1    
    22   11   46 1    
    23   12   13 1    
    24   12   47 1    
    25   12   48 1    
    26   13   14 am   BACKBONE|DICT|INTERRES
    27   13   49 1    
    28   14   15 2    
    29   14   16 1    
    30   16   17 1    
    31   16   21 1    
    32   16   18 1    
    33   18   19 1    
    34   18   50 1    
    35   18   51 1    
    36   19   20 1    
    37   19   27 am   BACKBONE|DICT|INTERRES
    38   20   21 1    
    39   20   52 1    
    40   20   53 1    
    41   21   26 1    
    42   21   22 1    
    43   22   23 1    
    44   22   54 1    
    45   22   55 1    
    46   23   24 1    
    47   23   56 1    
    48   23   57 1    
    49   24   25 1    
    50   24   58 1    
    51   24   66 1    
    52   25   26 1    
    53   25   59 1    
    54   25   60 1    
    55   26   61 1    
    56   26   62 1    
    57   27   28 2    
    58   27   29 1    
    59   29   34 ar   
    60   29   30 ar   
    61   30   31 ar   
    62   30   63 1    
    63   31   32 ar   
    64   31   36 1    
    65   32   33 ar   
    66   32   64 1    
    67   33   34 ar   
    68   33   35 1    
    69   34   65 1    
@<TRIPOS>SUBSTRUCTURE
     1 UNK         1 GROUP             0       ****    0 ROOT    
