@<TRIPOS>MOLECULE
ZINC14368213_2092
63   65    1
SMALL
USER_CHARGES


@<TRIPOS>ATOM
      1 C1          4.5209   54.7362   26.6173 C.3       1 UNK         0.0000 
      2 C2          4.8739   54.5125   25.1528 C.ar      1 UNK         0.0000 
      3 C3          6.1492   54.8682   24.7067 C.ar      1 UNK         0.0000 
      4 C4          6.5167   54.6667   23.3793 C.ar      1 UNK         0.0000 
      5 C5          5.6088   54.0946   22.4916 C.ar      1 UNK         0.0000 
      6 C6          4.3306   53.7058   22.9189 C.ar      1 UNK         0.0000 
      7 C7          3.9490   53.9543   24.2504 C.ar      1 UNK         0.0000 
      8 C8          2.5522   53.5561   24.7275 C.3       1 UNK         0.0000 
      9 O9          3.4166   53.0891   22.0824 O.3       1 UNK         0.0000 
     10 C10         3.8660   52.3292   20.9522 C.3       1 UNK         0.0000 
     11 H11         4.8985   52.0004   21.0803 H         1 UNK         0.0000 
     12 C12         3.7487   53.2101   19.6878 C.3       1 UNK         0.0000 
     13 C13         3.0430   51.0181   20.9044 C.2       1 UNK         0.0000 
     14 O14         2.6643   50.4918   21.9578 O.2       1 UNK         0.0000 
     15 N15         2.7827   50.5067   19.6809 N.am      1 UNK         0.0000 
     16 N16         2.0992   49.2983   19.5454 N.am      1 UNK         0.0000 
     17 C17         0.7637   49.3189   19.3240 C.2       1 UNK         0.0000 
     18 O18         0.0635   50.3268   19.4616 O.2       1 UNK         0.0000 
     19 C19         0.0744   48.0008   18.9011 C.3       1 UNK         0.0000 
     20 C20         1.0343   46.8729   18.4640 C.3       1 UNK         0.0000 
     21 C21         0.2122   45.6868   17.9220 C.3       1 UNK         0.0000 
     22 N22        -0.7346   45.2530   18.9782 N.am      1 UNK         0.0000 
     23 C23        -1.7252   46.2794   19.3782 C.3       1 UNK         0.0000 
     24 C24        -0.9718   47.5159   19.9324 C.3       1 UNK         0.0000 
     25 C25        -0.6307   44.0870   19.6802 C.2       1 UNK         0.0000 
     26 O26        -1.3169   43.8319   20.6747 O.2       1 UNK         0.0000 
     27 C27         0.3637   43.0392   19.2373 C.ar      1 UNK         0.0000 
     28 C28         0.3939   42.5779   17.9148 C.ar      1 UNK         0.0000 
     29 C29         1.3682   41.6714   17.5104 C.ar      1 UNK         0.0000 
     30 C30         2.3022   41.1913   18.4329 C.ar      1 UNK         0.0000 
     31 C31         2.2180   41.5850   19.7691 C.ar      1 UNK         0.0000 
     32 C32         1.2492   42.4963   20.1738 C.ar      1 UNK         0.0000 
     33 C33         3.4110   40.2317   18.0093 C.3       1 UNK         0.0000 
     34 F34         3.2494   39.7710   16.7668 F         1 UNK         0.0000 
     35 F35         4.5846   40.8594   18.0822 F         1 UNK         0.0000 
     36 F36         3.4267   39.1913   18.8390 F         1 UNK         0.0000 
     37 H37         5.2920   55.2953   27.1488 H         1 UNK         0.0000 
     38 H38         3.5883   55.2944   26.7015 H         1 UNK         0.0000 
     39 H39         4.3842   53.7789   27.1219 H         1 UNK         0.0000 
     40 H40         6.8637   55.3036   25.3882 H         1 UNK         0.0000 
     41 H41         7.5042   54.9510   23.0402 H         1 UNK         0.0000 
     42 H42         5.9046   53.9590   21.4649 H         1 UNK         0.0000 
     43 H43         2.0614   52.8458   24.0605 H         1 UNK         0.0000 
     44 H44         1.9226   54.4399   24.8256 H         1 UNK         0.0000 
     45 H45         2.5987   53.0644   25.6988 H         1 UNK         0.0000 
     46 H46         4.2411   52.7482   18.8309 H         1 UNK         0.0000 
     47 H47         2.7060   53.3863   19.4214 H         1 UNK         0.0000 
     48 H48         4.2083   54.1869   19.8379 H         1 UNK         0.0000 
     49 H49         3.2074   50.8308   18.8198 H         1 UNK         0.0000 
     50 H50         2.7052   48.5069   19.3824 H         1 UNK         0.0000 
     51 H51        -0.4799   48.3370   18.0218 H         1 UNK         0.0000 
     52 H52         1.6792   47.1961   17.6448 H         1 UNK         0.0000 
     53 H53         1.6256   46.5001   19.2999 H         1 UNK         0.0000 
     54 H54        -0.3908   46.0147   17.0745 H         1 UNK         0.0000 
     55 H55         0.8526   44.9097   17.5129 H         1 UNK         0.0000 
     56 H56        -2.2639   46.5614   18.4715 H         1 UNK         0.0000 
     57 H57        -2.4935   45.8985   20.0540 H         1 UNK         0.0000 
     58 H58        -0.4989   47.2056   20.8662 H         1 UNK         0.0000 
     59 H59        -1.7306   48.2769   20.1232 H         1 UNK         0.0000 
     60 H60        -0.3101   42.9502   17.1832 H         1 UNK         0.0000 
     61 H61         1.4032   41.3602   16.4767 H         1 UNK         0.0000 
     62 H62         2.9271   41.2031   20.4861 H         1 UNK         0.0000 
     63 H63         1.2192   42.8145   21.2066 H         1 UNK         0.0000 
@<TRIPOS>BOND
     1    1    2 1    
     2    1   37 1    
     3    1   38 1    
     4    1   39 1    
     5    2    7 ar   
     6    2    3 ar   
     7    3    4 ar   
     8    3   40 1    
     9    4    5 ar   
    10    4   41 1    
    11    5    6 ar   
    12    5   42 1    
    13    6    7 ar   
    14    6    9 1    
    15    7    8 1    
    16    8   43 1    
    17    8   44 1    
    18    8   45 1    
    19    9   10 1    
    20   10   11 1    
    21   10   12 1    
    22   10   13 1    
    23   12   46 1    
    24   12   47 1    
    25   12   48 1    
    26   13   14 2    
    27   13   15 am   BACKBONE|DICT|INTERRES
    28   15   16 1    
    29   15   49 1    
    30   16   17 am   BACKBONE|DICT|INTERRES
    31   16   50 1    
    32   17   18 2    
    33   17   19 1    
    34   19   24 1    
    35   19   20 1    
    36   19   51 1    
    37   20   21 1    
    38   20   52 1    
    39   20   53 1    
    40   21   22 1    
    41   21   54 1    
    42   21   55 1    
    43   22   23 1    
    44   22   25 am   BACKBONE|DICT|INTERRES
    45   23   24 1    
    46   23   56 1    
    47   23   57 1    
    48   24   58 1    
    49   24   59 1    
    50   25   26 2    
    51   25   27 1    
    52   27   32 ar   
    53   27   28 ar   
    54   28   29 ar   
    55   28   60 1    
    56   29   30 ar   
    57   29   61 1    
    58   30   31 ar   
    59   30   33 1    
    60   31   32 ar   
    61   31   62 1    
    62   32   63 1    
    63   33   34 1    
    64   33   35 1    
    65   33   36 1    
@<TRIPOS>SUBSTRUCTURE
     1 UNK         1 GROUP             0       ****    0 ROOT    
