ZINC35337733_1230
                    3D
 Schrodinger Suite 2024-2.
 63 66  0  0  1  0            999 V2000
    9.4152   56.5990   16.1657 C   0  0  0  0  0  0
    7.9972   56.2016   16.5683 C   0  0  0  0  0  0
    7.5778   55.0272   17.1012 C   0  0  0  0  0  0
    6.0903   54.7817   17.4460 C   0  0  2  0  0  0
    5.7929   53.8629   16.9378 H   0  0  0  0  0  0
    5.2478   55.8388   16.8295 N   0  0  0  0  0  0
    3.8240   55.4700   16.7008 C   0  0  0  0  0  0
    3.0612   56.4694   15.8078 C   0  0  0  0  0  0
    3.1598   57.9346   16.2592 C   0  0  0  0  0  0
    4.8728   58.4966   16.1850 S   0  0  0  0  0  0
    5.7425   57.0214   16.4211 C   0  0  0  0  0  0
    7.0632   57.1672   16.2920 N   0  3  0  0  0  0
    5.8093   54.5663   18.9363 C   0  0  0  0  0  0
    5.0503   53.4664   19.3426 C   0  0  0  0  0  0
    4.7475   53.2861   20.6869 C   0  0  0  0  0  0
    5.2159   54.1903   21.6432 C   0  0  0  0  0  0
    5.9953   55.2859   21.2418 C   0  0  0  0  0  0
    6.2817   55.4738   19.8906 C   0  0  0  0  0  0
    4.8108   53.9403   22.9641 N   0  0  0  0  0  0
    5.2161   54.4966   24.1273 C   0  0  0  0  0  0
    6.1866   55.2481   24.2400 O   0  0  0  0  0  0
    4.3658   54.1169   25.3270 C   0  0  0  0  0  0
    2.9908   53.8714   25.1622 C   0  0  0  0  0  0
    2.1876   53.5008   26.2370 C   0  0  0  0  0  0
    2.7325   53.3865   27.5193 C   0  0  0  0  0  0
    4.0859   53.6559   27.6944 C   0  0  0  0  0  0
    4.9212   54.0144   26.6194 C   0  0  0  0  0  0
    6.2767   54.2456   26.7811 O   0  0  0  0  0  0
    6.8387   54.1853   28.0820 C   0  0  0  0  0  0
    2.0235   53.0168   28.6454 O   0  0  0  0  0  0
    0.6518   52.6531   28.5175 C   0  0  0  0  0  0
    8.5072   53.9512   17.3934 C   0  0  0  0  0  0
    9.5132   54.1208   18.0804 O   0  0  0  0  0  0
    8.1819   52.7761   16.8323 N   0  0  0  0  0  0
    8.9662   51.5531   16.9576 C   0  0  0  0  0  0
    9.8182   57.3154   16.8834 H   0  0  0  0  0  0
   10.1009   55.7520   16.1270 H   0  0  0  0  0  0
    9.4332   57.0602   15.1759 H   0  0  0  0  0  0
    3.7545   54.4631   16.2857 H   0  0  0  0  0  0
    3.3985   55.4438   17.7052 H   0  0  0  0  0  0
    3.4173   56.3817   14.7796 H   0  0  0  0  0  0
    2.0098   56.1773   15.7765 H   0  0  0  0  0  0
    2.5677   58.5990   15.6271 H   0  0  0  0  0  0
    2.8134   58.0672   17.2817 H   0  0  0  0  0  0
    4.6869   52.7466   18.6212 H   0  0  0  0  0  0
    4.1447   52.4362   20.9736 H   0  0  0  0  0  0
    6.3662   56.0054   21.9539 H   0  0  0  0  0  0
    6.8717   56.3253   19.5834 H   0  0  0  0  0  0
    4.0732   53.2605   23.0489 H   0  0  0  0  0  0
    2.5158   53.9644   24.1951 H   0  0  0  0  0  0
    1.1414   53.3092   26.0565 H   0  0  0  0  0  0
    4.4764   53.5567   28.6948 H   0  0  0  0  0  0
    7.8827   54.4958   28.0432 H   0  0  0  0  0  0
    6.3033   54.8597   28.7560 H   0  0  0  0  0  0
    6.8087   53.1704   28.4802 H   0  0  0  0  0  0
    0.2682   52.3527   29.4936 H   0  0  0  0  0  0
    0.5196   51.8070   27.8408 H   0  0  0  0  0  0
    0.0451   53.4912   28.1702 H   0  0  0  0  0  0
    7.3347   52.7122   16.2914 H   0  0  0  0  0  0
    9.0024   51.0300   16.0020 H   0  0  0  0  0  0
    9.9925   51.7365   17.2814 H   0  0  0  0  0  0
    8.4936   50.8959   17.6839 H   0  0  0  0  0  0
    7.3761   58.0680   15.9598 H   0  0  0  0  0  0
  1  2  1  0  0  0
  1 36  1  0  0  0
  1 37  1  0  0  0
  1 38  1  0  0  0
  2 12  1  0  0  0
  2  3  2  0  0  0
  3  4  1  0  0  0
  3 32  1  0  0  0
  4  5  1  0  0  0
  4  6  1  0  0  0
  4 13  1  0  0  0
  6 11  1  0  0  0
  6  7  1  0  0  0
  7  8  1  0  0  0
  7 39  1  0  0  0
  7 40  1  0  0  0
  8  9  1  0  0  0
  8 41  1  0  0  0
  8 42  1  0  0  0
  9 10  1  0  0  0
  9 43  1  0  0  0
  9 44  1  0  0  0
 10 11  1  0  0  0
 11 12  2  0  0  0
 12 63  1  0  0  0
 13 18  2  0  0  0
 13 14  1  0  0  0
 14 15  2  0  0  0
 14 45  1  0  0  0
 15 16  1  0  0  0
 15 46  1  0  0  0
 16 17  2  0  0  0
 16 19  1  0  0  0
 17 18  1  0  0  0
 17 47  1  0  0  0
 18 48  1  0  0  0
 19 20  1  0  0  0
 19 49  1  0  0  0
 20 21  2  0  0  0
 20 22  1  0  0  0
 22 27  2  0  0  0
 22 23  1  0  0  0
 23 24  2  0  0  0
 23 50  1  0  0  0
 24 25  1  0  0  0
 24 51  1  0  0  0
 25 26  2  0  0  0
 25 30  1  0  0  0
 26 27  1  0  0  0
 26 52  1  0  0  0
 27 28  1  0  0  0
 28 29  1  0  0  0
 29 53  1  0  0  0
 29 54  1  0  0  0
 29 55  1  0  0  0
 30 31  1  0  0  0
 31 56  1  0  0  0
 31 57  1  0  0  0
 31 58  1  0  0  0
 32 33  2  0  0  0
 32 34  1  0  0  0
 34 35  1  0  0  0
 34 59  1  0  0  0
 35 60  1  0  0  0
 35 61  1  0  0  0
 35 62  1  0  0  0
M  CHG  1  12   1
M  END
> <i_i_glide_confnum>
269

> <i_i_glide_lignum>
1231

> <i_i_glide_posenum>
212

> <i_i_glide_rotatable_bonds>
8

> <i_m_Source_File_Index>
3936

> <b_m_subgroup_collapsed>
0

> <r_i_docking_score>
-4.91792

> <r_i_glide_ecoul>
-3.56705

> <r_i_glide_eff_state_penalty>
0

> <r_i_glide_einternal>
10.707

> <r_i_glide_emodel>
-54.8909

> <r_i_glide_energy>
-45.2408

> <r_i_glide_erotb>
0.437366

> <r_i_glide_esite>
-0.005385

> <r_i_glide_evdw>
-41.6737

> <r_i_glide_gscore>
-4.91792

> <r_i_glide_hbond>
0

> <r_i_glide_ligand_efficiency>
-0.144645

> <r_i_glide_ligand_efficiency_ln>
-1.08651

> <r_i_glide_ligand_efficiency_sa>
-0.468593

> <r_i_glide_lipo>
-2.14799

> <r_i_glide_metal>
0

> <r_i_glide_rewards>
-0.583175

> <s_i_glide_gridfile>
wee1_glide-grid

> <s_m_Source_File>
wee1_decoys_glide_SP.sdf

> <s_m_Source_Path>
/Users/zhangxujun/Desktop

> <s_m_entry_id>
4211

> <s_m_entry_name>
wee1_decoys_glide_SP.3936

> <s_m_subgroup_title>
wee1_decoys_glide_SP

> <s_m_subgroupid>
wee1_decoys_glide_SP


$$$$
