@<TRIPOS>MOLECULE
ZINC63152673_2941
61   64    1
SMALL
USER_CHARGES


@<TRIPOS>ATOM
      1 C1          5.3725   54.2297   28.1174 C.3       1 UNK         0.0000 
      2 O2          5.0367   54.2028   26.7336 O.3       1 UNK         0.0000 
      3 C3          5.9636   54.5455   25.8022 C.2       1 UNK         0.0000 
      4 O4          7.1043   54.9035   26.0928 O.2       1 UNK         0.0000 
      5 C5          5.4894   54.4235   24.3861 C.ar      1 UNK         0.0000 
      6 C6          6.3900   54.6297   23.3301 C.ar      1 UNK         0.0000 
      7 C7          5.9723   54.5068   22.0051 C.ar      1 UNK         0.0000 
      8 C8          4.6555   54.1717   21.7055 C.ar      1 UNK         0.0000 
      9 C9          3.7461   53.9635   22.7466 C.ar      1 UNK         0.0000 
     10 C10         4.1629   54.0956   24.0744 C.ar      1 UNK         0.0000 
     11 N11         2.4166   53.6277   22.4806 N.am      1 UNK         0.0000 
     12 C12         1.9705   52.3571   22.4167 C.2       1 UNK         0.0000 
     13 O13         2.7031   51.3649   22.4752 O.2       1 UNK         0.0000 
     14 C14         0.4338   52.1907   22.2868 C.3       1 UNK         0.0000 
     15 H15         0.1235   52.8391   21.4628 H         1 UNK         0.0000 
     16 C16        -0.3020   52.6773   23.5847 C.3       1 UNK         0.0000 
     17 C17        -0.1112   51.8256   24.8441 C.2       1 UNK         0.0000 
     18 C18         0.5258   52.1158   25.9946 C.2       1 UNK         0.0000 
     19 C19         1.3430   53.2789   26.3724 C.2       1 UNK         0.0000 
     20 C20         1.8352   53.4093   27.6191 C.2       1 UNK         0.0000 
     21 C21         1.5158   52.3712   28.5877 C.2       1 UNK         0.0000 
     22 C22         0.7449   51.3011   28.2627 C.2       1 UNK         0.0000 
     23 C23         0.2442   51.1495   26.9649 C.2       1 UNK         0.0000 
     24 N24        -0.5260   50.2066   26.4797 N.pl3     1 UNK         0.0000 
     25 C25        -0.8187   50.4973   25.0616 C.3       1 UNK         0.0000 
     26 N26         0.0983   50.8090   21.9018 N.am      1 UNK         0.0000 
     27 C27        -1.1966   50.4333   21.5852 C.2       1 UNK         0.0000 
     28 O28        -2.1853   51.1702   21.5368 O.2       1 UNK         0.0000 
     29 O29        -1.2158   49.1007   21.3944 O.3       1 UNK         0.0000 
     30 C30        -2.4222   48.3512   21.5239 C.3       1 UNK         0.0000 
     31 C31        -2.6975   48.0516   22.9920 C.ar      1 UNK         0.0000 
     32 C32        -1.7853   47.2884   23.7250 C.ar      1 UNK         0.0000 
     33 C33        -2.0084   47.0500   25.0779 C.ar      1 UNK         0.0000 
     34 C34        -3.1453   47.5683   25.6903 C.ar      1 UNK         0.0000 
     35 C35        -4.0650   48.3190   24.9620 C.ar      1 UNK         0.0000 
     36 C36        -3.8415   48.5623   23.6091 C.ar      1 UNK         0.0000 
     37 F37         4.2758   54.0586   20.4119 F         1 UNK         0.0000 
     38 H38         4.5300   53.8911   28.7184 H         1 UNK         0.0000 
     39 H39         6.2172   53.5719   28.3286 H         1 UNK         0.0000 
     40 H40         5.6363   55.2390   28.4389 H         1 UNK         0.0000 
     41 H41         7.4240   54.8844   23.5223 H         1 UNK         0.0000 
     42 H42         6.6741   54.6761   21.2018 H         1 UNK         0.0000 
     43 H43         3.4567   53.9114   24.8634 H         1 UNK         0.0000 
     44 H44         1.7771   54.3866   22.2976 H         1 UNK         0.0000 
     45 H45        -1.3747   52.7424   23.3996 H         1 UNK         0.0000 
     46 H46        -0.0096   53.7018   23.8172 H         1 UNK         0.0000 
     47 H47         1.5250   54.0778   25.6715 H         1 UNK         0.0000 
     48 H48         2.4078   54.2805   27.9016 H         1 UNK         0.0000 
     49 H49         1.8684   52.4752   29.6040 H         1 UNK         0.0000 
     50 H50         0.4952   50.5932   29.0361 H         1 UNK         0.0000 
     51 H51        -0.4119   49.6811   24.4639 H         1 UNK         0.0000 
     52 H52        -1.9019   50.5431   24.9414 H         1 UNK         0.0000 
     53 H53         0.8078   50.0976   22.0073 H         1 UNK         0.0000 
     54 H54        -3.2667   48.8675   21.0643 H         1 UNK         0.0000 
     55 H55        -2.3100   47.4051   20.9933 H         1 UNK         0.0000 
     56 H56        -0.8954   46.9001   23.2522 H         1 UNK         0.0000 
     57 H57        -1.2955   46.4841   25.6627 H         1 UNK         0.0000 
     58 H58        -3.3035   47.3969   26.7467 H         1 UNK         0.0000 
     59 H59        -4.9415   48.7196   25.4506 H         1 UNK         0.0000 
     60 H60        -4.5479   49.1589   23.0493 H         1 UNK         0.0000 
     61 H61        -0.8953   49.4097   27.0144 H         1 UNK         0.0000 
@<TRIPOS>BOND
     1    1    2 1    
     2    1   38 1    
     3    1   39 1    
     4    1   40 1    
     5    2    3 1    
     6    3    4 2    
     7    3    5 1    
     8    5   10 ar   
     9    5    6 ar   
    10    6    7 ar   
    11    6   41 1    
    12    7    8 ar   
    13    7   42 1    
    14    8    9 ar   
    15    8   37 1    
    16    9   10 ar   
    17    9   11 1    
    18   10   43 1    
    19   11   12 am   BACKBONE|DICT|INTERRES
    20   11   44 1    
    21   12   13 2    
    22   12   14 1    
    23   14   15 1    
    24   14   16 1    
    25   14   26 1    
    26   16   17 1    
    27   16   45 1    
    28   16   46 1    
    29   17   25 1    
    30   17   18 2    
    31   18   23 1    
    32   18   19 1    
    33   19   20 2    
    34   19   47 1    
    35   20   21 1    
    36   20   48 1    
    37   21   22 2    
    38   21   49 1    
    39   22   23 1    
    40   22   50 1    
    41   23   24 2    
    42   24   25 1    
    43   24   61 1    
    44   25   51 1    
    45   25   52 1    
    46   26   27 am   BACKBONE|DICT|INTERRES
    47   26   53 1    
    48   27   28 2    
    49   27   29 1    
    50   29   30 1    
    51   30   31 1    
    52   30   54 1    
    53   30   55 1    
    54   31   36 ar   
    55   31   32 ar   
    56   32   33 ar   
    57   32   56 1    
    58   33   34 ar   
    59   33   57 1    
    60   34   35 ar   
    61   34   58 1    
    62   35   36 ar   
    63   35   59 1    
    64   36   60 1    
@<TRIPOS>SUBSTRUCTURE
     1 UNK         1 GROUP             0       ****    0 ROOT    
