ZINC01035457_3561
                    3D
 Schrodinger Suite 2024-2.
 39 41  0  0  1  0            999 V2000
    0.7359   52.7883   27.4566 C   0  0  0  0  0  0
    2.0276   52.7698   28.2572 C   0  0  0  0  0  0
    1.9426   52.2649   29.5614 C   0  0  0  0  0  0
    3.0813   52.1997   30.3576 C   0  0  0  0  0  0
    4.3044   52.5874   29.9412 N   0  0  0  0  0  0
    4.3840   53.0965   28.7143 C   0  0  0  0  0  0
    3.2992   53.2260   27.7961 C   0  0  0  0  0  0
    3.7583   53.8158   26.5580 C   0  0  0  0  0  0
    5.1346   54.0999   26.5563 C   0  0  0  0  0  0
    5.8962   53.6968   28.0816 S   0  0  0  0  0  0
    6.0123   54.6317   25.5288 C   0  0  0  0  0  0
    7.1042   55.1285   25.8258 O   0  0  0  0  0  0
    5.5811   54.4818   24.2603 N   0  0  0  0  0  0
    6.3206   54.8966   23.2122 N   0  0  0  0  0  0
    5.7471   54.7985   22.0821 C   0  0  0  0  0  0
    6.3796   55.2457   20.8327 C   0  0  0  0  0  0
    5.6472   55.2077   19.6397 C   0  0  0  0  0  0
    6.2272   55.6145   18.4405 C   0  0  0  0  0  0
    7.5480   56.0566   18.4242 C   0  0  0  0  0  0
    8.2930   56.0954   19.5990 C   0  0  0  0  0  0
    7.7096   55.6956   20.7973 C   0  0  0  0  0  0
    8.2669   56.5581   16.9386 Cl  0  0  0  0  0  0
    2.9228   54.0949   25.5037 N   0  0  0  0  0  0
    3.0287   51.6967   31.7887 C   0  0  0  0  0  0
    0.9047   52.7045   26.3847 H   0  0  0  0  0  0
    0.1782   53.6966   27.6812 H   0  0  0  0  0  0
    0.1042   51.9394   27.7238 H   0  0  0  0  0  0
    0.9924   51.9305   29.9551 H   0  0  0  0  0  0
    4.6936   54.0514   24.0485 H   0  0  0  0  0  0
    4.7445   54.3883   21.9668 H   0  0  0  0  0  0
    4.6219   54.8631   19.6273 H   0  0  0  0  0  0
    5.6544   55.5826   17.5253 H   0  0  0  0  0  0
    9.3210   56.4300   19.5829 H   0  0  0  0  0  0
    8.3079   55.7261   21.6972 H   0  0  0  0  0  0
    3.1859   54.7096   24.7480 H   0  0  0  0  0  0
    1.9497   53.8241   25.5261 H   0  0  0  0  0  0
    2.0497   51.2980   32.0606 H   0  0  0  0  0  0
    3.7739   50.9199   31.9640 H   0  0  0  0  0  0
    3.2621   52.4967   32.4814 H   0  0  0  0  0  0
  1  2  1  0  0  0
  1 25  1  0  0  0
  1 26  1  0  0  0
  1 27  1  0  0  0
  2  7  2  0  0  0
  2  3  1  0  0  0
  3  4  2  0  0  0
  3 28  1  0  0  0
  4  5  1  0  0  0
  4 24  1  0  0  0
  5  6  2  0  0  0
  6 10  1  0  0  0
  6  7  1  0  0  0
  7  8  1  0  0  0
  8  9  2  0  0  0
  8 23  1  0  0  0
  9 10  1  0  0  0
  9 11  1  0  0  0
 11 12  2  0  0  0
 11 13  1  0  0  0
 13 14  1  0  0  0
 13 29  1  0  0  0
 14 15  2  0  0  0
 15 16  1  0  0  0
 15 30  1  0  0  0
 16 21  2  0  0  0
 16 17  1  0  0  0
 17 18  2  0  0  0
 17 31  1  0  0  0
 18 19  1  0  0  0
 18 32  1  0  0  0
 19 20  2  0  0  0
 19 22  1  0  0  0
 20 21  1  0  0  0
 20 33  1  0  0  0
 21 34  1  0  0  0
 23 35  1  0  0  0
 23 36  1  0  0  0
 24 37  1  0  0  0
 24 38  1  0  0  0
 24 39  1  0  0  0
M  END
> <i_i_glide_confnum>
2

> <i_i_glide_lignum>
3562

> <i_i_glide_posenum>
376

> <i_i_glide_rotatable_bonds>
4

> <i_m_Source_File_Index>
1057

> <b_m_subgroup_collapsed>
0

> <r_i_docking_score>
-6.74836

> <r_i_glide_ecoul>
-5.26528

> <r_i_glide_eff_state_penalty>
0

> <r_i_glide_einternal>
4.14041

> <r_i_glide_emodel>
-62.3436

> <r_i_glide_energy>
-45.6784

> <r_i_glide_erotb>
0.446388

> <r_i_glide_esite>
0

> <r_i_glide_evdw>
-40.4132

> <r_i_glide_gscore>
-6.74836

> <r_i_glide_hbond>
-0.32

> <r_i_glide_ligand_efficiency>
-0.281182

> <r_i_glide_ligand_efficiency_ln>
-1.61519

> <r_i_glide_ligand_efficiency_sa>
-0.811068

> <r_i_glide_lipo>
-2.3229

> <r_i_glide_metal>
0

> <r_i_glide_rewards>
-1.7414

> <s_i_glide_gridfile>
wee1_glide-grid

> <s_m_Source_File>
wee1_decoys_glide_SP.sdf

> <s_m_Source_Path>
/Users/zhangxujun/Desktop

> <s_m_entry_id>
1332

> <s_m_entry_name>
wee1_decoys_glide_SP.1057

> <s_m_subgroup_title>
wee1_decoys_glide_SP

> <s_m_subgroupid>
wee1_decoys_glide_SP


$$$$
