ZINC14836498_3611
                    3D
 Schrodinger Suite 2024-2.
 50 51  0  0  1  0            999 V2000
    6.6738   55.2488   25.2176 C   0  0  0  0  0  0
    5.3608   54.6330   25.7302 C   0  0  0  0  0  0
    5.2914   54.4000   27.2583 C   0  0  2  0  0  0
    5.4004   55.3733   27.7375 H   0  0  0  0  0  0
    6.4248   53.5031   27.7936 C   0  0  0  0  0  0
    3.9730   53.8688   27.6131 N   0  0  0  0  0  0
    3.3908   53.9251   28.8265 C   0  0  0  0  0  0
    3.9112   54.4935   29.7861 O   0  0  0  0  0  0
    2.0457   53.2465   28.9730 C   0  0  0  0  0  0
    1.2608   53.4789   30.1138 C   0  0  0  0  0  0
    0.0629   52.7962   30.3113 C   0  0  0  0  0  0
   -0.3966   51.9023   29.3488 C   0  0  0  0  0  0
    0.3383   51.6927   28.1816 C   0  0  0  0  0  0
    1.5667   52.3431   28.0102 C   0  0  0  0  0  0
   -0.1523   50.7331   27.2816 N   0  0  0  0  0  0
   -0.1478   50.6375   25.9213 C   0  0  0  0  0  0
    0.3383   51.8708   24.8761 S   0  0  0  0  0  0
   -0.6567   49.4181   25.5572 N   0  0  0  0  0  0
   -0.6718   48.7737   24.3659 C   0  0  0  0  0  0
    0.1902   48.8962   23.4930 O   0  0  0  0  0  0
   -1.8546   47.8549   24.1597 C   0  0  0  0  0  0
   -2.3080   47.0452   25.2175 C   0  0  0  0  0  0
   -3.4237   46.2270   25.0535 C   0  0  0  0  0  0
   -4.0938   46.1969   23.8363 C   0  0  0  0  0  0
   -3.6474   46.9801   22.7762 C   0  0  0  0  0  0
   -2.5292   47.8201   22.9192 C   0  0  0  0  0  0
   -2.0818   48.6404   21.8963 O   0  0  0  0  0  0
   -2.7408   48.6384   20.6349 C   0  0  0  0  0  0
   -4.0281   45.1271   26.4824 Br  0  0  0  0  0  0
    6.5934   55.5117   24.1617 H   0  0  0  0  0  0
    7.5030   54.5486   25.3069 H   0  0  0  0  0  0
    6.9283   56.1557   25.7647 H   0  0  0  0  0  0
    4.5423   55.2957   25.4410 H   0  0  0  0  0  0
    5.1768   53.6953   25.2023 H   0  0  0  0  0  0
    7.4072   53.8921   27.5262 H   0  0  0  0  0  0
    6.4051   53.4422   28.8819 H   0  0  0  0  0  0
    6.3590   52.4967   27.3835 H   0  0  0  0  0  0
    3.4482   53.4555   26.8590 H   0  0  0  0  0  0
    1.5780   54.1711   30.8787 H   0  0  0  0  0  0
   -0.4981   52.9444   31.2234 H   0  0  0  0  0  0
   -1.3167   51.3618   29.5251 H   0  0  0  0  0  0
    2.1633   52.1020   27.1436 H   0  0  0  0  0  0
   -0.6622   49.9889   27.7474 H   0  0  0  0  0  0
   -1.2953   49.0282   26.2374 H   0  0  0  0  0  0
   -1.8052   47.0461   26.1783 H   0  0  0  0  0  0
   -4.9638   45.5688   23.7120 H   0  0  0  0  0  0
   -4.1964   46.9303   21.8486 H   0  0  0  0  0  0
   -2.2369   49.3393   19.9701 H   0  0  0  0  0  0
   -2.7041   47.6552   20.1649 H   0  0  0  0  0  0
   -3.7800   48.9592   20.7253 H   0  0  0  0  0  0
  1  2  1  0  0  0
  1 30  1  0  0  0
  1 31  1  0  0  0
  1 32  1  0  0  0
  2  3  1  0  0  0
  2 33  1  0  0  0
  2 34  1  0  0  0
  3  4  1  0  0  0
  3  5  1  0  0  0
  3  6  1  0  0  0
  5 35  1  0  0  0
  5 36  1  0  0  0
  5 37  1  0  0  0
  6  7  1  0  0  0
  6 38  1  0  0  0
  7  8  2  0  0  0
  7  9  1  0  0  0
  9 14  2  0  0  0
  9 10  1  0  0  0
 10 11  2  0  0  0
 10 39  1  0  0  0
 11 12  1  0  0  0
 11 40  1  0  0  0
 12 13  2  0  0  0
 12 41  1  0  0  0
 13 14  1  0  0  0
 13 15  1  0  0  0
 14 42  1  0  0  0
 15 16  1  0  0  0
 15 43  1  0  0  0
 16 17  2  0  0  0
 16 18  1  0  0  0
 18 19  1  0  0  0
 18 44  1  0  0  0
 19 20  2  0  0  0
 19 21  1  0  0  0
 21 26  2  0  0  0
 21 22  1  0  0  0
 22 23  2  0  0  0
 22 45  1  0  0  0
 23 24  1  0  0  0
 23 29  1  0  0  0
 24 25  2  0  0  0
 24 46  1  0  0  0
 25 26  1  0  0  0
 25 47  1  0  0  0
 26 27  1  0  0  0
 27 28  1  0  0  0
 28 48  1  0  0  0
 28 49  1  0  0  0
 28 50  1  0  0  0
M  END
> <i_i_glide_confnum>
33

> <i_i_glide_lignum>
3612

> <i_i_glide_posenum>
144

> <i_i_glide_rotatable_bonds>
10

> <i_m_Source_File_Index>
1280

> <b_m_subgroup_collapsed>
0

> <r_i_docking_score>
-4.81114

> <r_i_glide_ecoul>
-7.04753

> <r_i_glide_eff_state_penalty>
0

> <r_i_glide_einternal>
1.90141

> <r_i_glide_emodel>
-59.3209

> <r_i_glide_energy>
-46.6907

> <r_i_glide_erotb>
0.747853

> <r_i_glide_esite>
-0.230337

> <r_i_glide_evdw>
-39.6431

> <r_i_glide_gscore>
-4.81114

> <r_i_glide_hbond>
-0.392924

> <r_i_glide_ligand_efficiency>
-0.171827

> <r_i_glide_ligand_efficiency_ln>
-1.11055

> <r_i_glide_ligand_efficiency_sa>
-0.521767

> <r_i_glide_lipo>
-1.71322

> <r_i_glide_metal>
0

> <r_i_glide_rewards>
-0.183229

> <s_i_glide_gridfile>
wee1_glide-grid

> <s_m_Source_File>
wee1_decoys_glide_SP.sdf

> <s_m_Source_Path>
/Users/zhangxujun/Desktop

> <s_m_entry_id>
1555

> <s_m_entry_name>
wee1_decoys_glide_SP.1280

> <s_m_subgroup_title>
wee1_decoys_glide_SP

> <s_m_subgroupid>
wee1_decoys_glide_SP


$$$$
