@<TRIPOS>MOLECULE
ZINC63625931_909
73   77    1
SMALL
USER_CHARGES


@<TRIPOS>ATOM
      1 C1          2.0829   47.9838   19.3556 C.3       1 UNK         0.0000 
      2 C2          1.8909   49.0442   20.4315 C.2       1 UNK         0.0000 
      3 O3          1.0107   48.8968   21.2757 O.2       1 UNK         0.0000 
      4 N4          2.7103   50.1058   20.3618 N.am      1 UNK         0.0000 
      5 C5          2.7722   51.3362   21.1868 C.3       1 UNK         0.0000 
      6 H6          3.5119   51.0909   21.9506 H         1 UNK         0.0000 
      7 C7          1.4619   51.6975   21.9263 C.3       1 UNK         0.0000 
      8 C8          1.4101   53.1095   22.5223 C.3       1 UNK         0.0000 
      9 C9          2.6345   53.5205   23.3320 C.ar      1 UNK         0.0000 
     10 C10         2.4769   53.7004   24.7079 C.ar      1 UNK         0.0000 
     11 C11         3.5344   54.0974   25.5265 C.ar      1 UNK         0.0000 
     12 C12         4.7930   54.2776   24.9531 C.ar      1 UNK         0.0000 
     13 C13         4.9958   54.0380   23.5786 C.ar      1 UNK         0.0000 
     14 C14         3.9075   53.6946   22.7268 C.ar      1 UNK         0.0000 
     15 C15         4.0912   53.5746   21.2146 C.ar      1 UNK         0.0000 
     16 C16         3.3517   52.5526   20.4254 C.ar      1 UNK         0.0000 
     17 C17         3.1561   52.5707   19.0774 C.ar      1 UNK         0.0000 
     18 C18         3.6161   53.4151   17.9884 C.ar      1 UNK         0.0000 
     19 O19         3.0042   53.3451   16.9150 O.2       1 UNK         0.0000 
     20 C20         4.8045   54.2705   18.1419 C.ar      1 UNK         0.0000 
     21 C21         5.3561   54.7087   19.2897 C.ar      1 UNK         0.0000 
     22 C22         4.9192   54.4972   20.6568 C.ar      1 UNK         0.0000 
     23 N23         5.3591   54.5522   16.9010 N.pl3     1 UNK         0.0000 
     24 C24         6.5439   55.3393   16.5765 C.3       1 UNK         0.0000 
     25 C25         7.8678   54.5486   16.6327 C.3       1 UNK         0.0000 
     26 C26         8.0844   53.5141   15.5352 C.2       1 UNK         0.0000 
     27 C27         8.6836   52.3084   15.5720 C.2       1 UNK         0.0000 
     28 C28         9.3182   51.5849   16.6809 C.2       1 UNK         0.0000 
     29 C29         9.9101   50.3903   16.4815 C.2       1 UNK         0.0000 
     30 C30         9.9032   49.8419   15.1349 C.2       1 UNK         0.0000 
     31 C31         9.3168   50.4916   14.0965 C.2       1 UNK         0.0000 
     32 C32         8.6982   51.7331   14.2983 C.2       1 UNK         0.0000 
     33 N33         8.0975   52.5148   13.4361 N.pl3     1 UNK         0.0000 
     34 C34         7.6288   53.7393   14.1062 C.3       1 UNK         0.0000 
     35 O35         6.2825   54.0105   23.0721 O.3       1 UNK         0.0000 
     36 C36         7.0713   55.1897   23.1954 C.3       1 UNK         0.0000 
     37 O37         5.8187   54.7157   25.7612 O.3       1 UNK         0.0000 
     38 C38         6.4897   53.6978   26.4846 C.3       1 UNK         0.0000 
     39 O39         3.4189   54.3114   26.8901 O.3       1 UNK         0.0000 
     40 C40         2.2290   53.9269   27.5703 C.3       1 UNK         0.0000 
     41 H41         1.4196   48.1840   18.5162 H         1 UNK         0.0000 
     42 H42         3.1054   47.9683   18.9817 H         1 UNK         0.0000 
     43 H43         1.8458   46.9963   19.7500 H         1 UNK         0.0000 
     44 H44         3.4086   50.0727   19.6284 H         1 UNK         0.0000 
     45 H45         1.2961   50.9772   22.7292 H         1 UNK         0.0000 
     46 H46         0.6158   51.5898   21.2440 H         1 UNK         0.0000 
     47 H47         0.5106   53.1892   23.1352 H         1 UNK         0.0000 
     48 H48         1.2605   53.8357   21.7311 H         1 UNK         0.0000 
     49 H49         1.4982   53.5487   25.1365 H         1 UNK         0.0000 
     50 H50         2.5629   51.7757   18.6502 H         1 UNK         0.0000 
     51 H51         6.2596   55.2930   19.2099 H         1 UNK         0.0000 
     52 H52         5.2986   55.2650   21.3059 H         1 UNK         0.0000 
     53 H53         4.9799   54.0345   16.1182 H         1 UNK         0.0000 
     54 H54         6.4003   55.7812   15.5905 H         1 UNK         0.0000 
     55 H55         6.5972   56.1909   17.2558 H         1 UNK         0.0000 
     56 H56         8.6895   55.2621   16.5526 H         1 UNK         0.0000 
     57 H57         7.9809   54.0737   17.6079 H         1 UNK         0.0000 
     58 H58         9.3325   51.9899   17.6801 H         1 UNK         0.0000 
     59 H59        10.3770   49.8622   17.2995 H         1 UNK         0.0000 
     60 H60        10.3895   48.8949   14.9509 H         1 UNK         0.0000 
     61 H61         9.3567   50.0389   13.1167 H         1 UNK         0.0000 
     62 H62         6.5449   53.7923   13.9915 H         1 UNK         0.0000 
     63 H63         8.1026   54.5945   13.6242 H         1 UNK         0.0000 
     64 H64         7.8868   55.1530   22.4710 H         1 UNK         0.0000 
     65 H65         7.5040   55.2741   24.1878 H         1 UNK         0.0000 
     66 H66         6.5052   56.0955   23.0001 H         1 UNK         0.0000 
     67 H67         7.1540   54.1537   27.2206 H         1 UNK         0.0000 
     68 H68         5.8053   53.0372   27.0212 H         1 UNK         0.0000 
     69 H69         7.1044   53.1031   25.8110 H         1 UNK         0.0000 
     70 H70         2.3747   54.0599   28.6423 H         1 UNK         0.0000 
     71 H71         1.3792   54.5431   27.2814 H         1 UNK         0.0000 
     72 H72         1.9883   52.8768   27.4020 H         1 UNK         0.0000 
     73 H73         7.9823   52.3230   12.4460 H         1 UNK         0.0000 
@<TRIPOS>BOND
     1    1    2 1    
     2    1   41 1    
     3    1   42 1    
     4    1   43 1    
     5    2    3 2    
     6    2    4 am   BACKBONE|DICT|INTERRES
     7    4    5 1    
     8    4   44 1    
     9    5    6 1    
    10    5   16 1    
    11    5    7 1    
    12    7    8 1    
    13    7   45 1    
    14    7   46 1    
    15    8    9 1    
    16    8   47 1    
    17    8   48 1    
    18    9   14 ar   
    19    9   10 ar   
    20   10   11 ar   
    21   10   49 1    
    22   11   12 ar   
    23   11   39 1    
    24   12   13 ar   
    25   12   37 1    
    26   13   14 ar   
    27   13   35 1    
    28   14   15 1    
    29   15   22 ar   
    30   15   16 ar   
    31   16   17 ar   
    32   17   18 ar   
    33   17   50 1    
    34   18   19 2    
    35   18   20 ar   
    36   20   21 ar   
    37   20   23 1    
    38   21   22 ar   
    39   21   51 1    
    40   22   52 1    
    41   23   24 1    
    42   23   53 1    
    43   24   25 1    
    44   24   54 1    
    45   24   55 1    
    46   25   26 1    
    47   25   56 1    
    48   25   57 1    
    49   26   34 1    
    50   26   27 2    
    51   27   32 1    
    52   27   28 1    
    53   28   29 2    
    54   28   58 1    
    55   29   30 1    
    56   29   59 1    
    57   30   31 2    
    58   30   60 1    
    59   31   32 1    
    60   31   61 1    
    61   32   33 2    
    62   33   34 1    
    63   33   73 1    
    64   34   62 1    
    65   34   63 1    
    66   35   36 1    
    67   36   64 1    
    68   36   65 1    
    69   36   66 1    
    70   37   38 1    
    71   38   67 1    
    72   38   68 1    
    73   38   69 1    
    74   39   40 1    
    75   40   70 1    
    76   40   71 1    
    77   40   72 1    
@<TRIPOS>SUBSTRUCTURE
     1 UNK         1 GROUP             0       ****    0 ROOT    
