@<TRIPOS>MOLECULE
ZINC15560659_425
45   47    1
SMALL
USER_CHARGES


@<TRIPOS>ATOM
      1 C1          0.4926   52.4606   31.1474 C.3       1 UNK         0.0000 
      2 N2          1.2008   52.8754   29.9374 N.am      1 UNK         0.0000 
      3 C3          2.5191   52.7212   29.7193 C.2       1 UNK         0.0000 
      4 O4          3.2803   52.2264   30.5545 O.2       1 UNK         0.0000 
      5 C5          3.0485   53.2169   28.3897 C.ar      1 UNK         0.0000 
      6 C6          4.3994   53.5685   28.2704 C.ar      1 UNK         0.0000 
      7 C7          4.9268   53.9672   27.0447 C.ar      1 UNK         0.0000 
      8 C8          4.1112   54.0108   25.9022 C.ar      1 UNK         0.0000 
      9 C9          2.7559   53.6968   26.0258 C.ar      1 UNK         0.0000 
     10 C10         2.2280   53.3013   27.2539 C.ar      1 UNK         0.0000 
     11 N11         4.5627   54.3120   24.5970 N.am      1 UNK         0.0000 
     12 C12         5.8244   54.4967   24.1421 C.2       1 UNK         0.0000 
     13 O13         6.8248   54.5090   24.8619 O.2       1 UNK         0.0000 
     14 C14         5.9720   54.7503   22.6525 C.ar      1 UNK         0.0000 
     15 C15         7.1044   55.4305   22.1927 C.ar      1 UNK         0.0000 
     16 C16         7.2855   55.6968   20.8431 C.ar      1 UNK         0.0000 
     17 C17         6.3303   55.2980   19.9137 C.ar      1 UNK         0.0000 
     18 C18         5.1837   54.6246   20.3524 C.ar      1 UNK         0.0000 
     19 C19         5.0094   54.3450   21.7108 C.ar      1 UNK         0.0000 
     20 N20         6.6110   55.6065   18.5746 N.pl3     1 UNK         0.0000 
     21 S21         5.7432   55.0178   17.1493 S.o2      1 UNK         0.0000 
     22 O22         6.6411   55.2362   16.0111 O.2       1 UNK         0.0000 
     23 O23         5.1821   53.6955   17.4381 O.2       1 UNK         0.0000 
     24 C24         4.3868   56.1870   16.9379 C.2       1 UNK         0.0000 
     25 C25         4.5253   57.5558   16.7368 C.2       1 UNK         0.0000 
     26 C26         3.3022   58.1852   16.4820 C.2       1 UNK         0.0000 
     27 C27         2.2330   57.2969   16.4816 C.2       1 UNK         0.0000 
     28 S28         2.7319   55.6760   16.8513 S.3       1 UNK         0.0000 
     29 Br29        0.3988   57.6818   16.1518 Br        1 UNK         0.0000 
     30 H30        -0.4566   51.9935   30.8814 H         1 UNK         0.0000 
     31 H31         0.2744   53.3236   31.7762 H         1 UNK         0.0000 
     32 H32         1.0542   51.7397   31.7458 H         1 UNK         0.0000 
     33 H33         0.6482   53.3237   29.2241 H         1 UNK         0.0000 
     34 H34         5.0602   53.5178   29.1249 H         1 UNK         0.0000 
     35 H35         5.9763   54.2096   27.0169 H         1 UNK         0.0000 
     36 H36         2.1048   53.7221   25.1637 H         1 UNK         0.0000 
     37 H37         1.1832   53.0278   27.2961 H         1 UNK         0.0000 
     38 H38         3.8369   54.3492   23.8998 H         1 UNK         0.0000 
     39 H39         7.8614   55.7731   22.8811 H         1 UNK         0.0000 
     40 H40         8.1863   56.2018   20.5251 H         1 UNK         0.0000 
     41 H41         4.4177   54.3139   19.6580 H         1 UNK         0.0000 
     42 H42         4.1184   53.8121   22.0096 H         1 UNK         0.0000 
     43 H43         7.4025   56.2008   18.3858 H         1 UNK         0.0000 
     44 H44         5.4727   58.0761   16.7495 H         1 UNK         0.0000 
     45 H45         3.2039   59.2471   16.2972 H         1 UNK         0.0000 
@<TRIPOS>BOND
     1    1    2 1    
     2    1   30 1    
     3    1   31 1    
     4    1   32 1    
     5    2    3 am   BACKBONE|DICT|INTERRES
     6    2   33 1    
     7    3    4 2    
     8    3    5 1    
     9    5   10 ar   
    10    5    6 ar   
    11    6    7 ar   
    12    6   34 1    
    13    7    8 ar   
    14    7   35 1    
    15    8    9 ar   
    16    8   11 1    
    17    9   10 ar   
    18    9   36 1    
    19   10   37 1    
    20   11   12 am   BACKBONE|DICT|INTERRES
    21   11   38 1    
    22   12   13 2    
    23   12   14 1    
    24   14   19 ar   
    25   14   15 ar   
    26   15   16 ar   
    27   15   39 1    
    28   16   17 ar   
    29   16   40 1    
    30   17   18 ar   
    31   17   20 1    
    32   18   19 ar   
    33   18   41 1    
    34   19   42 1    
    35   20   21 1    
    36   20   43 1    
    37   21   22 2    
    38   21   23 2    
    39   21   24 1    
    40   24   28 1    
    41   24   25 2    
    42   25   26 1    
    43   25   44 1    
    44   26   27 2    
    45   26   45 1    
    46   27   28 1    
    47   27   29 1    
@<TRIPOS>SUBSTRUCTURE
     1 UNK         1 GROUP             0       ****    0 ROOT    
