@<TRIPOS>MOLECULE
ZINC40876413_903
78   82    1
SMALL
USER_CHARGES


@<TRIPOS>ATOM
      1 C1          3.5162   55.6001   17.7942 C.3       1 UNK         0.0000 
      2 C2          4.5386   54.4968   17.4849 C.3       1 UNK         0.0000 
      3 C3          5.9756   54.8475   17.9277 C.3       1 UNK         0.0000 
      4 C4          6.1480   54.9997   19.4279 C.2       1 UNK         0.0000 
      5 N5          5.4566   54.4428   20.3871 N.2       1 UNK         0.0000 
      6 C6          6.0671   54.8857   21.4695 C.2       1 UNK         0.0000 
      7 N7          7.0923   55.6920   21.2609 N.2       1 UNK         0.0000 
      8 O8          7.1675   55.7732   19.8735 O.3       1 UNK         0.0000 
      9 C9          5.6213   54.4997   22.8518 C.ar      1 UNK         0.0000 
     10 C10         4.3092   54.0970   23.1180 C.ar      1 UNK         0.0000 
     11 C11         3.8678   53.9618   24.4352 C.ar      1 UNK         0.0000 
     12 C12         4.7246   54.1778   25.5288 C.ar      1 UNK         0.0000 
     13 C13         6.0683   54.4983   25.2455 C.ar      1 UNK         0.0000 
     14 C14         6.4911   54.6697   23.9309 C.ar      1 UNK         0.0000 
     15 F15         6.9937   54.6649   26.2185 F         1 UNK         0.0000 
     16 N16         4.2165   54.0607   26.8271 N.pl3     1 UNK         0.0000 
     17 C17         4.9467   54.5109   28.0296 C.3       1 UNK         0.0000 
     18 C18         4.0234   54.8364   29.2278 C.3       1 UNK         0.0000 
     19 C19         3.0171   53.7202   29.5650 C.3       1 UNK         0.0000 
     20 C20         2.3248   53.3354   28.2414 C.3       1 UNK         0.0000 
     21 H21         1.7758   54.2150   27.9013 H         1 UNK         0.0000 
     22 C22         3.3905   52.9051   27.2125 C.3       1 UNK         0.0000 
     23 C23         1.1917   52.2856   28.3760 C.2       1 UNK         0.0000 
     24 O24         1.0948   51.6993   29.4551 O.2       1 UNK         0.0000 
     25 N25         0.3556   52.0057   27.3330 N.am      1 UNK         0.0000 
     26 C26         0.3492   52.7500   26.0581 C.3       1 UNK         0.0000 
     27 C27         0.3795   51.7509   24.8630 C.3       1 UNK         0.0000 
     28 C28        -0.6561   50.5800   24.9321 C.3       1 UNK         0.0000 
     29 C29        -0.5677   49.9907   26.3717 C.3       1 UNK         0.0000 
     30 C30        -0.7286   51.0144   27.5104 C.3       1 UNK         0.0000 
     31 C31        -0.3132   49.5349   23.8258 C.2       1 UNK         0.0000 
     32 O32        -0.2967   49.8741   22.6442 O.2       1 UNK         0.0000 
     33 N33        -0.0927   48.2605   24.1569 N.am      1 UNK         0.0000 
     34 N34        -2.1151   51.0724   24.5676 N.4       1 UNK         0.0000 
     35 C35        -2.5252   52.5379   24.8698 C.3       1 UNK         0.0000 
     36 C36        -3.8560   52.8464   24.1766 C.3       1 UNK         0.0000 
     37 C37        -4.9743   51.8863   24.6028 C.3       1 UNK         0.0000 
     38 C38        -4.5555   50.4264   24.3855 C.3       1 UNK         0.0000 
     39 C39        -3.2197   50.0988   25.0751 C.3       1 UNK         0.0000 
     40 H40         2.5095   55.2987   17.5016 H         1 UNK         0.0000 
     41 H41         3.7525   56.5241   17.2648 H         1 UNK         0.0000 
     42 H42         3.4936   55.8224   18.8604 H         1 UNK         0.0000 
     43 H43         4.2251   53.5631   17.9536 H         1 UNK         0.0000 
     44 H44         4.5323   54.3023   16.4116 H         1 UNK         0.0000 
     45 H45         6.6641   54.0848   17.5621 H         1 UNK         0.0000 
     46 H46         6.2734   55.7710   17.4307 H         1 UNK         0.0000 
     47 H47         3.6058   53.9658   22.3075 H         1 UNK         0.0000 
     48 H48         2.8304   53.7168   24.5927 H         1 UNK         0.0000 
     49 H49         7.5042   54.9821   23.7531 H         1 UNK         0.0000 
     50 H50         5.7015   53.7722   28.3066 H         1 UNK         0.0000 
     51 H51         5.4803   55.4298   27.7924 H         1 UNK         0.0000 
     52 H52         4.6692   55.0194   30.0819 H         1 UNK         0.0000 
     53 H53         3.5068   55.7796   29.0506 H         1 UNK         0.0000 
     54 H54         3.5903   52.8878   29.9782 H         1 UNK         0.0000 
     55 H55         2.3105   54.1242   30.2916 H         1 UNK         0.0000 
     56 H56         2.9290   52.4547   26.3429 H         1 UNK         0.0000 
     57 H57         4.0438   52.1539   27.6629 H         1 UNK         0.0000 
     58 H58        -0.5798   53.2967   26.0644 H         1 UNK         0.0000 
     59 H59         1.1405   53.4913   25.9649 H         1 UNK         0.0000 
     60 H60         0.3735   52.2485   23.8917 H         1 UNK         0.0000 
     61 H61         1.3798   51.3145   24.9124 H         1 UNK         0.0000 
     62 H62         0.4245   49.5573   26.5152 H         1 UNK         0.0000 
     63 H63        -1.2209   49.1288   26.4808 H         1 UNK         0.0000 
     64 H64        -0.6892   50.5070   28.4742 H         1 UNK         0.0000 
     65 H65        -1.6946   51.5099   27.4561 H         1 UNK         0.0000 
     66 H66        -0.0350   47.9701   25.1253 H         1 UNK         0.0000 
     67 H67         0.1128   47.6044   23.4218 H         1 UNK         0.0000 
     68 H68        -2.5787   52.6842   25.9477 H         1 UNK         0.0000 
     69 H69        -1.7818   53.1833   24.4026 H         1 UNK         0.0000 
     70 H70        -4.1506   53.8761   24.3825 H         1 UNK         0.0000 
     71 H71        -3.6958   52.7851   23.1023 H         1 UNK         0.0000 
     72 H72        -5.8871   52.1014   24.0435 H         1 UNK         0.0000 
     73 H73        -5.2181   52.0473   25.6550 H         1 UNK         0.0000 
     74 H74        -4.4780   50.2166   23.3174 H         1 UNK         0.0000 
     75 H75        -5.3321   49.7618   24.7665 H         1 UNK         0.0000 
     76 H76        -2.9211   49.0881   24.7919 H         1 UNK         0.0000 
     77 H77        -3.2775   50.1752   26.1625 H         1 UNK         0.0000 
     78 H78        -2.1093   51.0071   23.5569 H         1 UNK         0.0000 
@<TRIPOS>BOND
     1    1    2 1    
     2    1   40 1    
     3    1   41 1    
     4    1   42 1    
     5    2    3 1    
     6    2   43 1    
     7    2   44 1    
     8    3    4 1    
     9    3   45 1    
    10    3   46 1    
    11    4    8 1    
    12    4    5 2    
    13    5    6 1    
    14    6    7 2    
    15    6    9 1    
    16    7    8 1    
    17    9   14 ar   
    18    9   10 ar   
    19   10   11 ar   
    20   10   47 1    
    21   11   12 ar   
    22   11   48 1    
    23   12   13 ar   
    24   12   16 1    
    25   13   14 ar   
    26   13   15 1    
    27   14   49 1    
    28   16   22 1    
    29   16   17 1    
    30   17   18 1    
    31   17   50 1    
    32   17   51 1    
    33   18   19 1    
    34   18   52 1    
    35   18   53 1    
    36   19   20 1    
    37   19   54 1    
    38   19   55 1    
    39   20   21 1    
    40   20   22 1    
    41   20   23 1    
    42   22   56 1    
    43   22   57 1    
    44   23   24 2    
    45   23   25 am   BACKBONE|DICT|INTERRES
    46   25   30 1    
    47   25   26 1    
    48   26   27 1    
    49   26   58 1    
    50   26   59 1    
    51   27   28 1    
    52   27   60 1    
    53   27   61 1    
    54   28   29 1    
    55   28   31 1    
    56   28   34 1    
    57   29   30 1    
    58   29   62 1    
    59   29   63 1    
    60   30   64 1    
    61   30   65 1    
    62   31   32 2    
    63   31   33 am   BACKBONE|DICT|INTERRES
    64   33   66 1    
    65   33   67 1    
    66   34   39 1    
    67   34   35 1    
    68   34   78 1    
    69   35   36 1    
    70   35   68 1    
    71   35   69 1    
    72   36   37 1    
    73   36   70 1    
    74   36   71 1    
    75   37   38 1    
    76   37   72 1    
    77   37   73 1    
    78   38   39 1    
    79   38   74 1    
    80   38   75 1    
    81   39   76 1    
    82   39   77 1    
@<TRIPOS>SUBSTRUCTURE
     1 UNK         1 GROUP             0       ****    0 ROOT    
