@<TRIPOS>MOLECULE
ZINC20571800_2302
56   59    1
SMALL
USER_CHARGES


@<TRIPOS>ATOM
      1 C1          4.1341   52.2386   29.7980 C.3       1 UNK         0.0000 
      2 C2          4.1230   53.7660   29.5742 C.3       1 UNK         0.0000 
      3 H3          4.3051   54.2175   30.5471 H         1 UNK         0.0000 
      4 C4          2.7632   54.3401   29.1158 C.3       1 UNK         0.0000 
      5 C5          2.3306   53.7744   27.7444 C.3       1 UNK         0.0000 
      6 C6          3.4916   53.9137   26.7477 C.2       1 UNK         0.0000 
      7 C7          4.8101   54.1335   27.1813 C.2       1 UNK         0.0000 
      8 S8          5.9005   54.3315   25.8543 S.3       1 UNK         0.0000 
      9 C9          4.6098   54.0978   24.6980 C.2       1 UNK         0.0000 
     10 C10         3.3803   53.8962   25.3395 C.2       1 UNK         0.0000 
     11 C11         2.1212   53.6911   24.6312 C.1       1 UNK         0.0000 
     12 N12         1.1241   53.5329   24.0686 N.1       1 UNK         0.0000 
     13 N13         4.8062   54.1158   23.3128 N.am      1 UNK         0.0000 
     14 C14         5.8850   54.5558   22.6285 C.2       1 UNK         0.0000 
     15 O15         6.8735   55.0674   23.1460 O.2       1 UNK         0.0000 
     16 C16         5.7781   54.4934   21.1213 C.ar      1 UNK         0.0000 
     17 C17         4.9679   53.5370   20.4843 C.ar      1 UNK         0.0000 
     18 C18         4.9419   53.4455   19.0963 C.ar      1 UNK         0.0000 
     19 C19         5.7109   54.3096   18.3135 C.ar      1 UNK         0.0000 
     20 C20         6.5091   55.2691   18.9410 C.ar      1 UNK         0.0000 
     21 C21         6.5526   55.3501   20.3303 C.ar      1 UNK         0.0000 
     22 N22         5.5684   54.2174   16.9200 N.pl3     1 UNK         0.0000 
     23 S23         6.8347   54.5182   15.7055 S.o2      1 UNK         0.0000 
     24 O24         6.1238   54.6721   14.4311 O.2       1 UNK         0.0000 
     25 O25         7.7236   55.5747   16.1920 O.2       1 UNK         0.0000 
     26 C26         7.8113   53.0209   15.5868 C.ar      1 UNK         0.0000 
     27 C27         8.5480   52.5806   16.6870 C.ar      1 UNK         0.0000 
     28 C28         9.3593   51.4552   16.5649 C.ar      1 UNK         0.0000 
     29 C29         9.4571   50.7713   15.3509 C.ar      1 UNK         0.0000 
     30 C30         8.6979   51.2114   14.2573 C.ar      1 UNK         0.0000 
     31 C31         7.8757   52.3279   14.3755 C.ar      1 UNK         0.0000 
     32 O32        10.3178   49.6928   15.3145 O.3       1 UNK         0.0000 
     33 C33        10.5219   49.0043   14.0818 C.3       1 UNK         0.0000 
     34 C34         5.2581   54.2604   28.6371 C.3       1 UNK         0.0000 
     35 H35         3.9372   51.6965   28.8762 H         1 UNK         0.0000 
     36 H36         5.1037   51.9002   30.1664 H         1 UNK         0.0000 
     37 H37         3.3828   51.9400   30.5298 H         1 UNK         0.0000 
     38 H38         2.8140   55.4302   29.0660 H         1 UNK         0.0000 
     39 H39         1.9875   54.0966   29.8434 H         1 UNK         0.0000 
     40 H40         2.0364   52.7286   27.8318 H         1 UNK         0.0000 
     41 H41         1.4444   54.3036   27.3970 H         1 UNK         0.0000 
     42 H42         3.9917   53.9056   22.7590 H         1 UNK         0.0000 
     43 H43         4.3719   52.8343   21.0486 H         1 UNK         0.0000 
     44 H44         4.3197   52.6923   18.6271 H         1 UNK         0.0000 
     45 H45         7.0917   55.9814   18.3795 H         1 UNK         0.0000 
     46 H46         7.1968   56.0896   20.7846 H         1 UNK         0.0000 
     47 H47         4.7433   53.7523   16.5776 H         1 UNK         0.0000 
     48 H48         8.5030   53.1125   17.6276 H         1 UNK         0.0000 
     49 H49         9.9293   51.1102   17.4130 H         1 UNK         0.0000 
     50 H50         8.7366   50.7046   13.3052 H         1 UNK         0.0000 
     51 H51         7.3088   52.6635   13.5170 H         1 UNK         0.0000 
     52 H52        11.2974   48.2490   14.2050 H         1 UNK         0.0000 
     53 H53         9.6129   48.4978   13.7597 H         1 UNK         0.0000 
     54 H54        10.8515   49.6770   13.2879 H         1 UNK         0.0000 
     55 H55         5.5032   55.2962   28.8746 H         1 UNK         0.0000 
     56 H56         6.1700   53.6902   28.8142 H         1 UNK         0.0000 
@<TRIPOS>BOND
     1    1    2 1    
     2    1   35 1    
     3    1   36 1    
     4    1   37 1    
     5    2    3 1    
     6    2   34 1    
     7    2    4 1    
     8    4    5 1    
     9    4   38 1    
    10    4   39 1    
    11    5    6 1    
    12    5   40 1    
    13    5   41 1    
    14    6   10 1    
    15    6    7 2    
    16    7    8 1    
    17    7   34 1    
    18    8    9 1    
    19    9   10 2    
    20    9   13 am   BACKBONE|DICT|INTERRES
    21   10   11 1    
    22   11   12 3    
    23   13   14 am   BACKBONE|DICT|INTERRES
    24   13   42 1    
    25   14   15 2    
    26   14   16 1    
    27   16   21 ar   
    28   16   17 ar   
    29   17   18 ar   
    30   17   43 1    
    31   18   19 ar   
    32   18   44 1    
    33   19   20 ar   
    34   19   22 1    
    35   20   21 ar   
    36   20   45 1    
    37   21   46 1    
    38   22   23 1    
    39   22   47 1    
    40   23   24 2    
    41   23   25 2    
    42   23   26 1    
    43   26   31 ar   
    44   26   27 ar   
    45   27   28 ar   
    46   27   48 1    
    47   28   29 ar   
    48   28   49 1    
    49   29   30 ar   
    50   29   32 1    
    51   30   31 ar   
    52   30   50 1    
    53   31   51 1    
    54   32   33 1    
    55   33   52 1    
    56   33   53 1    
    57   33   54 1    
    58   34   55 1    
    59   34   56 1    
@<TRIPOS>SUBSTRUCTURE
     1 UNK         1 GROUP             0       ****    0 ROOT    
