@<TRIPOS>MOLECULE
ZINC67426712_254
60   62    1
SMALL
USER_CHARGES


@<TRIPOS>ATOM
      1 C1          0.5380   52.6501   31.4747 C.3       1 UNK         0.0000 
      2 C2          0.7653   52.5688   29.9774 C.ar      1 UNK         0.0000 
      3 C3         -0.2505   52.1058   29.1433 C.ar      1 UNK         0.0000 
      4 C4         -0.0694   52.0957   27.7630 C.ar      1 UNK         0.0000 
      5 C5          1.1286   52.5436   27.1960 C.ar      1 UNK         0.0000 
      6 C6          2.1778   52.9776   28.0326 C.ar      1 UNK         0.0000 
      7 C7          1.9759   52.9892   29.4248 C.ar      1 UNK         0.0000 
      8 N8          3.3923   53.3583   27.4200 N.am      1 UNK         0.0000 
      9 C9          4.5065   53.9230   27.9517 C.2       1 UNK         0.0000 
     10 O10         4.6355   54.2646   29.1297 O.2       1 UNK         0.0000 
     11 C11         5.6368   54.0880   26.9891 C.2       1 UNK         0.0000 
     12 O12         6.8097   54.0234   27.3657 O.2       1 UNK         0.0000 
     13 N13         5.2999   54.3504   25.7010 N.am      1 UNK         0.0000 
     14 C14         6.2706   54.6302   24.6311 C.3       1 UNK         0.0000 
     15 H15         7.0605   53.8789   24.7229 H         1 UNK         0.0000 
     16 C16         6.9122   56.0142   24.8586 C.3       1 UNK         0.0000 
     17 C17         5.7356   54.4437   23.1953 C.ar      1 UNK         0.0000 
     18 C18         6.4327   54.9947   22.1113 C.ar      1 UNK         0.0000 
     19 C19         5.9447   54.8720   20.8130 C.ar      1 UNK         0.0000 
     20 C20         4.7762   54.1494   20.5544 C.ar      1 UNK         0.0000 
     21 C21         4.0746   53.6019   21.6357 C.ar      1 UNK         0.0000 
     22 C22         4.5446   53.7513   22.9388 C.ar      1 UNK         0.0000 
     23 N23         4.3463   53.9798   19.2413 N.pl3     1 UNK         0.0000 
     24 C24         3.5480   52.8071   18.8365 C.3       1 UNK         0.0000 
     25 C25         3.6371   52.4496   17.3382 C.3       1 UNK         0.0000 
     26 N26         3.2956   53.6925   16.4977 N.4       1 UNK         0.0000 
     27 C27         4.2840   54.8211   16.8457 C.3       1 UNK         0.0000 
     28 C28         4.1720   55.1430   18.3501 C.3       1 UNK         0.0000 
     29 C29         3.3669   53.3510   14.9938 C.3       1 UNK         0.0000 
     30 C30         1.2484   52.5517   25.6733 C.3       1 UNK         0.0000 
     31 H31         1.1055   53.4583   31.9277 H         1 UNK         0.0000 
     32 H32        -0.4999   52.8968   31.6825 H         1 UNK         0.0000 
     33 H33         0.7813   51.7110   31.9732 H         1 UNK         0.0000 
     34 H34        -1.1852   51.7593   29.5624 H         1 UNK         0.0000 
     35 H35        -0.8749   51.7412   27.1355 H         1 UNK         0.0000 
     36 H36         2.7465   53.3105   30.1040 H         1 UNK         0.0000 
     37 H37         3.4416   53.1125   26.4449 H         1 UNK         0.0000 
     38 H38         4.3291   54.4575   25.4532 H         1 UNK         0.0000 
     39 H39         7.8692   56.1003   24.3512 H         1 UNK         0.0000 
     40 H40         6.2638   56.8054   24.4895 H         1 UNK         0.0000 
     41 H41         7.1042   56.2152   25.9106 H         1 UNK         0.0000 
     42 H42         7.3624   55.5245   22.2605 H         1 UNK         0.0000 
     43 H43         6.5133   55.2968   19.9987 H         1 UNK         0.0000 
     44 H44         3.1564   53.0574   21.4721 H         1 UNK         0.0000 
     45 H45         3.9733   53.3111   23.7414 H         1 UNK         0.0000 
     46 H46         3.8046   51.9318   19.4366 H         1 UNK         0.0000 
     47 H47         2.5130   53.0774   19.0562 H         1 UNK         0.0000 
     48 H48         2.8994   51.6845   17.0881 H         1 UNK         0.0000 
     49 H49         4.6294   52.0991   17.0458 H         1 UNK         0.0000 
     50 H50         3.9749   55.6845   16.2532 H         1 UNK         0.0000 
     51 H51         5.2884   54.5045   16.5557 H         1 UNK         0.0000 
     52 H52         3.1517   55.4876   18.5267 H         1 UNK         0.0000 
     53 H53         4.8328   55.9684   18.6170 H         1 UNK         0.0000 
     54 H54         4.3815   53.0220   14.7610 H         1 UNK         0.0000 
     55 H55         2.6426   52.5569   14.8040 H         1 UNK         0.0000 
     56 H56         3.1040   54.2529   14.4381 H         1 UNK         0.0000 
     57 H57         1.2312   53.5758   25.2993 H         1 UNK         0.0000 
     58 H58         2.1814   52.0974   25.3446 H         1 UNK         0.0000 
     59 H59         0.4416   51.9932   25.1971 H         1 UNK         0.0000 
     60 H60         2.3587   53.9933   16.7327 H         1 UNK         0.0000 
@<TRIPOS>BOND
     1    1    2 1    
     2    1   31 1    
     3    1   32 1    
     4    1   33 1    
     5    2    7 ar   
     6    2    3 ar   
     7    3    4 ar   
     8    3   34 1    
     9    4    5 ar   
    10    4   35 1    
    11    5    6 ar   
    12    5   30 1    
    13    6    7 ar   
    14    6    8 1    
    15    7   36 1    
    16    8    9 am   BACKBONE|DICT|INTERRES
    17    8   37 1    
    18    9   10 2    
    19    9   11 1    
    20   11   12 2    
    21   11   13 am   BACKBONE|DICT|INTERRES
    22   13   14 1    
    23   13   38 1    
    24   14   15 1    
    25   14   16 1    
    26   14   17 1    
    27   16   39 1    
    28   16   40 1    
    29   16   41 1    
    30   17   22 ar   
    31   17   18 ar   
    32   18   19 ar   
    33   18   42 1    
    34   19   20 ar   
    35   19   43 1    
    36   20   21 ar   
    37   20   23 1    
    38   21   22 ar   
    39   21   44 1    
    40   22   45 1    
    41   23   28 1    
    42   23   24 1    
    43   24   25 1    
    44   24   46 1    
    45   24   47 1    
    46   25   26 1    
    47   25   48 1    
    48   25   49 1    
    49   26   27 1    
    50   26   29 1    
    51   26   60 1    
    52   27   28 1    
    53   27   50 1    
    54   27   51 1    
    55   28   52 1    
    56   28   53 1    
    57   29   54 1    
    58   29   55 1    
    59   29   56 1    
    60   30   57 1    
    61   30   58 1    
    62   30   59 1    
@<TRIPOS>SUBSTRUCTURE
     1 UNK         1 GROUP             0       ****    0 ROOT    
