ZINC12973815_3130
                    3D
 Schrodinger Suite 2024-2.
 60 63  0  0  1  0            999 V2000
    6.1240   54.8923   25.5871 C   0  0  0  0  0  0
    6.1483   54.8968   26.9787 C   0  0  0  0  0  0
    5.0200   54.4978   27.6905 C   0  0  0  0  0  0
    3.8662   54.0562   27.0239 C   0  0  0  0  0  0
    3.8536   54.0876   25.6208 C   0  0  0  0  0  0
    4.9768   54.4966   24.9062 C   0  0  0  0  0  0
    2.6315   53.5461   27.8063 C   0  0  2  0  0  0
    2.0379   54.4498   27.9677 H   0  0  0  0  0  0
    2.8960   52.9474   29.1872 C   0  0  0  0  0  0
    4.0321   52.3288   29.7136 C   0  0  0  0  0  0
    3.9041   51.9166   31.0391 C   0  0  0  0  0  0
    2.6267   52.0967   31.5209 C   0  0  0  0  0  0
    1.6196   52.8968   30.3821 S   0  0  0  0  0  0
    1.8049   52.5923   27.0494 N   0  0  0  0  0  0
    0.4621   52.4973   27.1086 C   0  0  0  0  0  0
   -0.2088   53.2200   27.8458 O   0  0  0  0  0  0
   -0.2045   51.4063   26.2401 C   0  0  0  0  0  0
   -1.3653   51.9479   25.5027 N   0  0  0  0  0  0
   -1.5913   51.1949   24.2520 C   0  0  0  0  0  0
   -2.7436   51.8320   23.4405 C   0  0  0  0  0  0
   -3.9618   51.9801   24.2667 N   0  0  0  0  0  0
   -3.7235   52.6893   25.5369 C   0  0  0  0  0  0
   -2.5958   51.9907   26.3272 C   0  0  0  0  0  0
   -5.3515   50.8948   24.0847 S   0  0  0  0  0  0
   -6.5442   51.6320   24.5176 O   0  0  0  0  0  0
   -5.2837   50.2773   22.7553 O   0  0  0  0  0  0
   -5.0980   49.5806   25.2763 C   0  0  0  0  0  0
   -4.0920   48.6423   25.0524 C   0  0  0  0  0  0
   -3.8790   47.6230   25.9738 C   0  0  0  0  0  0
   -4.6974   47.5110   27.1068 C   0  0  0  0  0  0
   -5.7170   48.4456   27.3174 C   0  0  0  0  0  0
   -5.9068   49.4877   26.4126 C   0  0  0  0  0  0
   -4.5065   46.3698   28.0680 C   0  0  0  0  0  0
   -5.4488   45.6967   28.4816 O   0  0  0  0  0  0
   -3.2503   46.0967   28.4013 N   0  0  0  0  0  0
    6.9947   55.2042   25.0286 H   0  0  0  0  0  0
    7.0301   55.2191   27.5142 H   0  0  0  0  0  0
    5.0600   54.5419   28.7684 H   0  0  0  0  0  0
    2.9761   53.7795   25.0709 H   0  0  0  0  0  0
    4.9576   54.5021   23.8259 H   0  0  0  0  0  0
    4.9472   52.2017   29.1531 H   0  0  0  0  0  0
    4.7020   51.4575   31.6045 H   0  0  0  0  0  0
    2.2249   51.8215   32.4816 H   0  0  0  0  0  0
    2.3031   51.7930   26.6921 H   0  0  0  0  0  0
    0.5456   51.0186   25.5475 H   0  0  0  0  0  0
   -0.4871   50.5629   26.8751 H   0  0  0  0  0  0
   -0.6883   51.1430   23.6422 H   0  0  0  0  0  0
   -1.8785   50.1957   24.5783 H   0  0  0  0  0  0
   -2.9776   51.2135   22.5748 H   0  0  0  0  0  0
   -2.4578   52.8141   23.0649 H   0  0  0  0  0  0
   -4.6484   52.6736   26.1140 H   0  0  0  0  0  0
   -3.4862   53.7324   25.3330 H   0  0  0  0  0  0
   -2.8646   50.9501   26.5208 H   0  0  0  0  0  0
   -2.4504   52.4946   27.2810 H   0  0  0  0  0  0
   -3.4758   48.7011   24.1678 H   0  0  0  0  0  0
   -3.0862   46.9112   25.7916 H   0  0  0  0  0  0
   -6.3600   48.3733   28.1837 H   0  0  0  0  0  0
   -6.6943   50.2058   26.5905 H   0  0  0  0  0  0
   -2.5373   46.8225   28.3225 H   0  0  0  0  0  0
   -3.0229   45.2037   28.8418 H   0  0  0  0  0  0
  1  6  2  0  0  0
  1  2  1  0  0  0
  1 36  1  0  0  0
  2  3  2  0  0  0
  2 37  1  0  0  0
  3  4  1  0  0  0
  3 38  1  0  0  0
  4  5  2  0  0  0
  4  7  1  0  0  0
  5  6  1  0  0  0
  5 39  1  0  0  0
  6 40  1  0  0  0
  7  8  1  0  0  0
  7  9  1  0  0  0
  7 14  1  0  0  0
  9 13  1  0  0  0
  9 10  2  0  0  0
 10 11  1  0  0  0
 10 41  1  0  0  0
 11 12  2  0  0  0
 11 42  1  0  0  0
 12 13  1  0  0  0
 12 43  1  0  0  0
 14 15  1  0  0  0
 14 44  1  0  0  0
 15 16  2  0  0  0
 15 17  1  0  0  0
 17 18  1  0  0  0
 17 45  1  0  0  0
 17 46  1  0  0  0
 18 23  1  0  0  0
 18 19  1  0  0  0
 19 20  1  0  0  0
 19 47  1  0  0  0
 19 48  1  0  0  0
 20 21  1  0  0  0
 20 49  1  0  0  0
 20 50  1  0  0  0
 21 22  1  0  0  0
 21 24  1  0  0  0
 22 23  1  0  0  0
 22 51  1  0  0  0
 22 52  1  0  0  0
 23 53  1  0  0  0
 23 54  1  0  0  0
 24 25  2  0  0  0
 24 26  2  0  0  0
 24 27  1  0  0  0
 27 32  2  0  0  0
 27 28  1  0  0  0
 28 29  2  0  0  0
 28 55  1  0  0  0
 29 30  1  0  0  0
 29 56  1  0  0  0
 30 31  2  0  0  0
 30 33  1  0  0  0
 31 32  1  0  0  0
 31 57  1  0  0  0
 32 58  1  0  0  0
 33 34  2  0  0  0
 33 35  1  0  0  0
 35 59  1  0  0  0
 35 60  1  0  0  0
M  END
> <i_i_glide_confnum>
267

> <i_i_glide_lignum>
3131

> <i_i_glide_posenum>
364

> <i_i_glide_rotatable_bonds>
9

> <i_m_Source_File_Index>
2270

> <b_m_subgroup_collapsed>
0

> <r_i_docking_score>
-5.88798

> <r_i_glide_ecoul>
-10.4522

> <r_i_glide_eff_state_penalty>
0

> <r_i_glide_einternal>
11.9893

> <r_i_glide_emodel>
-62.4989

> <r_i_glide_energy>
-49.3812

> <r_i_glide_erotb>
0.656653

> <r_i_glide_esite>
-0.162654

> <r_i_glide_evdw>
-38.929

> <r_i_glide_gscore>
-5.88798

> <r_i_glide_hbond>
-0.456

> <r_i_glide_ligand_efficiency>
-0.173176

> <r_i_glide_ligand_efficiency_ln>
-1.30082

> <r_i_glide_ligand_efficiency_sa>
-0.561023

> <r_i_glide_lipo>
-2.62205

> <r_i_glide_metal>
0

> <r_i_glide_rewards>
0.210354

> <s_i_glide_gridfile>
wee1_glide-grid

> <s_m_Source_File>
wee1_decoys_glide_SP.sdf

> <s_m_Source_Path>
/Users/zhangxujun/Desktop

> <s_m_entry_id>
2545

> <s_m_entry_name>
wee1_decoys_glide_SP.2270

> <s_m_subgroup_title>
wee1_decoys_glide_SP

> <s_m_subgroupid>
wee1_decoys_glide_SP


$$$$
