ZINC04100113_5013
                    3D
 Schrodinger Suite 2024-2.
 49 52  0  0  1  0            999 V2000
    2.0216   53.5606   28.1394 C   0  0  0  0  0  0
    2.6656   54.0952   27.0318 C   0  0  0  0  0  0
    2.3646   53.6369   25.7509 C   0  0  0  0  0  0
    1.3985   52.6023   25.5343 C   0  0  0  0  0  0
    0.7592   52.0539   26.6957 C   0  0  0  0  0  0
    1.0791   52.5509   27.9858 C   0  0  0  0  0  0
   -0.1712   51.0047   26.5508 C   0  0  0  0  0  0
   -0.4788   50.5137   25.2930 C   0  0  0  0  0  0
    0.1158   51.0362   24.1519 C   0  0  0  0  0  0
    1.0692   52.0761   24.2265 C   0  0  0  0  0  0
    1.7055   52.6230   23.0043 C   0  0  0  0  0  0
    2.1068   51.9092   22.0311 N   0  0  0  0  0  0
    2.6987   52.6046   21.0179 N   0  0  0  0  0  0
    3.2506   51.9900   19.9627 C   0  0  0  0  0  0
    3.1044   50.6987   19.6811 N   0  3  0  0  0  0
    4.2800   52.8887   18.8755 S   0  0  0  0  0  0
    4.5007   54.5115   19.6474 C   0  0  1  0  0  0
    3.5044   54.9231   19.7484 H   0  0  0  0  0  0
    5.2314   54.4967   20.9585 C   0  0  0  0  0  0
    6.4109   55.4251   20.7483 C   0  0  0  0  0  0
    7.2290   55.6963   21.6273 O   0  0  0  0  0  0
    6.3785   55.8916   19.4684 N   0  0  0  0  0  0
    5.3183   55.4243   18.7531 C   0  0  0  0  0  0
    5.0294   55.6829   17.5830 O   0  0  0  0  0  0
    7.3435   56.7818   18.9404 C   0  0  0  0  0  0
    6.9459   58.0147   18.4030 C   0  0  0  0  0  0
    7.8973   58.8946   17.8989 C   0  0  0  0  0  0
    9.2474   58.5540   17.9380 C   0  0  0  0  0  0
    9.6516   57.3250   18.4572 C   0  0  0  0  0  0
    8.7035   56.4379   18.9563 C   0  0  0  0  0  0
   10.5479   59.7824   17.2880 Br  0  0  0  0  0  0
   -0.2925   50.4954   22.9578 O   0  0  0  0  0  0
    2.2592   53.9271   29.1268 H   0  0  0  0  0  0
    3.4027   54.8740   27.1664 H   0  0  0  0  0  0
    2.8951   54.0749   24.9182 H   0  0  0  0  0  0
    0.5896   52.1338   28.8545 H   0  0  0  0  0  0
   -0.6444   50.5720   27.4230 H   0  0  0  0  0  0
   -1.2005   49.7133   25.2169 H   0  0  0  0  0  0
    1.8066   53.7077   23.0084 H   0  0  0  0  0  0
    2.7183   53.6143   21.0823 H   0  0  0  0  0  0
    3.6644   50.3131   18.9178 H   0  0  0  0  0  0
    4.6160   54.8965   21.7666 H   0  0  0  0  0  0
    5.5709   53.5030   21.2538 H   0  0  0  0  0  0
    5.9032   58.2988   18.3720 H   0  0  0  0  0  0
    7.5817   59.8405   17.4834 H   0  0  0  0  0  0
   10.6996   57.0615   18.4820 H   0  0  0  0  0  0
    9.0325   55.4916   19.3639 H   0  0  0  0  0  0
   -0.9252   49.7834   23.0759 H   0  0  0  0  0  0
    2.5233   50.1122   20.2638 H   0  0  0  0  0  0
  1  6  2  0  0  0
  1  2  1  0  0  0
  1 33  1  0  0  0
  2  3  2  0  0  0
  2 34  1  0  0  0
  3  4  1  0  0  0
  3 35  1  0  0  0
  4 10  2  0  0  0
  4  5  1  0  0  0
  5  6  1  0  0  0
  5  7  2  0  0  0
  6 36  1  0  0  0
  7  8  1  0  0  0
  7 37  1  0  0  0
  8  9  2  0  0  0
  8 38  1  0  0  0
  9 10  1  0  0  0
  9 32  1  0  0  0
 10 11  1  0  0  0
 11 12  2  0  0  0
 11 39  1  0  0  0
 12 13  1  0  0  0
 13 14  1  0  0  0
 13 40  1  0  0  0
 14 15  2  0  0  0
 14 16  1  0  0  0
 15 41  1  0  0  0
 15 49  1  0  0  0
 16 17  1  0  0  0
 17 18  1  0  0  0
 17 23  1  0  0  0
 17 19  1  0  0  0
 19 20  1  0  0  0
 19 42  1  0  0  0
 19 43  1  0  0  0
 20 21  2  0  0  0
 20 22  1  0  0  0
 22 23  1  0  0  0
 22 25  1  0  0  0
 23 24  2  0  0  0
 25 30  2  0  0  0
 25 26  1  0  0  0
 26 27  2  0  0  0
 26 44  1  0  0  0
 27 28  1  0  0  0
 27 45  1  0  0  0
 28 29  2  0  0  0
 28 31  1  0  0  0
 29 30  1  0  0  0
 29 46  1  0  0  0
 30 47  1  0  0  0
 32 48  1  0  0  0
M  CHG  1  15   1
M  END
> <i_i_glide_confnum>
16

> <i_i_glide_lignum>
5014

> <i_i_glide_posenum>
377

> <i_i_glide_rotatable_bonds>
7

> <i_m_Source_File_Index>
3254

> <b_m_subgroup_collapsed>
0

> <r_i_docking_score>
-4.39571

> <r_i_glide_ecoul>
-6.61534

> <r_i_glide_eff_state_penalty>
0

> <r_i_glide_einternal>
2.29439

> <r_i_glide_emodel>
-54.5671

> <r_i_glide_energy>
-42.0854

> <r_i_glide_erotb>
0.492936

> <r_i_glide_esite>
-0.150401

> <r_i_glide_evdw>
-35.47

> <r_i_glide_gscore>
-4.39571

> <r_i_glide_hbond>
-0.175197

> <r_i_glide_ligand_efficiency>
-0.141797

> <r_i_glide_ligand_efficiency_ln>
-0.991368

> <r_i_glide_ligand_efficiency_sa>
-0.445439

> <r_i_glide_lipo>
-1.17686

> <r_i_glide_metal>
0

> <r_i_glide_rewards>
-0.620387

> <s_i_glide_gridfile>
wee1_glide-grid

> <s_m_Source_File>
wee1_decoys_glide_SP.sdf

> <s_m_Source_Path>
/Users/zhangxujun/Desktop

> <s_m_entry_id>
3529

> <s_m_entry_name>
wee1_decoys_glide_SP.3254

> <s_m_subgroup_title>
wee1_decoys_glide_SP

> <s_m_subgroupid>
wee1_decoys_glide_SP


$$$$
