@<TRIPOS>MOLECULE
ZINC13114597_4171
54   58    1
SMALL
USER_CHARGES


@<TRIPOS>ATOM
      1 C1         -4.7228   53.7031   24.8813 C.ar      1 UNK         0.0000 
      2 C2         -3.5853   53.6435   24.0825 C.ar      1 UNK         0.0000 
      3 C3         -2.4844   52.8971   24.4930 C.ar      1 UNK         0.0000 
      4 C4         -2.5006   52.2192   25.7195 C.ar      1 UNK         0.0000 
      5 C5         -3.6652   52.2725   26.5020 C.ar      1 UNK         0.0000 
      6 C6         -4.7713   53.0112   26.0867 C.ar      1 UNK         0.0000 
      7 C7         -1.2858   51.3440   26.1368 C.3       1 UNK         0.0000 
      8 C8          0.0528   52.0996   26.0298 C.2       1 UNK         0.0000 
      9 O9          0.6251   52.4331   24.9875 O.2       1 UNK         0.0000 
     10 N10         0.4599   52.3187   27.2998 N.am      1 UNK         0.0000 
     11 C11        -0.2712   51.6684   28.2359 C.2       1 UNK         0.0000 
     12 O12        -0.1405   51.7051   29.4572 O.2       1 UNK         0.0000 
     13 N13        -1.2595   51.0781   27.5554 N.am      1 UNK         0.0000 
     14 N14         1.6941   52.9341   27.5961 N.am      1 UNK         0.0000 
     15 C15         1.7173   54.1328   28.2311 C.2       1 UNK         0.0000 
     16 O16         0.7079   54.7910   28.4823 O.2       1 UNK         0.0000 
     17 C17         3.0730   54.6998   28.6905 C.3       1 UNK         0.0000 
     18 C18         4.2838   54.4767   27.7907 C.2       1 UNK         0.0000 
     19 C19         5.5851   54.1987   28.2026 C.2       1 UNK         0.0000 
     20 S20         6.6363   54.1066   26.8265 S.3       1 UNK         0.0000 
     21 C21         5.2547   54.4238   25.8222 C.2       1 UNK         0.0000 
     22 N22         4.1339   54.5932   26.4816 N.2       1 UNK         0.0000 
     23 C23         5.3517   54.4624   24.3320 C.ar      1 UNK         0.0000 
     24 C24         6.5335   54.8619   23.6984 C.ar      1 UNK         0.0000 
     25 C25         6.6039   54.8969   22.3088 C.ar      1 UNK         0.0000 
     26 C26         5.5045   54.4996   21.5490 C.ar      1 UNK         0.0000 
     27 C27         4.3237   54.0982   22.1683 C.ar      1 UNK         0.0000 
     28 C28         4.2423   54.0955   23.5566 C.ar      1 UNK         0.0000 
     29 F29         5.5811   54.5178   20.2003 F         1 UNK         0.0000 
     30 C30        -1.2771   49.9950   25.3646 C.ar      1 UNK         0.0000 
     31 C31        -2.4107   49.5512   24.6506 C.ar      1 UNK         0.0000 
     32 C32        -2.4107   48.3312   23.9852 C.ar      1 UNK         0.0000 
     33 C33        -1.2815   47.5230   24.0361 C.ar      1 UNK         0.0000 
     34 C34        -0.1577   47.9397   24.7458 C.ar      1 UNK         0.0000 
     35 C35        -0.1513   49.1597   25.4019 C.ar      1 UNK         0.0000 
     36 H36        -5.5790   54.2755   24.5523 H         1 UNK         0.0000 
     37 H37        -3.5539   54.1797   23.1517 H         1 UNK         0.0000 
     38 H38        -1.6222   52.8443   23.8449 H         1 UNK         0.0000 
     39 H39        -3.7313   51.7304   27.4339 H         1 UNK         0.0000 
     40 H40        -5.6604   53.0449   26.6964 H         1 UNK         0.0000 
     41 H41        -1.6954   50.2292   27.9068 H         1 UNK         0.0000 
     42 H42         2.4792   52.3021   27.5434 H         1 UNK         0.0000 
     43 H43         2.9445   55.7767   28.8227 H         1 UNK         0.0000 
     44 H44         3.2635   54.3058   29.6881 H         1 UNK         0.0000 
     45 H45         5.9746   54.0941   29.2041 H         1 UNK         0.0000 
     46 H46         7.4019   55.1564   24.2719 H         1 UNK         0.0000 
     47 H47         7.5170   55.2117   21.8221 H         1 UNK         0.0000 
     48 H48         3.4739   53.8034   21.5699 H         1 UNK         0.0000 
     49 H49         3.3201   53.7875   24.0311 H         1 UNK         0.0000 
     50 H50        -3.3166   50.1362   24.6045 H         1 UNK         0.0000 
     51 H51        -3.2872   48.0099   23.4424 H         1 UNK         0.0000 
     52 H52        -1.2857   46.5669   23.5362 H         1 UNK         0.0000 
     53 H53         0.7039   47.2977   24.8508 H         1 UNK         0.0000 
     54 H54         0.7267   49.4319   25.9738 H         1 UNK         0.0000 
@<TRIPOS>BOND
     1    1    6 ar   
     2    1    2 ar   
     3    1   36 1    
     4    2    3 ar   
     5    2   37 1    
     6    3    4 ar   
     7    3   38 1    
     8    4    5 ar   
     9    4    7 1    
    10    5    6 ar   
    11    5   39 1    
    12    6   40 1    
    13    7   13 1    
    14    7    8 1    
    15    7   30 1    
    16    8    9 2    
    17    8   10 am   BACKBONE|DICT|INTERRES
    18   10   11 am   BACKBONE|DICT|INTERRES
    19   10   14 1    
    20   11   12 2    
    21   11   13 am   BACKBONE|DICT|INTERRES
    22   13   41 1    
    23   14   15 am   BACKBONE|DICT|INTERRES
    24   14   42 1    
    25   15   16 2    
    26   15   17 1    
    27   17   18 1    
    28   17   43 1    
    29   17   44 1    
    30   18   22 1    
    31   18   19 2    
    32   19   20 1    
    33   19   45 1    
    34   20   21 1    
    35   21   22 2    
    36   21   23 1    
    37   23   28 ar   
    38   23   24 ar   
    39   24   25 ar   
    40   24   46 1    
    41   25   26 ar   
    42   25   47 1    
    43   26   27 ar   
    44   26   29 1    
    45   27   28 ar   
    46   27   48 1    
    47   28   49 1    
    48   30   35 ar   
    49   30   31 ar   
    50   31   32 ar   
    51   31   50 1    
    52   32   33 ar   
    53   32   51 1    
    54   33   34 ar   
    55   33   52 1    
    56   34   35 ar   
    57   34   53 1    
    58   35   54 1    
@<TRIPOS>SUBSTRUCTURE
     1 UNK         1 GROUP             0       ****    0 ROOT    
