@<TRIPOS>MOLECULE
ZINC20720968_195
48   51    1
SMALL
USER_CHARGES


@<TRIPOS>ATOM
      1 C1          4.5927   53.4507   28.2653 C.3       1 UNK         0.0000 
      2 O2          4.4915   53.6732   26.8641 O.3       1 UNK         0.0000 
      3 C3          5.4355   54.3854   26.2092 C.2       1 UNK         0.0000 
      4 O4          6.4032   54.8973   26.7849 O.2       1 UNK         0.0000 
      5 C5          5.2668   54.4145   24.7065 C.ar      1 UNK         0.0000 
      6 C6          6.3967   54.8487   23.9846 C.ar      1 UNK         0.0000 
      7 C7          6.4104   54.8937   22.5957 C.ar      1 UNK         0.0000 
      8 C8          5.2890   54.4965   21.8831 C.ar      1 UNK         0.0000 
      9 C9          4.1510   54.0811   22.5648 C.ar      1 UNK         0.0000 
     10 C10         4.0998   54.0463   23.9741 C.ar      1 UNK         0.0000 
     11 N11         2.9154   53.5791   24.6142 N.am      1 UNK         0.0000 
     12 C12         1.6405   53.6990   24.1593 C.2       1 UNK         0.0000 
     13 O13         1.3726   54.4966   23.2651 O.2       1 UNK         0.0000 
     14 N14         0.6577   52.9473   24.7442 N.am      1 UNK         0.0000 
     15 C15        -0.7314   53.0326   24.2181 C.3       1 UNK         0.0000 
     16 C16        -1.0187   51.7666   23.3637 C.3       1 UNK         0.0000 
     17 C17        -0.7020   50.5473   24.2143 C.ar      1 UNK         0.0000 
     18 C18         0.1287   50.6429   25.3244 C.ar      1 UNK         0.0000 
     19 N19         0.2104   49.3628   25.8041 N.pl3     1 UNK         0.0000 
     20 H20         0.7246   49.0368   26.6114 H         1 UNK         0.0000 
     21 C21        -0.6012   48.6139   24.9949 C.ar      1 UNK         0.0000 
     22 N22        -1.1567   49.3163   24.0345 N.2       1 UNK         0.0000 
     23 C23         0.8525   51.9105   25.7955 C.3       1 UNK         0.0000 
     24 H24         1.9046   51.6999   25.8103 H         1 UNK         0.0000 
     25 C25         0.6054   52.3824   27.2373 C.ar      1 UNK         0.0000 
     26 C26        -0.1773   51.6463   28.1380 C.ar      1 UNK         0.0000 
     27 C27        -0.2924   52.0514   29.4643 C.ar      1 UNK         0.0000 
     28 C28         0.3741   53.1943   29.8931 C.ar      1 UNK         0.0000 
     29 C29         1.1164   53.9619   29.0037 C.ar      1 UNK         0.0000 
     30 C30         1.2334   53.5527   27.6817 C.ar      1 UNK         0.0000 
     31 Br31        0.3043   53.6970   31.7185 Br        1 UNK         0.0000 
     32 H32         4.4766   54.3832   28.8184 H         1 UNK         0.0000 
     33 H33         3.8142   52.7608   28.5876 H         1 UNK         0.0000 
     34 H34         5.5550   53.0084   28.5260 H         1 UNK         0.0000 
     35 H35         7.3076   55.1474   24.4860 H         1 UNK         0.0000 
     36 H36         7.2998   55.2229   22.0773 H         1 UNK         0.0000 
     37 H37         5.2958   54.5134   20.8030 H         1 UNK         0.0000 
     38 H38         3.3068   53.7701   21.9672 H         1 UNK         0.0000 
     39 H39         3.0660   53.0879   25.4823 H         1 UNK         0.0000 
     40 H40        -1.4034   53.0662   25.0770 H         1 UNK         0.0000 
     41 H41        -0.9413   53.9743   23.7085 H         1 UNK         0.0000 
     42 H42        -2.0607   51.7624   23.0442 H         1 UNK         0.0000 
     43 H43        -0.4139   51.7822   22.4561 H         1 UNK         0.0000 
     44 H44        -0.7338   47.5618   25.1986 H         1 UNK         0.0000 
     45 H45        -0.6906   50.7446   27.8372 H         1 UNK         0.0000 
     46 H46        -0.8757   51.4652   30.1624 H         1 UNK         0.0000 
     47 H47         1.6196   54.8555   29.3414 H         1 UNK         0.0000 
     48 H48         1.8334   54.1482   27.0123 H         1 UNK         0.0000 
@<TRIPOS>BOND
     1    1    2 1    
     2    1   32 1    
     3    1   33 1    
     4    1   34 1    
     5    2    3 1    
     6    3    4 2    
     7    3    5 1    
     8    5   10 ar   
     9    5    6 ar   
    10    6    7 ar   
    11    6   35 1    
    12    7    8 ar   
    13    7   36 1    
    14    8    9 ar   
    15    8   37 1    
    16    9   10 ar   
    17    9   38 1    
    18   10   11 1    
    19   11   12 am   BACKBONE|DICT|INTERRES
    20   11   39 1    
    21   12   13 2    
    22   12   14 am   BACKBONE|DICT|INTERRES
    23   14   23 1    
    24   14   15 1    
    25   15   16 1    
    26   15   40 1    
    27   15   41 1    
    28   16   17 1    
    29   16   42 1    
    30   16   43 1    
    31   17   22 ar   
    32   17   18 ar   
    33   18   19 ar   
    34   18   23 1    
    35   19   20 1    
    36   19   21 ar   
    37   21   22 ar   
    38   21   44 1    
    39   23   24 1    
    40   23   25 1    
    41   25   30 ar   
    42   25   26 ar   
    43   26   27 ar   
    44   26   45 1    
    45   27   28 ar   
    46   27   46 1    
    47   28   29 ar   
    48   28   31 1    
    49   29   30 ar   
    50   29   47 1    
    51   30   48 1    
@<TRIPOS>SUBSTRUCTURE
     1 UNK         1 GROUP             0       ****    0 ROOT    
