@<TRIPOS>MOLECULE
ZINC01427192_1028
65   70    1
SMALL
USER_CHARGES


@<TRIPOS>ATOM
      1 C1         -1.4389   51.2967   29.7597 C.3       1 UNK         0.0000 
      2 C2         -1.7187   51.4217   28.2669 C.2       1 UNK         0.0000 
      3 C3         -0.8477   51.8260   27.3046 C.2       1 UNK         0.0000 
      4 C4         -1.3241   51.9903   25.8234 C.3       1 UNK         0.0000 
      5 H5         -1.2176   53.0361   25.5365 H         1 UNK         0.0000 
      6 C6         -2.8430   51.7016   25.6660 C.2       1 UNK         0.0000 
      7 C7         -3.5821   51.2369   26.7085 C.2       1 UNK         0.0000 
      8 N8         -3.0244   51.1271   27.9589 N.pl3     1 UNK         0.0000 
      9 C9         -5.0829   50.9481   26.6396 C.3       1 UNK         0.0000 
     10 C10        -5.7332   51.7433   25.4924 C.3       1 UNK         0.0000 
     11 C11        -4.9440   51.5639   24.1854 C.3       1 UNK         0.0000 
     12 C12        -3.4755   51.9874   24.3536 C.2       1 UNK         0.0000 
     13 O13        -2.8955   52.5973   23.4561 O.2       1 UNK         0.0000 
     14 C14        -0.4639   51.2216   24.8113 C.ar      1 UNK         0.0000 
     15 C15        -0.3094   49.8286   24.9616 C.ar      1 UNK         0.0000 
     16 C16         0.4691   49.0904   24.0620 C.ar      1 UNK         0.0000 
     17 C17         1.1017   49.7829   23.0357 C.ar      1 UNK         0.0000 
     18 C18         0.9605   51.1329   22.8862 C.ar      1 UNK         0.0000 
     19 C19         0.1768   51.8890   23.7483 C.ar      1 UNK         0.0000 
     20 O20         1.6561   51.5382   21.7939 O.3       1 UNK         0.0000 
     21 C21         2.4048   50.4235   21.3813 C.3       1 UNK         0.0000 
     22 O22         1.8886   49.2966   22.0399 O.3       1 UNK         0.0000 
     23 C23         0.5610   52.0868   27.6147 C.2       1 UNK         0.0000 
     24 O24         1.1635   51.5004   28.5115 O.2       1 UNK         0.0000 
     25 N25         1.1367   53.0045   26.8152 N.am      1 UNK         0.0000 
     26 C26         2.4504   53.4377   26.8277 C.2       1 UNK         0.0000 
     27 C27         3.4114   53.6135   27.8496 C.2       1 UNK         0.0000 
     28 C28         4.6461   54.0243   27.2799 C.2       1 UNK         0.0000 
     29 C29         4.5926   54.1494   25.8809 C.2       1 UNK         0.0000 
     30 S30         3.0290   53.8269   25.2505 S.3       1 UNK         0.0000 
     31 C31         5.7671   54.4608   24.9698 C.3       1 UNK         0.0000 
     32 C32         6.9160   55.0517   25.7993 C.3       1 UNK         0.0000 
     33 C33         7.1480   54.2764   27.1091 C.3       1 UNK         0.0000 
     34 C34         5.9364   54.3115   28.0505 C.3       1 UNK         0.0000 
     35 C35         3.1921   53.4469   29.2878 C.2       1 UNK         0.0000 
     36 O36         2.2894   54.0080   29.9156 O.2       1 UNK         0.0000 
     37 O37         4.0468   52.5290   29.7970 O.3       1 UNK         0.0000 
     38 C38         3.9558   52.1221   31.1539 C.3       1 UNK         0.0000 
     39 H39        -0.6101   50.6222   29.9238 H         1 UNK         0.0000 
     40 H40        -1.1567   52.2610   30.1823 H         1 UNK         0.0000 
     41 H41        -2.2802   50.8965   30.3313 H         1 UNK         0.0000 
     42 H42        -3.5125   50.5453   28.6240 H         1 UNK         0.0000 
     43 H43        -5.2764   49.8743   26.6007 H         1 UNK         0.0000 
     44 H44        -5.5716   51.3137   27.5445 H         1 UNK         0.0000 
     45 H45        -6.7679   51.4218   25.3553 H         1 UNK         0.0000 
     46 H46        -5.7767   52.8039   25.7499 H         1 UNK         0.0000 
     47 H47        -4.9308   50.5064   23.9126 H         1 UNK         0.0000 
     48 H48        -5.3933   52.0957   23.3488 H         1 UNK         0.0000 
     49 H49        -0.7919   49.3165   25.7854 H         1 UNK         0.0000 
     50 H50         0.5873   48.0263   24.1863 H         1 UNK         0.0000 
     51 H51         0.0601   52.9516   23.6048 H         1 UNK         0.0000 
     52 H52         3.4492   50.5627   21.6709 H         1 UNK         0.0000 
     53 H53         2.3403   50.2983   20.2964 H         1 UNK         0.0000 
     54 H54         0.6006   53.2601   26.0010 H         1 UNK         0.0000 
     55 H55         5.4866   55.1503   24.1719 H         1 UNK         0.0000 
     56 H56         6.1045   53.5439   24.4847 H         1 UNK         0.0000 
     57 H57         6.7050   56.0974   26.0255 H         1 UNK         0.0000 
     58 H58         7.8140   55.0381   25.1847 H         1 UNK         0.0000 
     59 H59         7.9894   54.6938   27.6566 H         1 UNK         0.0000 
     60 H60         7.4092   53.2420   26.8813 H         1 UNK         0.0000 
     61 H61         6.1065   53.5987   28.8586 H         1 UNK         0.0000 
     62 H62         5.8827   55.2944   28.5229 H         1 UNK         0.0000 
     63 H63         4.6415   51.2973   31.3309 H         1 UNK         0.0000 
     64 H64         4.2411   52.9305   31.8252 H         1 UNK         0.0000 
     65 H65         2.9481   51.7927   31.4122 H         1 UNK         0.0000 
@<TRIPOS>BOND
     1    1    2 1    
     2    1   39 1    
     3    1   40 1    
     4    1   41 1    
     5    2    8 1    
     6    2    3 2    
     7    3    4 1    
     8    3   23 1    
     9    4    5 1    
    10    4    6 1    
    11    4   14 1    
    12    6   12 1    
    13    6    7 2    
    14    7    8 1    
    15    7    9 1    
    16    8   42 1    
    17    9   10 1    
    18    9   43 1    
    19    9   44 1    
    20   10   11 1    
    21   10   45 1    
    22   10   46 1    
    23   11   12 1    
    24   11   47 1    
    25   11   48 1    
    26   12   13 2    
    27   14   19 ar   
    28   14   15 ar   
    29   15   16 ar   
    30   15   49 1    
    31   16   17 ar   
    32   16   50 1    
    33   17   22 1    
    34   17   18 ar   
    35   18   19 ar   
    36   18   20 1    
    37   19   51 1    
    38   20   21 1    
    39   21   22 1    
    40   21   52 1    
    41   21   53 1    
    42   23   24 2    
    43   23   25 am   BACKBONE|DICT|INTERRES
    44   25   26 am   BACKBONE|DICT|INTERRES
    45   25   54 1    
    46   26   30 1    
    47   26   27 2    
    48   27   28 1    
    49   27   35 1    
    50   28   34 1    
    51   28   29 2    
    52   29   30 1    
    53   29   31 1    
    54   31   32 1    
    55   31   55 1    
    56   31   56 1    
    57   32   33 1    
    58   32   57 1    
    59   32   58 1    
    60   33   34 1    
    61   33   59 1    
    62   33   60 1    
    63   34   61 1    
    64   34   62 1    
    65   35   36 2    
    66   35   37 1    
    67   37   38 1    
    68   38   63 1    
    69   38   64 1    
    70   38   65 1    
@<TRIPOS>SUBSTRUCTURE
     1 UNK         1 GROUP             0       ****    0 ROOT    
