@<TRIPOS>MOLECULE
ZINC26954125_5436
62   67    1
SMALL
USER_CHARGES


@<TRIPOS>ATOM
      1 C1          1.5589   53.5579   14.6949 C.ar      1 UNK         0.0000 
      2 C2          2.2549   52.3787   14.9648 C.ar      1 UNK         0.0000 
      3 C3          2.9623   52.2511   16.1570 C.ar      1 UNK         0.0000 
      4 C4          2.9628   53.3010   17.0817 C.ar      1 UNK         0.0000 
      5 C5          2.2659   54.4815   16.8061 C.ar      1 UNK         0.0000 
      6 C6          1.5618   54.6089   15.6102 C.ar      1 UNK         0.0000 
      7 C7          3.7521   53.1834   18.3732 C.3       1 UNK         0.0000 
      8 N8          2.8847   52.7143   19.5646 N.4       1 UNK         0.0000 
      9 C9          3.5727   53.0344   20.9088 C.3       1 UNK         0.0000 
     10 C10         2.5199   52.8910   22.0293 C.3       1 UNK         0.0000 
     11 C11         1.7679   51.5699   21.8980 C.2       1 UNK         0.0000 
     12 C12         1.8090   50.8126   20.7157 C.2       1 UNK         0.0000 
     13 S13         0.9530   49.3095   20.8711 S.3       1 UNK         0.0000 
     14 C14         0.5056   49.7095   22.4977 C.ar      1 UNK         0.0000 
     15 C15         0.9983   50.9409   22.8990 C.ar      1 UNK         0.0000 
     16 C16         0.6432   51.4465   24.2245 C.ar      1 UNK         0.0000 
     17 O17         0.9481   52.5710   24.6352 O.2       1 UNK         0.0000 
     18 N18        -0.1039   50.5154   24.9599 N.pl3     1 UNK         0.0000 
     19 C19        -0.5183   49.2560   24.4707 C.ar      1 UNK         0.0000 
     20 N20        -0.2449   48.8846   23.2650 N.2       1 UNK         0.0000 
     21 N21        -1.2637   48.3751   25.3078 N.pl3     1 UNK         0.0000 
     22 N22        -2.2232   47.4509   24.8773 N.2       1 UNK         0.0000 
     23 C23        -2.8842   46.8802   25.7989 C.2       1 UNK         0.0000 
     24 C24        -3.9636   45.9156   25.5640 C.ar      1 UNK         0.0000 
     25 C25        -4.6018   45.7955   24.3187 C.ar      1 UNK         0.0000 
     26 C26        -5.6050   44.8500   24.1271 C.ar      1 UNK         0.0000 
     27 C27        -5.9841   44.0183   25.1794 C.ar      1 UNK         0.0000 
     28 C28        -5.3653   44.1304   26.4212 C.ar      1 UNK         0.0000 
     29 C29        -4.3680   45.0827   26.6161 C.ar      1 UNK         0.0000 
     30 F30        -6.9498   43.0908   24.9889 F         1 UNK         0.0000 
     31 C31        -0.4989   50.9399   26.2696 C.ar      1 UNK         0.0000 
     32 C32        -1.8565   50.9840   26.6261 C.ar      1 UNK         0.0000 
     33 C33        -2.2298   51.3264   27.9210 C.ar      1 UNK         0.0000 
     34 C34        -1.2536   51.6950   28.8467 C.ar      1 UNK         0.0000 
     35 C35         0.0915   51.6955   28.5018 C.ar      1 UNK         0.0000 
     36 C36         0.4669   51.3009   27.2235 C.ar      1 UNK         0.0000 
     37 C37         2.5653   51.2009   19.4505 C.3       1 UNK         0.0000 
     38 H38         1.0143   53.6571   13.7699 H         1 UNK         0.0000 
     39 H39         2.2501   51.5681   14.2522 H         1 UNK         0.0000 
     40 H40         3.5054   51.3362   16.3611 H         1 UNK         0.0000 
     41 H41         2.2691   55.2982   17.5153 H         1 UNK         0.0000 
     42 H42         1.0248   55.5221   15.3940 H         1 UNK         0.0000 
     43 H43         4.1418   54.1641   18.6483 H         1 UNK         0.0000 
     44 H44         4.5987   52.4966   18.2946 H         1 UNK         0.0000 
     45 H45         4.4204   52.3528   21.0055 H         1 UNK         0.0000 
     46 H46         3.9263   54.0658   20.8695 H         1 UNK         0.0000 
     47 H47         1.7994   53.7043   21.9698 H         1 UNK         0.0000 
     48 H48         3.0035   52.9837   23.0020 H         1 UNK         0.0000 
     49 H49        -1.2259   48.4965   26.3196 H         1 UNK         0.0000 
     50 H50        -2.6851   47.0755   26.8510 H         1 UNK         0.0000 
     51 H51        -4.3211   46.4343   23.4910 H         1 UNK         0.0000 
     52 H52        -6.0936   44.7580   23.1664 H         1 UNK         0.0000 
     53 H53        -5.6561   43.4763   27.2305 H         1 UNK         0.0000 
     54 H54        -3.8972   45.1496   27.5905 H         1 UNK         0.0000 
     55 H55        -2.6256   50.7135   25.9160 H         1 UNK         0.0000 
     56 H56        -3.2726   51.3151   28.2063 H         1 UNK         0.0000 
     57 H57        -1.5366   51.9437   29.8579 H         1 UNK         0.0000 
     58 H58         0.8398   51.9698   29.2303 H         1 UNK         0.0000 
     59 H59         1.5101   51.2881   26.9721 H         1 UNK         0.0000 
     60 H60         3.5045   50.6568   19.3540 H         1 UNK         0.0000 
     61 H61         1.9719   51.0788   18.5446 H         1 UNK         0.0000 
     62 H62         2.0326   53.2575   19.5228 H         1 UNK         0.0000 
@<TRIPOS>BOND
     1    1    6 ar   
     2    1    2 ar   
     3    1   38 1    
     4    2    3 ar   
     5    2   39 1    
     6    3    4 ar   
     7    3   40 1    
     8    4    5 ar   
     9    4    7 1    
    10    5    6 ar   
    11    5   41 1    
    12    6   42 1    
    13    7    8 1    
    14    7   43 1    
    15    7   44 1    
    16    8   37 1    
    17    8    9 1    
    18    8   62 1    
    19    9   10 1    
    20    9   45 1    
    21    9   46 1    
    22   10   11 1    
    23   10   47 1    
    24   10   48 1    
    25   11   15 1    
    26   11   12 2    
    27   12   13 1    
    28   12   37 1    
    29   13   14 1    
    30   14   20 ar   
    31   14   15 ar   
    32   15   16 ar   
    33   16   17 2    
    34   16   18 ar   
    35   18   19 ar   
    36   18   31 1    
    37   19   20 ar   
    38   19   21 1    
    39   21   22 1    
    40   21   49 1    
    41   22   23 2    
    42   23   24 1    
    43   23   50 1    
    44   24   29 ar   
    45   24   25 ar   
    46   25   26 ar   
    47   25   51 1    
    48   26   27 ar   
    49   26   52 1    
    50   27   28 ar   
    51   27   30 1    
    52   28   29 ar   
    53   28   53 1    
    54   29   54 1    
    55   31   36 ar   
    56   31   32 ar   
    57   32   33 ar   
    58   32   55 1    
    59   33   34 ar   
    60   33   56 1    
    61   34   35 ar   
    62   34   57 1    
    63   35   36 ar   
    64   35   58 1    
    65   36   59 1    
    66   37   60 1    
    67   37   61 1    
@<TRIPOS>SUBSTRUCTURE
     1 UNK         1 GROUP             0       ****    0 ROOT    
