@<TRIPOS>MOLECULE
ZINC12485518_720
67   71    1
SMALL
USER_CHARGES


@<TRIPOS>ATOM
      1 C1          0.0388   49.1433   21.5680 C.3       1 UNK         0.0000 
      2 C2          0.0842   49.6968   22.9864 C.2       1 UNK         0.0000 
      3 C3         -0.1849   48.8736   24.0842 C.2       1 UNK         0.0000 
      4 S4          0.0194   49.6898   25.5747 S.3       1 UNK         0.0000 
      5 C5          0.4468   51.1607   24.7636 C.2       1 UNK         0.0000 
      6 C6          0.4386   51.0350   23.3560 C.2       1 UNK         0.0000 
      7 C7          0.6617   52.2091   22.3593 C.3       1 UNK         0.0000 
      8 H8          0.2628   53.1086   22.8324 H         1 UNK         0.0000 
      9 C9         -0.1593   52.0969   21.0512 C.ar      1 UNK         0.0000 
     10 C10         0.4259   52.2561   19.7794 C.ar      1 UNK         0.0000 
     11 C11        -0.3153   52.0895   18.6113 C.ar      1 UNK         0.0000 
     12 C12        -1.6618   51.7602   18.6942 C.ar      1 UNK         0.0000 
     13 C13        -2.2700   51.6122   19.9487 C.ar      1 UNK         0.0000 
     14 C14        -1.5362   51.8242   21.1161 C.ar      1 UNK         0.0000 
     15 O15        -3.6052   51.2961   20.0772 O.3       1 UNK         0.0000 
     16 C16        -4.1773   50.6950   18.9099 C.3       1 UNK         0.0000 
     17 C17        -3.7578   51.4743   17.6415 C.3       1 UNK         0.0000 
     18 O18        -2.3335   51.5134   17.5124 O.3       1 UNK         0.0000 
     19 C19         3.0430   51.4119   21.6678 C.3       1 UNK         0.0000 
     20 C20         4.4264   51.9304   21.1831 C.3       1 UNK         0.0000 
     21 H21         5.0973   51.0688   21.1690 H         1 UNK         0.0000 
     22 C22         5.0746   53.0365   22.0647 C.3       1 UNK         0.0000 
     23 C23         4.1626   53.9026   22.9638 C.3       1 UNK         0.0000 
     24 H24         3.8648   54.7331   22.3179 H         1 UNK         0.0000 
     25 C25         2.8241   53.2596   23.3669 C.3       1 UNK         0.0000 
     26 C26         4.9217   54.4983   24.1628 C.3       1 UNK         0.0000 
     27 C27         4.3064   52.4689   19.7418 C.3       1 UNK         0.0000 
     28 N28         0.8616   52.2549   25.5192 N.am      1 UNK         0.0000 
     29 C29         0.6255   52.4960   26.8291 C.2       1 UNK         0.0000 
     30 O30        -0.2769   51.9969   27.5009 O.2       1 UNK         0.0000 
     31 C31         1.5359   53.4391   27.4190 C.2       1 UNK         0.0000 
     32 C32         1.4790   54.1228   28.6284 C.2       1 UNK         0.0000 
     33 C33         2.6800   54.8210   28.7560 C.2       1 UNK         0.0000 
     34 C34         3.4353   54.5041   27.6396 C.2       1 UNK         0.0000 
     35 O35         2.7356   53.6828   26.8184 O.3       1 UNK         0.0000 
     36 C36        -0.5720   47.4236   24.1384 C.3       1 UNK         0.0000 
     37 H37         0.7397   49.6203   20.8889 H         1 UNK         0.0000 
     38 H38         0.3056   48.0973   21.5154 H         1 UNK         0.0000 
     39 H39        -0.9565   49.2082   21.1329 H         1 UNK         0.0000 
     40 H40         1.4649   52.5124   19.6642 H         1 UNK         0.0000 
     41 H41         0.1636   52.1877   17.6474 H         1 UNK         0.0000 
     42 H42        -2.0246   51.7164   22.0740 H         1 UNK         0.0000 
     43 H43        -5.2633   50.6742   19.0086 H         1 UNK         0.0000 
     44 H44        -3.8268   49.6645   18.8286 H         1 UNK         0.0000 
     45 H45        -4.1398   52.4932   17.6996 H         1 UNK         0.0000 
     46 H46        -4.1856   51.0140   16.7509 H         1 UNK         0.0000 
     47 H47         3.1036   50.6893   22.4816 H         1 UNK         0.0000 
     48 H48         2.5262   50.9276   20.8416 H         1 UNK         0.0000 
     49 H49         5.6399   52.4372   22.7773 H         1 UNK         0.0000 
     50 H50         5.8652   53.6084   21.5760 H         1 UNK         0.0000 
     51 H51         2.1435   54.0382   23.7171 H         1 UNK         0.0000 
     52 H52         2.9609   52.4963   24.1295 H         1 UNK         0.0000 
     53 H53         5.2542   53.7152   24.8467 H         1 UNK         0.0000 
     54 H54         5.8053   55.0506   23.8380 H         1 UNK         0.0000 
     55 H55         4.2942   55.1849   24.7304 H         1 UNK         0.0000 
     56 H56         3.6944   53.3715   19.6914 H         1 UNK         0.0000 
     57 H57         5.2862   52.7131   19.3266 H         1 UNK         0.0000 
     58 H58         3.8637   51.7288   19.0729 H         1 UNK         0.0000 
     59 H59         1.4214   52.9432   25.0453 H         1 UNK         0.0000 
     60 H60         0.6636   54.1079   29.3365 H         1 UNK         0.0000 
     61 H61         2.9752   55.4651   29.5725 H         1 UNK         0.0000 
     62 H62         4.4238   54.7881   27.3082 H         1 UNK         0.0000 
     63 H63        -0.8933   47.0090   23.1830 H         1 UNK         0.0000 
     64 H64         0.3028   46.8842   24.4826 H         1 UNK         0.0000 
     65 H65        -1.3714   47.2380   24.8581 H         1 UNK         0.0000 
     66 N66         2.1660   52.5932   22.1413 N.4       1 UNK         0.0000 
     67 H67         2.1264   53.2872   21.4062 H         1 UNK         0.0000 
@<TRIPOS>BOND
     1    1    2 1    
     2    1   37 1    
     3    1   38 1    
     4    1   39 1    
     5    2    6 1    
     6    2    3 2    
     7    3    4 1    
     8    3   36 1    
     9    4    5 1    
    10    5    6 2    
    11    5   28 am   BACKBONE|DICT|INTERRES
    12    6    7 1    
    13    7    8 1    
    14    7    9 1    
    15    7   66 1    
    16    9   14 ar   
    17    9   10 ar   
    18   10   11 ar   
    19   10   40 1    
    20   11   12 ar   
    21   11   41 1    
    22   12   18 1    
    23   12   13 ar   
    24   13   14 ar   
    25   13   15 1    
    26   14   42 1    
    27   15   16 1    
    28   16   17 1    
    29   16   43 1    
    30   16   44 1    
    31   17   18 1    
    32   17   45 1    
    33   17   46 1    
    34   19   20 1    
    35   19   47 1    
    36   19   48 1    
    37   19   66 1    
    38   20   21 1    
    39   20   22 1    
    40   20   27 1    
    41   22   23 1    
    42   22   49 1    
    43   22   50 1    
    44   23   24 1    
    45   23   25 1    
    46   23   26 1    
    47   25   51 1    
    48   25   52 1    
    49   25   66 1    
    50   26   53 1    
    51   26   54 1    
    52   26   55 1    
    53   27   56 1    
    54   27   57 1    
    55   27   58 1    
    56   28   29 am   BACKBONE|DICT|INTERRES
    57   28   59 1    
    58   29   30 2    
    59   29   31 1    
    60   31   35 1    
    61   31   32 2    
    62   32   33 1    
    63   32   60 1    
    64   33   34 2    
    65   33   61 1    
    66   34   35 1    
    67   34   62 1    
    68   36   63 1    
    69   36   64 1    
    70   36   65 1    
    71   66   67 1    
@<TRIPOS>SUBSTRUCTURE
     1 UNK         1 GROUP             0       ****    0 ROOT    
