ZINC09781058_6098
                    3D
 Schrodinger Suite 2024-2.
 65 69  0  0  1  0            999 V2000
    1.2675   47.7600   17.6941 C   0  0  0  0  0  0
    1.0738   49.1278   18.3822 C   0  0  0  0  0  0
    2.3481   49.4291   19.2182 C   0  0  0  0  0  0
    2.1311   50.5501   20.2430 C   0  0  0  0  0  0
    0.9060   50.9219   20.7210 C   0  0  0  0  0  0
    0.7451   52.1336   21.6871 C   0  0  2  0  0  0
    0.2467   52.8963   21.0852 H   0  0  0  0  0  0
    2.1260   52.7340   22.0519 C   0  0  0  0  0  0
    2.2160   53.8838   22.9394 C   0  0  0  0  0  0
    1.2940   54.4948   23.4634 O   0  0  0  0  0  0
    3.4767   54.2841   23.1789 N   0  0  0  0  0  0
    3.5352   55.0794   23.7851 H   0  0  0  0  0  0
    4.6135   53.6856   22.7351 C   0  0  0  0  0  0
    4.5224   52.7504   21.8476 N   0  0  0  0  0  0
    3.2823   52.2800   21.5001 C   0  0  0  0  0  0
    3.2660   51.2523   20.5967 N   0  0  0  0  0  0
    6.2339   54.0972   23.4196 S   0  0  0  0  0  0
    5.8114   55.2247   24.8062 C   0  0  0  0  0  0
    5.2960   54.5450   26.0780 C   0  0  0  0  0  0
    3.9282   54.3399   26.3130 C   0  0  0  0  0  0
    3.4917   53.7236   27.4872 C   0  0  0  0  0  0
    4.4154   53.3275   28.4526 C   0  0  0  0  0  0
    5.7716   53.5711   28.2464 C   0  0  0  0  0  0
    6.2018   54.1829   27.0754 C   0  0  0  0  0  0
    7.5044   54.4749   26.9288 F   0  0  0  0  0  0
   -0.2029   51.9199   22.8884 C   0  0  0  0  0  0
   -1.5001   52.4343   22.8617 C   0  0  0  0  0  0
   -2.3181   52.3613   23.9811 C   0  0  0  0  0  0
   -1.8728   51.7477   25.1604 C   0  0  0  0  0  0
   -0.5828   51.1869   25.1632 C   0  0  0  0  0  0
    0.2420   51.2696   24.0413 C   0  0  0  0  0  0
   -2.7005   51.7061   26.3179 N   0  0  0  0  0  0
   -2.4433   50.6852   27.3334 C   0  0  0  0  0  0
   -4.0642   52.2355   26.2724 C   0  0  0  0  0  0
   -0.3211   50.2496   20.2300 C   0  0  0  0  0  0
   -1.4498   50.7173   20.3743 O   0  0  0  0  0  0
   -0.1150   48.9936   19.3691 C   0  0  0  0  0  0
    0.8147   50.2667   17.3602 C   0  0  0  0  0  0
    2.1242   47.7773   17.0180 H   0  0  0  0  0  0
    1.4399   46.9592   18.4147 H   0  0  0  0  0  0
    0.3944   47.4865   17.1007 H   0  0  0  0  0  0
    3.1044   49.7167   18.4857 H   0  0  0  0  0  0
    2.7122   48.5612   19.7694 H   0  0  0  0  0  0
    4.1345   51.0426   20.1281 H   0  0  0  0  0  0
    5.1046   55.9697   24.4859 H   0  0  0  0  0  0
    6.7075   55.7995   25.0435 H   0  0  0  0  0  0
    3.1781   54.6639   25.6124 H   0  0  0  0  0  0
    2.4353   53.5600   27.6488 H   0  0  0  0  0  0
    4.0802   52.8509   29.3619 H   0  0  0  0  0  0
    6.5021   53.3004   28.9909 H   0  0  0  0  0  0
   -1.8807   52.8972   21.9664 H   0  0  0  0  0  0
   -3.3032   52.7923   23.9053 H   0  0  0  0  0  0
   -0.1893   50.6957   26.0384 H   0  0  0  0  0  0
    1.2394   50.8564   24.0790 H   0  0  0  0  0  0
   -2.4972   49.6957   26.8784 H   0  0  0  0  0  0
   -1.4493   50.7940   27.7688 H   0  0  0  0  0  0
   -3.1682   50.7125   28.1476 H   0  0  0  0  0  0
   -4.0751   53.2621   25.9022 H   0  0  0  0  0  0
   -4.6816   51.6329   25.6034 H   0  0  0  0  0  0
   -4.5330   52.2349   27.2574 H   0  0  0  0  0  0
    0.0777   48.1807   20.0681 H   0  0  0  0  0  0
   -1.0481   48.7505   18.8621 H   0  0  0  0  0  0
    1.6135   50.3108   16.6183 H   0  0  0  0  0  0
   -0.1189   50.1069   16.8202 H   0  0  0  0  0  0
    0.7603   51.2517   17.8231 H   0  0  0  0  0  0
  1  2  1  0  0  0
  1 39  1  0  0  0
  1 40  1  0  0  0
  1 41  1  0  0  0
  2 37  1  0  0  0
  2  3  1  0  0  0
  2 38  1  0  0  0
  3  4  1  0  0  0
  3 42  1  0  0  0
  3 43  1  0  0  0
  4 16  1  0  0  0
  4  5  2  0  0  0
  5  6  1  0  0  0
  5 35  1  0  0  0
  6  7  1  0  0  0
  6  8  1  0  0  0
  6 26  1  0  0  0
  8 15  2  0  0  0
  8  9  1  0  0  0
  9 10  2  0  0  0
  9 11  1  0  0  0
 11 12  1  0  0  0
 11 13  1  0  0  0
 13 14  2  0  0  0
 13 17  1  0  0  0
 14 15  1  0  0  0
 15 16  1  0  0  0
 16 44  1  0  0  0
 17 18  1  0  0  0
 18 19  1  0  0  0
 18 45  1  0  0  0
 18 46  1  0  0  0
 19 24  2  0  0  0
 19 20  1  0  0  0
 20 21  2  0  0  0
 20 47  1  0  0  0
 21 22  1  0  0  0
 21 48  1  0  0  0
 22 23  2  0  0  0
 22 49  1  0  0  0
 23 24  1  0  0  0
 23 50  1  0  0  0
 24 25  1  0  0  0
 26 31  2  0  0  0
 26 27  1  0  0  0
 27 28  2  0  0  0
 27 51  1  0  0  0
 28 29  1  0  0  0
 28 52  1  0  0  0
 29 30  2  0  0  0
 29 32  1  0  0  0
 30 31  1  0  0  0
 30 53  1  0  0  0
 31 54  1  0  0  0
 32 33  1  0  0  0
 32 34  1  0  0  0
 33 55  1  0  0  0
 33 56  1  0  0  0
 33 57  1  0  0  0
 34 58  1  0  0  0
 34 59  1  0  0  0
 34 60  1  0  0  0
 35 36  2  0  0  0
 35 37  1  0  0  0
 37 61  1  0  0  0
 37 62  1  0  0  0
 38 63  1  0  0  0
 38 64  1  0  0  0
 38 65  1  0  0  0
M  END
> <i_i_glide_confnum>
20

> <i_i_glide_lignum>
6099

> <i_i_glide_posenum>
381

> <i_i_glide_rotatable_bonds>
5

> <i_m_Source_File_Index>
4077

> <b_m_subgroup_collapsed>
0

> <r_i_docking_score>
-5.47195

> <r_i_glide_ecoul>
-2.88289

> <r_i_glide_eff_state_penalty>
0

> <r_i_glide_einternal>
3.65363

> <r_i_glide_emodel>
-60.4818

> <r_i_glide_energy>
-47.0351

> <r_i_glide_erotb>
0.321203

> <r_i_glide_esite>
-0.111516

> <r_i_glide_evdw>
-44.1522

> <r_i_glide_gscore>
-5.47195

> <r_i_glide_hbond>
-0.00179378

> <r_i_glide_ligand_efficiency>
-0.151999

> <r_i_glide_ligand_efficiency_ln>
-1.19383

> <r_i_glide_ligand_efficiency_sa>
-0.501888

> <r_i_glide_lipo>
-2.6746

> <r_i_glide_metal>
0

> <r_i_glide_rewards>
-0.365193

> <s_i_glide_gridfile>
wee1_glide-grid

> <s_m_Source_File>
wee1_decoys_glide_SP.sdf

> <s_m_Source_Path>
/Users/zhangxujun/Desktop

> <s_m_entry_id>
4352

> <s_m_entry_name>
wee1_decoys_glide_SP.4077

> <s_m_subgroup_title>
wee1_decoys_glide_SP

> <s_m_subgroupid>
wee1_decoys_glide_SP


$$$$
