@<TRIPOS>MOLECULE
ZINC60248432_4411
59   61    1
SMALL
USER_CHARGES


@<TRIPOS>ATOM
      1 C1          1.8764   53.6031   23.3245 C.3       1 UNK         0.0000 
      2 C2          3.3624   53.8706   23.5338 C.ar      1 UNK         0.0000 
      3 C3          3.8274   54.1036   24.8286 C.ar      1 UNK         0.0000 
      4 C4          5.1786   54.4033   25.0742 C.ar      1 UNK         0.0000 
      5 C5          6.0593   54.4979   23.9894 C.ar      1 UNK         0.0000 
      6 C6          5.6088   54.2707   22.6942 C.ar      1 UNK         0.0000 
      7 C7          4.2740   53.9363   22.4659 C.ar      1 UNK         0.0000 
      8 N8          3.9043   53.7129   21.1427 N.am      1 UNK         0.0000 
      9 C9          3.5296   52.5261   20.6323 C.2       1 UNK         0.0000 
     10 O10         3.4010   51.4848   21.2832 O.2       1 UNK         0.0000 
     11 C11         3.2786   52.4758   19.1122 C.3       1 UNK         0.0000 
     12 H12         3.9044   51.6967   18.6970 H         1 UNK         0.0000 
     13 C13         1.8170   52.1308   18.7880 C.3       1 UNK         0.0000 
     14 C14         1.6028   52.7273   17.4136 C.3       1 UNK         0.0000 
     15 C15         2.3974   54.0206   17.5103 C.3       1 UNK         0.0000 
     16 N16         3.5755   53.6956   18.3180 N.am      1 UNK         0.0000 
     17 C17         4.8273   54.2422   18.2287 C.2       1 UNK         0.0000 
     18 O18         5.7993   53.6970   18.7611 O.2       1 UNK         0.0000 
     19 C19         5.0723   55.5512   17.4951 C.ar      1 UNK         0.0000 
     20 C20         4.0871   56.5398   17.3437 C.ar      1 UNK         0.0000 
     21 C21         4.3599   57.7360   16.6864 C.ar      1 UNK         0.0000 
     22 C22         5.6392   57.9939   16.2003 C.ar      1 UNK         0.0000 
     23 C23         6.6412   57.0386   16.3602 C.ar      1 UNK         0.0000 
     24 C24         6.3589   55.8302   16.9995 C.ar      1 UNK         0.0000 
     25 Cl25        8.2324   57.3499   15.7694 Cl        1 UNK         0.0000 
     26 Cl26        3.1044   58.8974   16.4818 Cl        1 UNK         0.0000 
     27 C27         5.6862   54.6383   26.4711 C.2       1 UNK         0.0000 
     28 O28         6.7064   55.2964   26.6677 O.2       1 UNK         0.0000 
     29 N29         4.9632   54.0888   27.4587 N.am      1 UNK         0.0000 
     30 C30         5.2235   54.2617   28.8814 C.3       1 UNK         0.0000 
     31 C31         4.0103   53.8837   29.7642 C.3       1 UNK         0.0000 
     32 C32         2.7721   54.7581   29.4766 C.3       1 UNK         0.0000 
     33 C33         3.6681   52.3819   29.6801 C.3       1 UNK         0.0000 
     34 H34         1.6986   52.5459   23.1259 H         1 UNK         0.0000 
     35 H35         1.2824   53.9063   24.1870 H         1 UNK         0.0000 
     36 H36         1.5043   54.1763   22.4751 H         1 UNK         0.0000 
     37 H37         3.1180   54.0570   25.6432 H         1 UNK         0.0000 
     38 H38         7.1035   54.7403   24.1396 H         1 UNK         0.0000 
     39 H39         6.3041   54.3419   21.8702 H         1 UNK         0.0000 
     40 H40         4.0572   54.4705   20.4937 H         1 UNK         0.0000 
     41 H41         1.6274   51.0566   18.8107 H         1 UNK         0.0000 
     42 H42         1.1426   52.6022   19.5048 H         1 UNK         0.0000 
     43 H43         2.0406   52.0756   16.6552 H         1 UNK         0.0000 
     44 H44         0.5518   52.8792   17.1668 H         1 UNK         0.0000 
     45 H45         2.6329   54.4096   16.5181 H         1 UNK         0.0000 
     46 H46         1.8056   54.7487   18.0651 H         1 UNK         0.0000 
     47 H47         3.0996   56.4256   17.7538 H         1 UNK         0.0000 
     48 H48         5.8490   58.9350   15.7104 H         1 UNK         0.0000 
     49 H49         7.1563   55.1059   17.1090 H         1 UNK         0.0000 
     50 H50         4.2358   53.4364   27.2085 H         1 UNK         0.0000 
     51 H51         5.5061   55.2967   29.0840 H         1 UNK         0.0000 
     52 H52         6.0888   53.6467   29.1317 H         1 UNK         0.0000 
     53 H53         4.3044   54.0821   30.7957 H         1 UNK         0.0000 
     54 H54         2.4017   54.6103   28.4615 H         1 UNK         0.0000 
     55 H55         2.9996   55.8182   29.5890 H         1 UNK         0.0000 
     56 H56         1.9514   54.5308   30.1576 H         1 UNK         0.0000 
     57 H57         3.3291   52.0999   28.6829 H         1 UNK         0.0000 
     58 H58         4.5364   51.7658   29.9204 H         1 UNK         0.0000 
     59 H59         2.8784   52.1141   30.3840 H         1 UNK         0.0000 
@<TRIPOS>BOND
     1    1    2 1    
     2    1   34 1    
     3    1   35 1    
     4    1   36 1    
     5    2    7 ar   
     6    2    3 ar   
     7    3    4 ar   
     8    3   37 1    
     9    4    5 ar   
    10    4   27 1    
    11    5    6 ar   
    12    5   38 1    
    13    6    7 ar   
    14    6   39 1    
    15    7    8 1    
    16    8    9 am   BACKBONE|DICT|INTERRES
    17    8   40 1    
    18    9   10 2    
    19    9   11 1    
    20   11   12 1    
    21   11   16 1    
    22   11   13 1    
    23   13   14 1    
    24   13   41 1    
    25   13   42 1    
    26   14   15 1    
    27   14   43 1    
    28   14   44 1    
    29   15   16 1    
    30   15   45 1    
    31   15   46 1    
    32   16   17 am   BACKBONE|DICT|INTERRES
    33   17   18 2    
    34   17   19 1    
    35   19   24 ar   
    36   19   20 ar   
    37   20   21 ar   
    38   20   47 1    
    39   21   22 ar   
    40   21   26 1    
    41   22   23 ar   
    42   22   48 1    
    43   23   24 ar   
    44   23   25 1    
    45   24   49 1    
    46   27   28 2    
    47   27   29 am   BACKBONE|DICT|INTERRES
    48   29   30 1    
    49   29   50 1    
    50   30   31 1    
    51   30   51 1    
    52   30   52 1    
    53   31   32 1    
    54   31   33 1    
    55   31   53 1    
    56   32   54 1    
    57   32   55 1    
    58   32   56 1    
    59   33   57 1    
    60   33   58 1    
    61   33   59 1    
@<TRIPOS>SUBSTRUCTURE
     1 UNK         1 GROUP             0       ****    0 ROOT    
