@<TRIPOS>MOLECULE
ZINC00866077_5419
56   59    1
SMALL
USER_CHARGES


@<TRIPOS>ATOM
      1 C1          0.3043   53.3077   32.2309 C.3       1 UNK         0.0000 
      2 O2          0.9109   53.9894   31.1466 O.3       1 UNK         0.0000 
      3 C3          0.8258   53.4627   29.8775 C.ar      1 UNK         0.0000 
      4 C4          0.1041   52.3023   29.5535 C.ar      1 UNK         0.0000 
      5 C5          0.0851   51.8233   28.2445 C.ar      1 UNK         0.0000 
      6 C6          0.7774   52.4945   27.2308 C.ar      1 UNK         0.0000 
      7 C7          1.5042   53.6493   27.5608 C.ar      1 UNK         0.0000 
      8 C8          1.5220   54.1369   28.8652 C.ar      1 UNK         0.0000 
      9 O9          2.2682   55.2611   29.1301 O.3       1 UNK         0.0000 
     10 C10         1.5042   56.4370   29.3606 C.3       1 UNK         0.0000 
     11 C11         0.7489   51.9397   25.8009 C.3       1 UNK         0.0000 
     12 H12         1.0932   50.9142   25.9353 H         1 UNK         0.0000 
     13 C13        -0.6786   51.8967   25.1949 C.3       1 UNK         0.0000 
     14 C14        -0.7277   51.2816   23.7689 C.3       1 UNK         0.0000 
     15 H15        -1.6754   51.5486   23.2995 H         1 UNK         0.0000 
     16 N16         0.3477   51.9188   23.0029 N.pl3     1 UNK         0.0000 
     17 C17         1.5072   52.4702   23.5147 C.ar      1 UNK         0.0000 
     18 C18         2.2605   52.8968   22.4262 C.ar      1 UNK         0.0000 
     19 C19         1.4830   52.4961   21.3214 C.ar      1 UNK         0.0000 
     20 N20         0.3562   51.9184   21.6627 N.2       1 UNK         0.0000 
     21 C21         3.5093   53.6292   22.4582 C.2       1 UNK         0.0000 
     22 O22         3.9572   54.0619   23.5220 O.2       1 UNK         0.0000 
     23 N23         4.0988   53.7703   21.2518 N.am      1 UNK         0.0000 
     24 C24         5.3021   54.4135   20.9097 C.ar      1 UNK         0.0000 
     25 C25         6.2429   54.9128   21.8296 C.ar      1 UNK         0.0000 
     26 C26         7.3969   55.5527   21.3767 C.ar      1 UNK         0.0000 
     27 C27         7.6412   55.6771   20.0100 C.ar      1 UNK         0.0000 
     28 C28         6.7279   55.1635   19.0806 C.ar      1 UNK         0.0000 
     29 C29         5.5629   54.5376   19.5413 C.ar      1 UNK         0.0000 
     30 C30         6.9940   55.2657   17.5792 C.3       1 UNK         0.0000 
     31 F31         6.6571   54.1304   16.9652 F         1 UNK         0.0000 
     32 F32         8.2781   55.5175   17.3148 F         1 UNK         0.0000 
     33 F33         6.2578   56.2586   17.0795 F         1 UNK         0.0000 
     34 N34         1.6919   52.5850   24.8770 N.pl3     1 UNK         0.0000 
     35 C35        -0.6477   49.7318   23.7529 C.3       1 UNK         0.0000 
     36 F36        -1.6126   49.1942   24.4989 F         1 UNK         0.0000 
     37 F37        -0.7903   49.2423   22.5206 F         1 UNK         0.0000 
     38 F38         0.5120   49.2805   24.2281 F         1 UNK         0.0000 
     39 H39         0.5012   53.8380   33.1626 H         1 UNK         0.0000 
     40 H40        -0.7719   53.2990   32.0815 H         1 UNK         0.0000 
     41 H41         0.6782   52.2888   32.3418 H         1 UNK         0.0000 
     42 H42        -0.4480   51.7549   30.3035 H         1 UNK         0.0000 
     43 H43        -0.4692   50.9214   28.0254 H         1 UNK         0.0000 
     44 H44         2.0580   54.1939   26.8105 H         1 UNK         0.0000 
     45 H45         2.1693   57.2958   29.4015 H         1 UNK         0.0000 
     46 H46         0.7852   56.6115   28.5602 H         1 UNK         0.0000 
     47 H47         0.9678   56.3961   30.3092 H         1 UNK         0.0000 
     48 H48        -1.1126   52.8976   25.1770 H         1 UNK         0.0000 
     49 H49        -1.3429   51.3336   25.8529 H         1 UNK         0.0000 
     50 H50         1.7192   52.6566   20.2785 H         1 UNK         0.0000 
     51 H51         3.5904   53.3853   20.4709 H         1 UNK         0.0000 
     52 H52         6.1059   54.8255   22.8952 H         1 UNK         0.0000 
     53 H53         8.1177   55.9405   22.0824 H         1 UNK         0.0000 
     54 H54         8.5532   56.1580   19.6828 H         1 UNK         0.0000 
     55 H55         4.8569   54.1461   18.8208 H         1 UNK         0.0000 
     56 H56         2.6370   52.5754   25.2325 H         1 UNK         0.0000 
@<TRIPOS>BOND
     1    1    2 1    
     2    1   39 1    
     3    1   40 1    
     4    1   41 1    
     5    2    3 1    
     6    3    8 ar   
     7    3    4 ar   
     8    4    5 ar   
     9    4   42 1    
    10    5    6 ar   
    11    5   43 1    
    12    6    7 ar   
    13    6   11 1    
    14    7    8 ar   
    15    7   44 1    
    16    8    9 1    
    17    9   10 1    
    18   10   45 1    
    19   10   46 1    
    20   10   47 1    
    21   11   12 1    
    22   11   34 1    
    23   11   13 1    
    24   13   14 1    
    25   13   48 1    
    26   13   49 1    
    27   14   15 1    
    28   14   16 1    
    29   14   35 1    
    30   16   20 ar   
    31   16   17 ar   
    32   17   18 ar   
    33   17   34 1    
    34   18   19 ar   
    35   18   21 1    
    36   19   20 ar   
    37   19   50 1    
    38   21   22 2    
    39   21   23 am   BACKBONE|DICT|INTERRES
    40   23   24 1    
    41   23   51 1    
    42   24   29 ar   
    43   24   25 ar   
    44   25   26 ar   
    45   25   52 1    
    46   26   27 ar   
    47   26   53 1    
    48   27   28 ar   
    49   27   54 1    
    50   28   29 ar   
    51   28   30 1    
    52   29   55 1    
    53   30   31 1    
    54   30   32 1    
    55   30   33 1    
    56   34   56 1    
    57   35   36 1    
    58   35   37 1    
    59   35   38 1    
@<TRIPOS>SUBSTRUCTURE
     1 UNK         1 GROUP             0       ****    0 ROOT    
