ZINC63384313_1310
                    3D
 Schrodinger Suite 2024-2.
 63 67  0  0  1  0            999 V2000
    2.9952   58.2239   16.5820 C   0  0  0  0  0  0
    3.8865   57.1800   17.2702 C   0  0  0  0  0  0
    5.3682   57.3783   16.8698 N   0  3  2  0  0  0
    5.6181   56.8905   15.4140 C   0  0  0  0  0  0
    7.1082   56.9660   15.0260 C   0  0  0  0  0  0
    7.9504   56.3169   16.1020 C   0  0  0  0  0  0
    8.8136   55.2919   16.1210 C   0  0  0  0  0  0
    9.2640   54.3679   15.0707 C   0  0  0  0  0  0
   10.1685   53.4079   15.3481 C   0  0  0  0  0  0
   10.6900   53.3304   16.7075 C   0  0  0  0  0  0
   10.2840   54.1857   17.6814 C   0  0  0  0  0  0
    9.3311   55.1690   17.4129 C   0  0  0  0  0  0
    8.8027   56.0660   18.2185 N   0  3  0  0  0  0
    7.8272   56.9063   17.4858 C   0  0  2  0  0  0
    8.2102   57.9262   17.5047 H   0  0  0  0  0  0
    6.3506   56.8729   17.9765 C   0  0  2  0  0  0
    6.2453   57.7311   18.6464 H   0  0  0  0  0  0
    5.9247   55.5768   18.7296 C   0  0  0  0  0  0
    5.0919   52.3964   18.4214 H   0  0  0  0  0  0
    5.5777   54.3891   18.1811 C   0  0  0  0  0  0
    5.1951   53.2969   18.8768 N   0  0  0  0  0  0
    5.1044   53.2972   20.2306 C   0  0  0  0  0  0
    4.7416   52.2760   20.8133 O   0  0  0  0  0  0
    5.5049   54.4829   20.8334 N   0  0  0  0  0  0
    5.9549   55.6311   20.2011 C   0  0  0  0  0  0
    6.3996   56.6222   20.7943 O   0  0  0  0  0  0
    5.6379   54.4384   22.3166 C   0  0  0  0  0  0
    4.3127   54.3640   23.1166 C   0  0  0  0  0  0
    4.4437   54.3339   24.6424 C   0  0  0  0  0  0
    5.6189   54.4975   25.2983 C   0  0  0  0  0  0
    5.8186   54.3680   26.8037 C   0  0  0  0  0  0
    4.5975   53.7207   27.4907 C   0  0  0  0  0  0
    3.2665   54.2254   26.9094 C   0  0  0  0  0  0
    3.1658   53.9548   25.3935 C   0  0  0  0  0  0
    5.5760   54.1154   16.9291 O   0  5  0  0  0  0
    1.9540   58.0964   16.8816 H   0  0  0  0  0  0
    3.2851   59.2433   16.8449 H   0  0  0  0  0  0
    3.0137   58.1417   15.4970 H   0  0  0  0  0  0
    3.6151   56.1497   17.0248 H   0  0  0  0  0  0
    3.8681   57.2966   18.3535 H   0  0  0  0  0  0
    5.2058   55.8905   15.2989 H   0  0  0  0  0  0
    5.0545   57.5634   14.7668 H   0  0  0  0  0  0
    7.2599   56.4927   14.0547 H   0  0  0  0  0  0
    7.4033   58.0106   14.8997 H   0  0  0  0  0  0
    8.8754   54.4233   14.0636 H   0  0  0  0  0  0
   10.4995   52.7157   14.5879 H   0  0  0  0  0  0
   11.4271   52.5750   16.9450 H   0  0  0  0  0  0
   10.7063   54.0971   18.6704 H   0  0  0  0  0  0
    6.2087   55.2908   22.6829 H   0  0  0  0  0  0
    6.2489   53.5720   22.5787 H   0  0  0  0  0  0
    3.7713   53.4630   22.8270 H   0  0  0  0  0  0
    3.6519   55.1846   22.8346 H   0  0  0  0  0  0
    6.5040   54.7295   24.7269 H   0  0  0  0  0  0
    6.0040   55.3561   27.2236 H   0  0  0  0  0  0
    6.7127   53.7823   27.0227 H   0  0  0  0  0  0
    4.6347   53.9062   28.5655 H   0  0  0  0  0  0
    4.6502   52.6380   27.3688 H   0  0  0  0  0  0
    2.4290   53.7553   27.4276 H   0  0  0  0  0  0
    3.1731   55.2968   27.0986 H   0  0  0  0  0  0
    2.9665   52.8966   25.2249 H   0  0  0  0  0  0
    2.3010   54.4592   24.9614 H   0  0  0  0  0  0
    9.0203   56.1753   19.2059 H   0  0  0  0  0  0
    5.5358   58.3755   16.8582 H   0  0  0  0  0  0
  1  2  1  0  0  0
  1 36  1  0  0  0
  1 37  1  0  0  0
  1 38  1  0  0  0
  2  3  1  0  0  0
  2 39  1  0  0  0
  2 40  1  0  0  0
  3 16  1  0  0  0
  3  4  1  0  0  0
  3 63  1  0  0  0
  4  5  1  0  0  0
  4 41  1  0  0  0
  4 42  1  0  0  0
  5  6  1  0  0  0
  5 43  1  0  0  0
  5 44  1  0  0  0
  6 14  1  0  0  0
  6  7  2  0  0  0
  7 12  1  0  0  0
  7  8  1  0  0  0
  8  9  2  0  0  0
  8 45  1  0  0  0
  9 10  1  0  0  0
  9 46  1  0  0  0
 10 11  2  0  0  0
 10 47  1  0  0  0
 11 12  1  0  0  0
 11 48  1  0  0  0
 12 13  2  0  0  0
 13 14  1  0  0  0
 13 62  1  0  0  0
 14 15  1  0  0  0
 14 16  1  0  0  0
 16 17  1  0  0  0
 16 18  1  0  0  0
 18 25  1  0  0  0
 18 20  2  0  0  0
 19 21  1  0  0  0
 20 35  1  0  0  0
 20 21  1  0  0  0
 21 22  1  0  0  0
 22 23  2  0  0  0
 22 24  1  0  0  0
 24 25  1  0  0  0
 24 27  1  0  0  0
 25 26  2  0  0  0
 27 28  1  0  0  0
 27 49  1  0  0  0
 27 50  1  0  0  0
 28 29  1  0  0  0
 28 51  1  0  0  0
 28 52  1  0  0  0
 29 34  1  0  0  0
 29 30  2  0  0  0
 30 31  1  0  0  0
 30 53  1  0  0  0
 31 32  1  0  0  0
 31 54  1  0  0  0
 31 55  1  0  0  0
 32 33  1  0  0  0
 32 56  1  0  0  0
 32 57  1  0  0  0
 33 34  1  0  0  0
 33 58  1  0  0  0
 33 59  1  0  0  0
 34 60  1  0  0  0
 34 61  1  0  0  0
M  CHG  3   3   1  13   1  35  -1
M  END
> <i_i_glide_confnum>
35

> <i_i_glide_lignum>
1311

> <i_i_glide_posenum>
61

> <i_i_glide_rotatable_bonds>
5

> <i_m_Source_File_Index>
2801

> <b_m_subgroup_collapsed>
0

> <r_i_docking_score>
-5.81078

> <r_i_glide_ecoul>
-9.68057

> <r_i_glide_eff_state_penalty>
0

> <r_i_glide_einternal>
5.76975

> <r_i_glide_emodel>
-55.6334

> <r_i_glide_energy>
-42.0444

> <r_i_glide_erotb>
0.420154

> <r_i_glide_esite>
-0.10874

> <r_i_glide_evdw>
-32.3638

> <r_i_glide_gscore>
-5.81078

> <r_i_glide_hbond>
-0.286156

> <r_i_glide_ligand_efficiency>
-0.181587

> <r_i_glide_ligand_efficiency_ln>
-1.30119

> <r_i_glide_ligand_efficiency_sa>
-0.576502

> <r_i_glide_lipo>
-2.07995

> <r_i_glide_metal>
0

> <r_i_glide_rewards>
-0.685805

> <s_i_glide_gridfile>
wee1_glide-grid

> <s_m_Source_File>
wee1_decoys_glide_SP.sdf

> <s_m_Source_Path>
/Users/zhangxujun/Desktop

> <s_m_entry_id>
3076

> <s_m_entry_name>
wee1_decoys_glide_SP.2801

> <s_m_subgroup_title>
wee1_decoys_glide_SP

> <s_m_subgroupid>
wee1_decoys_glide_SP


$$$$
