ZINC09678742_4263
                    3D
 Schrodinger Suite 2024-2.
 45 47  0  0  1  0            999 V2000
    6.3412   54.8142   26.1678 C   0  0  0  0  0  0
    5.3287   54.7744   25.1703 O   0  0  0  0  0  0
    4.0685   54.3077   25.5001 C   0  0  0  0  0  0
    3.6573   54.0271   26.8158 C   0  0  0  0  0  0
    2.3778   53.5251   27.0930 C   0  0  0  0  0  0
    1.5055   53.2965   26.0201 C   0  0  0  0  0  0
    1.8900   53.5895   24.7138 C   0  0  0  0  0  0
    3.1665   54.0963   24.4483 C   0  0  0  0  0  0
    3.5371   54.3702   23.1534 O   0  0  0  0  0  0
    4.0646   53.2441   22.4622 C   0  0  0  0  0  0
    4.3735   53.6033   21.0159 C   0  0  0  0  0  0
    3.5989   53.0564   19.9919 C   0  0  0  0  0  0
    3.9030   53.2974   18.6589 C   0  0  0  0  0  0
    4.9979   54.0803   18.3142 C   0  0  0  0  0  0
    5.8227   54.6420   19.3188 C   0  0  0  0  0  0
    5.5055   54.4164   20.6969 C   0  0  0  0  0  0
    6.3609   54.9831   21.6845 C   0  0  0  0  0  0
    7.4973   55.6975   21.3171 C   0  0  0  0  0  0
    7.8014   55.9035   19.9785 C   0  0  0  0  0  0
    6.9729   55.3985   18.9814 C   0  0  0  0  0  0
    0.6635   53.2698   23.2928 Br  0  0  0  0  0  0
    1.9960   53.2566   28.4862 C   0  0  0  0  0  0
    0.8366   52.8482   28.8519 N   0  0  0  0  0  0
    0.5385   52.5808   30.1793 N   0  0  0  0  0  0
    1.3475   52.2717   31.2225 C   0  0  0  0  0  0
    2.5644   52.0969   31.1807 O   0  0  0  0  0  0
    0.7044   52.2399   32.3830 N   0  0  0  0  0  0
    7.2779   55.1110   25.6982 H   0  0  0  0  0  0
    6.1156   55.5414   26.9497 H   0  0  0  0  0  0
    6.4996   53.8339   26.6209 H   0  0  0  0  0  0
    4.3387   54.1924   27.6379 H   0  0  0  0  0  0
    0.5158   52.8951   26.1931 H   0  0  0  0  0  0
    4.9826   52.8973   22.9399 H   0  0  0  0  0  0
    3.3748   52.3982   22.4877 H   0  0  0  0  0  0
    2.7502   52.4297   20.2248 H   0  0  0  0  0  0
    3.2949   52.8542   17.8837 H   0  0  0  0  0  0
    5.2378   54.2402   17.2737 H   0  0  0  0  0  0
    6.1484   54.8436   22.7327 H   0  0  0  0  0  0
    8.1491   56.0968   22.0814 H   0  0  0  0  0  0
    8.6899   56.4581   19.7103 H   0  0  0  0  0  0
    7.2155   55.5622   17.9403 H   0  0  0  0  0  0
    2.7886   53.4599   29.2010 H   0  0  0  0  0  0
   -0.4477   52.4390   30.3354 H   0  0  0  0  0  0
   -0.3130   52.0963   32.4823 H   0  0  0  0  0  0
    1.2656   52.1288   33.2194 H   0  0  0  0  0  0
  1  2  1  0  0  0
  1 28  1  0  0  0
  1 29  1  0  0  0
  1 30  1  0  0  0
  2  3  1  0  0  0
  3  8  2  0  0  0
  3  4  1  0  0  0
  4  5  2  0  0  0
  4 31  1  0  0  0
  5  6  1  0  0  0
  5 22  1  0  0  0
  6  7  2  0  0  0
  6 32  1  0  0  0
  7  8  1  0  0  0
  7 21  1  0  0  0
  8  9  1  0  0  0
  9 10  1  0  0  0
 10 11  1  0  0  0
 10 33  1  0  0  0
 10 34  1  0  0  0
 11 16  2  0  0  0
 11 12  1  0  0  0
 12 13  2  0  0  0
 12 35  1  0  0  0
 13 14  1  0  0  0
 13 36  1  0  0  0
 14 15  2  0  0  0
 14 37  1  0  0  0
 15 20  1  0  0  0
 15 16  1  0  0  0
 16 17  1  0  0  0
 17 18  2  0  0  0
 17 38  1  0  0  0
 18 19  1  0  0  0
 18 39  1  0  0  0
 19 20  2  0  0  0
 19 40  1  0  0  0
 20 41  1  0  0  0
 22 23  2  0  0  0
 22 42  1  0  0  0
 23 24  1  0  0  0
 24 25  1  0  0  0
 24 43  1  0  0  0
 25 26  2  0  0  0
 25 27  1  0  0  0
 27 44  1  0  0  0
 27 45  1  0  0  0
M  END
> <i_i_glide_confnum>
65

> <i_i_glide_lignum>
4264

> <i_i_glide_posenum>
265

> <i_i_glide_rotatable_bonds>
7

> <i_m_Source_File_Index>
3682

> <b_m_subgroup_collapsed>
0

> <r_i_docking_score>
-7.35085

> <r_i_glide_ecoul>
-11.3204

> <r_i_glide_eff_state_penalty>
0

> <r_i_glide_einternal>
1.40446

> <r_i_glide_emodel>
-70.4338

> <r_i_glide_energy>
-48.363

> <r_i_glide_erotb>
0.541434

> <r_i_glide_esite>
-0.167288

> <r_i_glide_evdw>
-37.0427

> <r_i_glide_gscore>
-7.35085

> <r_i_glide_hbond>
-0.712457

> <r_i_glide_ligand_efficiency>
-0.272254

> <r_i_glide_ligand_efficiency_ln>
-1.71116

> <r_i_glide_ligand_efficiency_sa>
-0.816761

> <r_i_glide_lipo>
-2.73589

> <r_i_glide_metal>
0

> <r_i_glide_rewards>
-0.72646

> <s_i_glide_gridfile>
wee1_glide-grid

> <s_m_Source_File>
wee1_decoys_glide_SP.sdf

> <s_m_Source_Path>
/Users/zhangxujun/Desktop

> <s_m_entry_id>
3957

> <s_m_entry_name>
wee1_decoys_glide_SP.3682

> <s_m_subgroup_title>
wee1_decoys_glide_SP

> <s_m_subgroupid>
wee1_decoys_glide_SP


$$$$
