ZINC17099298_3924
                    3D
 Schrodinger Suite 2024-2.
 54 57  0  0  1  0            999 V2000
    6.5318   53.5612   28.3576 C   0  0  0  0  0  0
    5.5473   53.7287   27.2293 C   0  0  0  0  0  0
    6.0332   54.0970   25.9888 C   0  0  0  0  0  0
    5.1761   54.2745   24.9092 C   0  0  0  0  0  0
    3.7757   54.1250   25.0908 C   0  0  0  0  0  0
    3.2671   53.7086   26.3564 C   0  0  0  0  0  0
    4.1831   53.5144   27.4051 C   0  0  0  0  0  0
    1.7520   53.4902   26.6420 C   0  0  2  0  0  0
    1.2773   54.3038   26.1194 H   0  0  0  0  0  0
    1.3186   53.6121   28.1194 C   0  0  0  0  0  0
    1.4286   54.5863   29.1391 C   0  0  0  0  0  0
    0.9017   54.1731   30.2828 N   0  0  0  0  0  0
    0.4531   52.9372   30.0501 N   0  0  0  0  0  0
   -0.0299   52.3801   30.7422 H   0  0  0  0  0  0
    0.6916   52.5653   28.7627 C   0  0  0  0  0  0
    0.3069   51.3582   28.2444 O   0  0  0  0  0  0
    0.4914   51.2671   26.8960 C   0  0  0  0  0  0
    1.1043   52.1835   26.0953 C   0  0  0  0  0  0
    1.0869   51.9528   24.6873 C   0  0  0  0  0  0
    1.0204   51.7060   23.5589 N   0  0  0  0  0  0
   -0.0950   50.0973   26.4839 N   0  0  0  0  0  0
    2.0381   55.9668   29.0672 C   0  0  0  0  0  0
    2.8458   54.4637   23.9223 C   0  0  0  0  0  0
    5.8596   54.6122   23.5803 C   0  0  0  0  0  0
    5.2159   53.9592   22.4903 O   0  0  0  0  0  0
    5.5044   54.3298   21.1913 C   0  0  0  0  0  0
    6.4405   55.3218   20.8487 C   0  0  0  0  0  0
    6.6825   55.6386   19.5141 C   0  0  0  0  0  0
    6.0065   54.9610   18.5019 C   0  0  0  0  0  0
    5.0837   53.9699   18.8274 C   0  0  0  0  0  0
    4.8247   53.6540   20.1634 C   0  0  0  0  0  0
    3.8278   52.5505   20.4853 C   0  0  0  0  0  0
    6.3104   55.3461   16.8488 Cl  0  0  0  0  0  0
    7.0813   54.4901   28.4934 H   0  0  0  0  0  0
    6.0260   53.2970   29.2816 H   0  0  0  0  0  0
    7.2551   52.7872   28.1053 H   0  0  0  0  0  0
    7.1001   54.2272   25.8596 H   0  0  0  0  0  0
    3.8377   53.1943   28.3772 H   0  0  0  0  0  0
   -0.0292   49.7845   25.5275 H   0  0  0  0  0  0
   -0.5827   49.5000   27.1478 H   0  0  0  0  0  0
    1.9072   56.4047   28.0823 H   0  0  0  0  0  0
    3.1059   55.9533   29.2779 H   0  0  0  0  0  0
    1.5844   56.6666   29.7691 H   0  0  0  0  0  0
    3.2466   55.2954   23.3453 H   0  0  0  0  0  0
    2.7630   53.6165   23.2389 H   0  0  0  0  0  0
    1.8492   54.7958   24.2056 H   0  0  0  0  0  0
    5.9047   55.6941   23.4915 H   0  0  0  0  0  0
    6.8976   54.2709   23.5849 H   0  0  0  0  0  0
    7.0025   55.8512   21.6030 H   0  0  0  0  0  0
    7.3990   56.4049   19.2586 H   0  0  0  0  0  0
    4.5750   53.4379   18.0389 H   0  0  0  0  0  0
    3.6323   51.9161   19.6203 H   0  0  0  0  0  0
    4.2261   51.9010   21.2668 H   0  0  0  0  0  0
    2.8903   52.9773   20.8452 H   0  0  0  0  0  0
  1  2  1  0  0  0
  1 34  1  0  0  0
  1 35  1  0  0  0
  1 36  1  0  0  0
  2  7  2  0  0  0
  2  3  1  0  0  0
  3  4  2  0  0  0
  3 37  1  0  0  0
  4  5  1  0  0  0
  4 24  1  0  0  0
  5  6  2  0  0  0
  5 23  1  0  0  0
  6  7  1  0  0  0
  6  8  1  0  0  0
  7 38  1  0  0  0
  8  9  1  0  0  0
  8 18  1  0  0  0
  8 10  1  0  0  0
 10 15  2  0  0  0
 10 11  1  0  0  0
 11 12  2  0  0  0
 11 22  1  0  0  0
 12 13  1  0  0  0
 13 14  1  0  0  0
 13 15  1  0  0  0
 15 16  1  0  0  0
 16 17  1  0  0  0
 17 18  2  0  0  0
 17 21  1  0  0  0
 18 19  1  0  0  0
 19 20  3  0  0  0
 21 39  1  0  0  0
 21 40  1  0  0  0
 22 41  1  0  0  0
 22 42  1  0  0  0
 22 43  1  0  0  0
 23 44  1  0  0  0
 23 45  1  0  0  0
 23 46  1  0  0  0
 24 25  1  0  0  0
 24 47  1  0  0  0
 24 48  1  0  0  0
 25 26  1  0  0  0
 26 31  2  0  0  0
 26 27  1  0  0  0
 27 28  2  0  0  0
 27 49  1  0  0  0
 28 29  1  0  0  0
 28 50  1  0  0  0
 29 30  2  0  0  0
 29 33  1  0  0  0
 30 31  1  0  0  0
 30 51  1  0  0  0
 31 32  1  0  0  0
 32 52  1  0  0  0
 32 53  1  0  0  0
 32 54  1  0  0  0
M  END
> <i_i_glide_confnum>
11

> <i_i_glide_lignum>
3925

> <i_i_glide_posenum>
305

> <i_i_glide_rotatable_bonds>
5

> <i_m_Source_File_Index>
1049

> <b_m_subgroup_collapsed>
0

> <r_i_docking_score>
-6.79982

> <r_i_glide_ecoul>
-2.69615

> <r_i_glide_eff_state_penalty>
0

> <r_i_glide_einternal>
6.57568

> <r_i_glide_emodel>
-61.1125

> <r_i_glide_energy>
-46.1175

> <r_i_glide_erotb>
0.421242

> <r_i_glide_esite>
-0.0851906

> <r_i_glide_evdw>
-43.4213

> <r_i_glide_gscore>
-6.79982

> <r_i_glide_hbond>
-0.16

> <r_i_glide_ligand_efficiency>
-0.219349

> <r_i_glide_ligand_efficiency_ln>
-1.53357

> <r_i_glide_ligand_efficiency_sa>
-0.689059

> <r_i_glide_lipo>
-3.773

> <r_i_glide_metal>
0

> <r_i_glide_rewards>
-0.627383

> <s_i_glide_gridfile>
wee1_glide-grid

> <s_m_Source_File>
wee1_decoys_glide_SP.sdf

> <s_m_Source_Path>
/Users/zhangxujun/Desktop

> <s_m_entry_id>
1324

> <s_m_entry_name>
wee1_decoys_glide_SP.1049

> <s_m_subgroup_title>
wee1_decoys_glide_SP

> <s_m_subgroupid>
wee1_decoys_glide_SP


$$$$
