ZINC30986470_1458
                    3D
 Schrodinger Suite 2024-2.
 45 48  0  0  1  0            999 V2000
    2.0177   48.1642   18.5043 C   0  0  0  0  0  0
    1.8049   48.6841   19.8082 O   0  0  0  0  0  0
    0.5596   48.7461   20.3474 C   0  0  0  0  0  0
   -0.4731   48.3606   19.7969 O   0  0  0  0  0  0
    0.5752   49.2963   21.7049 C   0  0  0  0  0  0
   -0.4121   49.4306   22.6777 C   0  0  0  0  0  0
    0.1685   49.9862   23.8351 C   0  0  0  0  0  0
    1.5035   50.2081   23.5106 C   0  0  0  0  0  0
    1.7451   49.7740   22.2371 N   0  0  0  0  0  0
    2.6330   49.8000   21.7543 H   0  0  0  0  0  0
   -0.4781   50.3060   25.1071 C   0  0  0  0  0  0
   -1.8409   50.5703   25.2597 C   0  0  0  0  0  0
   -2.1684   51.1014   26.8822 S   0  0  0  0  0  0
   -0.4830   50.8985   27.2219 C   0  0  0  0  0  0
    0.2330   50.4355   26.2196 N   0  0  0  0  0  0
   -0.0118   51.2983   28.4684 N   0  0  0  0  0  0
    1.0534   52.0874   28.7655 C   0  0  0  0  0  0
    1.3642   52.2566   29.9439 O   0  0  0  0  0  0
    1.8932   52.7409   27.6837 C   0  0  0  0  0  0
    3.2622   52.9649   27.8773 C   0  0  0  0  0  0
    4.0541   53.4490   26.8326 C   0  0  0  0  0  0
    3.5059   53.6988   25.5696 C   0  0  0  0  0  0
    2.1103   53.5588   25.3992 C   0  0  0  0  0  0
    1.3369   53.1402   26.4684 C   0  0  0  0  0  0
    1.4243   53.8454   24.2380 O   0  0  0  0  0  0
    1.9287   54.8947   23.4361 C   0  0  0  0  0  0
    3.0478   54.4385   22.5041 C   0  0  0  0  0  0
    4.0053   53.5019   23.2243 C   0  0  0  0  0  0
    4.3692   53.9768   24.5248 O   0  0  0  0  0  0
    3.0887   48.0788   18.3193 H   0  0  0  0  0  0
    1.5910   48.8220   17.7464 H   0  0  0  0  0  0
    1.5784   47.1720   18.3943 H   0  0  0  0  0  0
   -1.4458   49.1373   22.5690 H   0  0  0  0  0  0
    2.3043   50.6414   24.0817 H   0  0  0  0  0  0
   -2.6243   50.5318   24.5189 H   0  0  0  0  0  0
   -0.5749   51.0033   29.2535 H   0  0  0  0  0  0
    3.7343   52.7101   28.8158 H   0  0  0  0  0  0
    5.1193   53.5522   26.9773 H   0  0  0  0  0  0
    0.2750   53.0756   26.2983 H   0  0  0  0  0  0
    2.2712   55.6967   24.0823 H   0  0  0  0  0  0
    1.1043   55.2961   22.8561 H   0  0  0  0  0  0
    3.5808   55.2967   22.1001 H   0  0  0  0  0  0
    2.6236   53.9128   21.6496 H   0  0  0  0  0  0
    4.9105   53.3538   22.6347 H   0  0  0  0  0  0
    3.5111   52.5276   23.2760 H   0  0  0  0  0  0
  1  2  1  0  0  0
  1 30  1  0  0  0
  1 31  1  0  0  0
  1 32  1  0  0  0
  2  3  1  0  0  0
  3  4  2  0  0  0
  3  5  1  0  0  0
  5  9  1  0  0  0
  5  6  2  0  0  0
  6  7  1  0  0  0
  6 33  1  0  0  0
  7  8  2  0  0  0
  7 11  1  0  0  0
  8  9  1  0  0  0
  8 34  1  0  0  0
  9 10  1  0  0  0
 11 15  1  0  0  0
 11 12  2  0  0  0
 12 13  1  0  0  0
 12 35  1  0  0  0
 13 14  1  0  0  0
 14 15  2  0  0  0
 14 16  1  0  0  0
 16 17  1  0  0  0
 16 36  1  0  0  0
 17 18  2  0  0  0
 17 19  1  0  0  0
 19 24  2  0  0  0
 19 20  1  0  0  0
 20 21  2  0  0  0
 20 37  1  0  0  0
 21 22  1  0  0  0
 21 38  1  0  0  0
 22 29  1  0  0  0
 22 23  2  0  0  0
 23 24  1  0  0  0
 23 25  1  0  0  0
 24 39  1  0  0  0
 25 26  1  0  0  0
 26 27  1  0  0  0
 26 40  1  0  0  0
 26 41  1  0  0  0
 27 28  1  0  0  0
 27 42  1  0  0  0
 27 43  1  0  0  0
 28 29  1  0  0  0
 28 44  1  0  0  0
 28 45  1  0  0  0
M  END
> <i_i_glide_confnum>
58

> <i_i_glide_lignum>
1459

> <i_i_glide_posenum>
154

> <i_i_glide_rotatable_bonds>
6

> <i_m_Source_File_Index>
5820

> <b_m_subgroup_collapsed>
0

> <r_i_docking_score>
-1.76959

> <r_i_glide_ecoul>
-1.03649

> <r_i_glide_eff_state_penalty>
0

> <r_i_glide_einternal>
12.6524

> <r_i_glide_emodel>
-22.7589

> <r_i_glide_energy>
-29.7784

> <r_i_glide_erotb>
0.614098

> <r_i_glide_esite>
-0.0470652

> <r_i_glide_evdw>
-28.7419

> <r_i_glide_gscore>
-1.76959

> <r_i_glide_hbond>
0

> <r_i_glide_ligand_efficiency>
-0.0631995

> <r_i_glide_ligand_efficiency_ln>
-0.408472

> <r_i_glide_ligand_efficiency_sa>
-0.191911

> <r_i_glide_lipo>
-1.2566

> <r_i_glide_metal>
0

> <r_i_glide_rewards>
0.512551

> <s_i_glide_gridfile>
wee1_glide-grid

> <s_m_Source_File>
wee1_decoys_glide_SP.sdf

> <s_m_Source_Path>
/Users/zhangxujun/Desktop

> <s_m_entry_id>
6095

> <s_m_entry_name>
wee1_decoys_glide_SP.5820

> <s_m_subgroup_title>
wee1_decoys_glide_SP

> <s_m_subgroupid>
wee1_decoys_glide_SP


$$$$
