ZINC05130866_4676
                    3D
 Schrodinger Suite 2024-2.
 37 39  0  0  1  0            999 V2000
    2.5697   51.7876   21.8473 C   0  0  0  0  0  0
    1.5711   50.6228   21.9373 C   0  0  0  0  0  0
    0.2519   50.9631   22.6618 C   0  0  0  0  0  0
    0.4244   51.2034   24.1479 C   0  0  0  0  0  0
    0.3053   50.3088   25.2017 C   0  0  0  0  0  0
    0.5762   50.8613   26.4537 C   0  0  0  0  0  0
    0.8960   52.2160   26.4394 C   0  0  0  0  0  0
    0.8474   52.7661   24.7837 S   0  0  0  0  0  0
    1.2348   53.1669   27.5852 C   0  0  1  0  0  0
    0.7045   54.0949   27.3928 H   0  0  0  0  0  0
    0.8065   52.7197   28.9875 C   0  0  0  0  0  0
   -0.3203   52.0976   29.5258 C   0  0  0  0  0  0
   -0.0956   52.0968   30.8814 N   0  0  0  0  0  0
   -0.7557   51.7461   31.5792 H   0  0  0  0  0  0
    1.1037   52.5658   31.2401 N   0  0  0  0  0  0
    1.6424   52.9141   30.0998 C   0  0  0  0  0  0
    2.9211   53.4171   30.0641 O   0  0  0  0  0  0
    3.4032   53.6765   28.8163 C   0  0  0  0  0  0
    2.7161   53.5980   27.6492 C   0  0  0  0  0  0
    3.3636   54.0238   26.4471 C   0  0  0  0  0  0
    3.9092   54.4143   25.5040 N   0  0  0  0  0  0
    4.6927   54.1143   28.9606 N   0  0  0  0  0  0
   -1.5685   51.4915   28.9185 C   0  0  0  0  0  0
    3.4530   51.4977   21.2768 H   0  0  0  0  0  0
    2.1273   52.6526   21.3521 H   0  0  0  0  0  0
    2.9085   52.1060   22.8320 H   0  0  0  0  0  0
    2.0482   49.7684   22.4203 H   0  0  0  0  0  0
    1.3380   50.2954   20.9234 H   0  0  0  0  0  0
   -0.4467   50.1395   22.5086 H   0  0  0  0  0  0
   -0.2161   51.8260   22.1860 H   0  0  0  0  0  0
    0.0502   49.2676   25.0667 H   0  0  0  0  0  0
    0.5462   50.2707   27.3551 H   0  0  0  0  0  0
    5.2751   54.2681   28.1502 H   0  0  0  0  0  0
    5.0175   54.4838   29.8405 H   0  0  0  0  0  0
   -1.9833   52.0965   28.1158 H   0  0  0  0  0  0
   -2.3550   51.2962   29.6476 H   0  0  0  0  0  0
   -1.3597   50.5224   28.4718 H   0  0  0  0  0  0
  1  2  1  0  0  0
  1 24  1  0  0  0
  1 25  1  0  0  0
  1 26  1  0  0  0
  2  3  1  0  0  0
  2 27  1  0  0  0
  2 28  1  0  0  0
  3  4  1  0  0  0
  3 29  1  0  0  0
  3 30  1  0  0  0
  4  8  1  0  0  0
  4  5  2  0  0  0
  5  6  1  0  0  0
  5 31  1  0  0  0
  6  7  2  0  0  0
  6 32  1  0  0  0
  7  8  1  0  0  0
  7  9  1  0  0  0
  9 10  1  0  0  0
  9 19  1  0  0  0
  9 11  1  0  0  0
 11 16  1  0  0  0
 11 12  2  0  0  0
 12 13  1  0  0  0
 12 23  1  0  0  0
 13 14  1  0  0  0
 13 15  1  0  0  0
 15 16  2  0  0  0
 16 17  1  0  0  0
 17 18  1  0  0  0
 18 19  2  0  0  0
 18 22  1  0  0  0
 19 20  1  0  0  0
 20 21  3  0  0  0
 22 33  1  0  0  0
 22 34  1  0  0  0
 23 35  1  0  0  0
 23 36  1  0  0  0
 23 37  1  0  0  0
M  END
> <i_i_glide_confnum>
8

> <i_i_glide_lignum>
4677

> <i_i_glide_posenum>
397

> <i_i_glide_rotatable_bonds>
4

> <i_m_Source_File_Index>
1653

> <b_m_subgroup_collapsed>
0

> <r_i_docking_score>
-5.42639

> <r_i_glide_ecoul>
-6.15264

> <r_i_glide_eff_state_penalty>
0

> <r_i_glide_einternal>
4.0734

> <r_i_glide_emodel>
-44.3567

> <r_i_glide_energy>
-34.3058

> <r_i_glide_erotb>
0.40743

> <r_i_glide_esite>
-0.1

> <r_i_glide_evdw>
-28.1531

> <r_i_glide_gscore>
-5.42639

> <r_i_glide_hbond>
-0.45138

> <r_i_glide_ligand_efficiency>
-0.258399

> <r_i_glide_ligand_efficiency_ln>
-1.34166

> <r_i_glide_ligand_efficiency_sa>
-0.712904

> <r_i_glide_lipo>
-1.30105

> <r_i_glide_metal>
0

> <r_i_glide_rewards>
-1.65083

> <s_i_glide_gridfile>
wee1_glide-grid

> <s_m_Source_File>
wee1_decoys_glide_SP.sdf

> <s_m_Source_Path>
/Users/zhangxujun/Desktop

> <s_m_entry_id>
1928

> <s_m_entry_name>
wee1_decoys_glide_SP.1653

> <s_m_subgroup_title>
wee1_decoys_glide_SP

> <s_m_subgroupid>
wee1_decoys_glide_SP


$$$$
