@<TRIPOS>MOLECULE
ZINC36963124_6146
35   35    1
SMALL
USER_CHARGES


@<TRIPOS>ATOM
      1 C1          5.8556   54.3674   19.8319 C.3       1 UNK         0.0000 
      2 C2          6.5194   55.0510   21.0480 C.3       1 UNK         0.0000 
      3 H3          7.5987   54.8965   21.0117 H         1 UNK         0.0000 
      4 C4          5.9955   54.5596   22.4153 C.2       1 UNK         0.0000 
      5 O5          4.9828   53.8561   22.4770 O.2       1 UNK         0.0000 
      6 N6          6.7042   54.9815   23.4924 N.am      1 UNK         0.0000 
      7 C7          6.3506   55.0167   24.8001 C.2       1 UNK         0.0000 
      8 O8          7.1043   55.5445   25.6113 O.2       1 UNK         0.0000 
      9 N9          5.1607   54.5059   25.1797 N.am      1 UNK         0.0000 
     10 C10         4.6225   54.5215   26.5448 C.3       1 UNK         0.0000 
     11 C11         3.0917   54.3319   26.4946 C.3       1 UNK         0.0000 
     12 C12         2.2789   54.8830   27.6928 C.3       1 UNK         0.0000 
     13 C13         2.6667   54.4474   29.1183 C.3       1 UNK         0.0000 
     14 C14         3.4898   53.1596   29.2407 C.3       1 UNK         0.0000 
     15 C15         4.9702   53.3535   28.8816 C.3       1 UNK         0.0000 
     16 C16         5.3336   53.4513   27.3944 C.3       1 UNK         0.0000 
     17 Cl17        6.3044   56.8162   20.8819 Cl        1 UNK         0.0000 
     18 H18         5.9044   53.2789   19.8877 H         1 UNK         0.0000 
     19 H19         6.3355   54.6679   18.8996 H         1 UNK         0.0000 
     20 H20         4.7994   54.6328   19.7558 H         1 UNK         0.0000 
     21 H21         7.5921   55.4242   23.2992 H         1 UNK         0.0000 
     22 H22         4.5643   54.1261   24.4559 H         1 UNK         0.0000 
     23 H23         4.8398   55.5021   26.9657 H         1 UNK         0.0000 
     24 H24         2.7043   54.7674   25.5732 H         1 UNK         0.0000 
     25 H25         2.8732   53.2674   26.3927 H         1 UNK         0.0000 
     26 H26         2.3041   55.9726   27.6818 H         1 UNK         0.0000 
     27 H27         1.2329   54.6185   27.5295 H         1 UNK         0.0000 
     28 H28         3.2071   55.2604   29.6071 H         1 UNK         0.0000 
     29 H29         1.7512   54.3343   29.7018 H         1 UNK         0.0000 
     30 H30         3.4364   52.8232   30.2772 H         1 UNK         0.0000 
     31 H31         3.0482   52.3554   28.6494 H         1 UNK         0.0000 
     32 H32         5.3613   54.2340   29.3930 H         1 UNK         0.0000 
     33 H33         5.5044   52.4972   29.2817 H         1 UNK         0.0000 
     34 H34         5.1583   52.4966   26.9181 H         1 UNK         0.0000 
     35 H35         6.4134   53.6049   27.3449 H         1 UNK         0.0000 
@<TRIPOS>BOND
     1    1    2 1    
     2    1   18 1    
     3    1   19 1    
     4    1   20 1    
     5    2    3 1    
     6    2    4 1    
     7    2   17 1    
     8    4    5 2    
     9    4    6 am   BACKBONE|DICT|INTERRES
    10    6    7 am   BACKBONE|DICT|INTERRES
    11    6   21 1    
    12    7    8 2    
    13    7    9 am   BACKBONE|DICT|INTERRES
    14    9   10 1    
    15    9   22 1    
    16   10   16 1    
    17   10   11 1    
    18   10   23 1    
    19   11   12 1    
    20   11   24 1    
    21   11   25 1    
    22   12   13 1    
    23   12   26 1    
    24   12   27 1    
    25   13   14 1    
    26   13   28 1    
    27   13   29 1    
    28   14   15 1    
    29   14   30 1    
    30   14   31 1    
    31   15   16 1    
    32   15   32 1    
    33   15   33 1    
    34   16   34 1    
    35   16   35 1    
@<TRIPOS>SUBSTRUCTURE
     1 UNK         1 GROUP             0       ****    0 ROOT    
