@<TRIPOS>MOLECULE
ZINC13598436_2011
45   48    1
SMALL
USER_CHARGES


@<TRIPOS>ATOM
      1 C1          2.7460   52.4912   19.2299 C.3       1 UNK         0.0000 
      2 C2          3.9946   53.2967   18.9243 C.ar      1 UNK         0.0000 
      3 C3          4.4112   53.4351   17.6029 C.ar      1 UNK         0.0000 
      4 C4          5.5675   54.1332   17.2634 C.ar      1 UNK         0.0000 
      5 C5          6.2990   54.6955   18.3127 C.ar      1 UNK         0.0000 
      6 C6          5.9053   54.5863   19.6851 C.ar      1 UNK         0.0000 
      7 C7          4.7299   53.8652   19.9647 C.ar      1 UNK         0.0000 
      8 C8          6.8950   55.2967   20.4915 C.ar      1 UNK         0.0000 
      9 C9          7.8114   55.7694   19.5627 C.ar      1 UNK         0.0000 
     10 N10         7.4644   55.4180   18.2925 N.pl3     1 UNK         0.0000 
     11 H11         8.0161   55.6874   17.4914 H         1 UNK         0.0000 
     12 O12         8.9635   56.4945   19.6817 O.3       1 UNK         0.0000 
     13 N13         6.9637   55.4923   21.8443 N.2       1 UNK         0.0000 
     14 N14         6.2184   54.7123   22.5218 N.am      1 UNK         0.0000 
     15 C15         6.2038   54.8966   23.9006 C.2       1 UNK         0.0000 
     16 O16         7.1044   55.4335   24.5503 O.2       1 UNK         0.0000 
     17 C17         4.9676   54.3880   24.6101 C.ar      1 UNK         0.0000 
     18 C18         3.7680   54.1519   23.9272 C.ar      1 UNK         0.0000 
     19 C19         2.6459   53.6958   24.6087 C.ar      1 UNK         0.0000 
     20 C20         2.6762   53.4469   25.9816 C.ar      1 UNK         0.0000 
     21 C21         3.8775   53.6966   26.6624 C.ar      1 UNK         0.0000 
     22 C22         5.0038   54.1650   25.9920 C.ar      1 UNK         0.0000 
     23 N23         1.5039   53.0152   26.5491 N.2       1 UNK         0.0000 
     24 S24         1.3058   52.5801   28.0449 S.o2      1 UNK         0.0000 
     25 O25        -0.0321   52.0356   28.2905 O.2       1 UNK         0.0000 
     26 O26         2.4333   51.8476   28.6331 O.2       1 UNK         0.0000 
     27 C27         1.2831   54.1167   28.9986 C.2       1 UNK         0.0000 
     28 C28         1.8295   55.3404   28.6269 C.2       1 UNK         0.0000 
     29 C29         1.7364   56.3023   29.6257 C.2       1 UNK         0.0000 
     30 C30         1.1044   55.8265   30.7549 C.2       1 UNK         0.0000 
     31 S31         0.6125   54.1706   30.5937 S.3       1 UNK         0.0000 
     32 H32         2.7895   51.5320   18.7102 H         1 UNK         0.0000 
     33 H33         1.8575   53.0193   18.8814 H         1 UNK         0.0000 
     34 H34         2.6423   52.2805   20.2959 H         1 UNK         0.0000 
     35 H35         3.8321   52.9707   16.8172 H         1 UNK         0.0000 
     36 H36         5.8793   54.2219   16.2335 H         1 UNK         0.0000 
     37 H37         4.3984   53.7333   20.9792 H         1 UNK         0.0000 
     38 H38         9.7285   55.9384   19.8673 H         1 UNK         0.0000 
     39 H39         3.6754   54.3487   22.8715 H         1 UNK         0.0000 
     40 H40         1.7327   53.5333   24.0538 H         1 UNK         0.0000 
     41 H41         3.9571   53.5317   27.7251 H         1 UNK         0.0000 
     42 H42         5.9068   54.3403   26.5607 H         1 UNK         0.0000 
     43 H43         2.3046   55.5356   27.6817 H         1 UNK         0.0000 
     44 H44         2.1371   57.2967   29.5337 H         1 UNK         0.0000 
     45 H45         0.9728   56.3577   31.6817 H         1 UNK         0.0000 
@<TRIPOS>BOND
     1    1    2 1    
     2    1   32 1    
     3    1   33 1    
     4    1   34 1    
     5    2    7 ar   
     6    2    3 ar   
     7    3    4 ar   
     8    3   35 1    
     9    4    5 ar   
    10    4   36 1    
    11    5   10 ar   
    12    5    6 ar   
    13    6    7 ar   
    14    6    8 ar   
    15    7   37 1    
    16    8    9 ar   
    17    8   13 1    
    18    9   10 ar   
    19    9   12 1    
    20   10   11 1    
    21   12   38 1    
    22   13   14 2    
    23   14   15 am   BACKBONE|DICT|INTERRES
    24   15   16 2    
    25   15   17 1    
    26   17   22 ar   
    27   17   18 ar   
    28   18   19 ar   
    29   18   39 1    
    30   19   20 ar   
    31   19   40 1    
    32   20   21 ar   
    33   20   23 1    
    34   21   22 ar   
    35   21   41 1    
    36   22   42 1    
    37   23   24 1    
    38   24   25 2    
    39   24   26 2    
    40   24   27 1    
    41   27   31 1    
    42   27   28 2    
    43   28   29 1    
    44   28   43 1    
    45   29   30 2    
    46   29   44 1    
    47   30   31 1    
    48   30   45 1    
@<TRIPOS>SUBSTRUCTURE
     1 UNK         1 GROUP             0       ****    0 ROOT    
