@<TRIPOS>MOLECULE
ZINC03664910_4121
67   71    1
SMALL
USER_CHARGES


@<TRIPOS>ATOM
      1 C1          1.7225   50.7474   22.3435 C.3       1 UNK         0.0000 
      2 C2          0.3763   51.4687   22.5078 C.3       1 UNK         0.0000 
      3 O3         -0.0462   51.4675   23.8676 O.3       1 UNK         0.0000 
      4 C4          0.4289   52.3607   24.7669 C.2       1 UNK         0.0000 
      5 O5          1.1840   53.2942   24.4812 O.2       1 UNK         0.0000 
      6 C6         -0.0616   52.0965   26.1353 C.2       1 UNK         0.0000 
      7 C7          0.5603   52.6050   27.3161 C.2       1 UNK         0.0000 
      8 C8         -0.1091   52.2501   28.4966 C.2       1 UNK         0.0000 
      9 S9         -1.5055   51.2970   28.1933 S.3       1 UNK         0.0000 
     10 C10        -1.1945   51.3267   26.4939 C.2       1 UNK         0.0000 
     11 N11        -2.0683   50.5929   25.6950 N.pl3     1 UNK         0.0000 
     12 C12        -3.2675   51.1862   25.2545 C.2       1 UNK         0.0000 
     13 C13        -4.2063   50.4420   24.5913 C.2       1 UNK         0.0000 
     14 C14        -4.0331   48.9272   24.3532 C.3       1 UNK         0.0000 
     15 H15        -4.2543   48.7031   23.3067 H         1 UNK         0.0000 
     16 C16        -2.5952   48.5035   24.6374 C.2       1 UNK         0.0000 
     17 C17        -1.7252   49.2826   25.3154 C.2       1 UNK         0.0000 
     18 N18        -0.4682   48.8347   25.6763 N.pl3     1 UNK         0.0000 
     19 C19        -2.2646   47.1796   24.2334 C.1       1 UNK         0.0000 
     20 N20        -2.0956   46.0968   23.8676 N.1       1 UNK         0.0000 
     21 C21        -5.0381   48.0949   25.1668 C.ar      1 UNK         0.0000 
     22 C22        -4.8750   47.9572   26.5532 C.ar      1 UNK         0.0000 
     23 C23        -5.7840   47.2078   27.2936 C.ar      1 UNK         0.0000 
     24 C24        -6.8568   46.5922   26.6510 C.ar      1 UNK         0.0000 
     25 C25        -7.0298   46.7228   25.2751 C.ar      1 UNK         0.0000 
     26 C26        -6.1207   47.4750   24.5327 C.ar      1 UNK         0.0000 
     27 C27        -5.4667   51.0347   24.0826 C.2       1 UNK         0.0000 
     28 O28        -6.1540   50.4831   23.2239 O.2       1 UNK         0.0000 
     29 C29        -5.7688   52.4797   24.4934 C.3       1 UNK         0.0000 
     30 C30        -5.0900   52.9038   25.8151 C.3       1 UNK         0.0000 
     31 C31        -3.5634   52.6562   25.6357 C.3       1 UNK         0.0000 
     32 C32        -5.6812   52.0918   27.0026 C.3       1 UNK         0.0000 
     33 C33        -5.3093   54.4154   25.9763 C.3       1 UNK         0.0000 
     34 C34         0.3451   52.5767   29.9098 C.3       1 UNK         0.0000 
     35 C35         1.3688   53.7229   29.8604 C.3       1 UNK         0.0000 
     36 C36         2.4479   53.4663   28.7965 C.3       1 UNK         0.0000 
     37 C37         1.8569   53.4285   27.3683 C.3       1 UNK         0.0000 
     38 H38         2.0156   50.6989   21.2942 H         1 UNK         0.0000 
     39 H39         2.5159   51.2634   22.8818 H         1 UNK         0.0000 
     40 H40         1.6696   49.7279   22.7248 H         1 UNK         0.0000 
     41 H41        -0.3825   50.9466   21.9265 H         1 UNK         0.0000 
     42 H42         0.4305   52.4848   22.1119 H         1 UNK         0.0000 
     43 H43        -0.2518   47.8476   25.6393 H         1 UNK         0.0000 
     44 H44         0.0855   49.3758   26.3232 H         1 UNK         0.0000 
     45 H45        -4.0426   48.4284   27.0588 H         1 UNK         0.0000 
     46 H46        -5.6537   47.1042   28.3615 H         1 UNK         0.0000 
     47 H47        -7.5618   46.0116   27.2284 H         1 UNK         0.0000 
     48 H48        -7.8681   46.2454   24.7876 H         1 UNK         0.0000 
     49 H49        -6.2644   47.5799   23.4671 H         1 UNK         0.0000 
     50 H50        -6.8485   52.6342   24.4963 H         1 UNK         0.0000 
     51 H51        -5.3640   53.0911   23.6894 H         1 UNK         0.0000 
     52 H52        -3.1508   52.9216   26.6068 H         1 UNK         0.0000 
     53 H53        -3.0970   53.2936   24.8831 H         1 UNK         0.0000 
     54 H54        -6.7668   52.1955   27.0457 H         1 UNK         0.0000 
     55 H55        -5.4666   51.0237   26.9513 H         1 UNK         0.0000 
     56 H56        -5.2932   52.4402   27.9578 H         1 UNK         0.0000 
     57 H57        -6.3717   54.6530   26.0412 H         1 UNK         0.0000 
     58 H58        -4.8390   54.7962   26.8817 H         1 UNK         0.0000 
     59 H59        -4.8937   54.9664   25.1305 H         1 UNK         0.0000 
     60 H60        -0.4931   52.8406   30.5553 H         1 UNK         0.0000 
     61 H61         0.8116   51.6971   30.3540 H         1 UNK         0.0000 
     62 H62         0.8628   54.6668   29.6498 H         1 UNK         0.0000 
     63 H63         1.8235   53.8353   30.8431 H         1 UNK         0.0000 
     64 H64         3.2201   54.2349   28.8512 H         1 UNK         0.0000 
     65 H65         2.9500   52.5209   29.0106 H         1 UNK         0.0000 
     66 H66         2.6093   53.0354   26.6831 H         1 UNK         0.0000 
     67 H67         1.6427   54.4455   27.0350 H         1 UNK         0.0000 
@<TRIPOS>BOND
     1    1    2 1    
     2    1   38 1    
     3    1   39 1    
     4    1   40 1    
     5    2    3 1    
     6    2   41 1    
     7    2   42 1    
     8    3    4 1    
     9    4    5 2    
    10    4    6 1    
    11    6   10 2    
    12    6    7 1    
    13    7   37 1    
    14    7    8 2    
    15    8    9 1    
    16    8   34 1    
    17    9   10 1    
    18   10   11 1    
    19   11   17 1    
    20   11   12 1    
    21   12   31 1    
    22   12   13 2    
    23   13   14 1    
    24   13   27 1    
    25   14   15 1    
    26   14   16 1    
    27   14   21 1    
    28   16   17 2    
    29   16   19 1    
    30   17   18 1    
    31   18   43 1    
    32   18   44 1    
    33   19   20 3    
    34   21   26 ar   
    35   21   22 ar   
    36   22   23 ar   
    37   22   45 1    
    38   23   24 ar   
    39   23   46 1    
    40   24   25 ar   
    41   24   47 1    
    42   25   26 ar   
    43   25   48 1    
    44   26   49 1    
    45   27   28 2    
    46   27   29 1    
    47   29   30 1    
    48   29   50 1    
    49   29   51 1    
    50   30   31 1    
    51   30   32 1    
    52   30   33 1    
    53   31   52 1    
    54   31   53 1    
    55   32   54 1    
    56   32   55 1    
    57   32   56 1    
    58   33   57 1    
    59   33   58 1    
    60   33   59 1    
    61   34   35 1    
    62   34   60 1    
    63   34   61 1    
    64   35   36 1    
    65   35   62 1    
    66   35   63 1    
    67   36   37 1    
    68   36   64 1    
    69   36   65 1    
    70   37   66 1    
    71   37   67 1    
@<TRIPOS>SUBSTRUCTURE
     1 UNK         1 GROUP             0       ****    0 ROOT    
