ZINC35987364_4038
                    3D
 Schrodinger Suite 2024-2.
 68 72  0  0  1  0            999 V2000
   -2.6491   49.2188   23.2035 C   0  0  0  0  0  0
   -3.1834   50.4006   24.0078 C   0  0  0  0  0  0
   -4.2849   50.1917   24.8454 C   0  0  0  0  0  0
   -4.8084   51.2352   25.6070 C   0  0  0  0  0  0
   -4.2358   52.5017   25.5359 C   0  0  0  0  0  0
   -3.1378   52.7192   24.7072 C   0  0  0  0  0  0
   -2.5937   51.6820   23.9444 C   0  0  0  0  0  0
   -1.3832   51.9519   23.0840 C   0  0  0  0  0  0
   -1.5426   52.0270   21.8640 O   0  0  0  0  0  0
   -0.1594   52.0191   23.6888 N   0  0  0  0  0  0
    0.0623   52.1579   25.1412 C   0  0  2  0  0  0
   -0.5948   52.9105   25.5652 H   0  0  0  0  0  0
    1.5077   52.6496   25.1996 C   0  0  0  0  0  0
    2.0611   52.0457   24.0582 O   0  0  0  0  0  0
    1.1324   51.9743   23.0234 C   0  0  0  0  0  0
    1.3999   53.1671   22.0808 C   0  0  0  0  0  0
    2.8324   53.0566   21.4870 C   0  0  0  0  0  0
    2.9138   51.7770   20.7420 N   0  0  0  0  0  0
    2.7547   50.6075   21.6337 C   0  0  0  0  0  0
    1.3379   50.6560   22.2495 C   0  0  0  0  0  0
    2.4633   51.6862   19.4545 C   0  0  0  0  0  0
    1.8187   50.7169   19.0434 O   0  0  0  0  0  0
    2.7816   52.7746   18.5494 C   0  0  0  0  0  0
    3.8842   53.6388   18.5643 C   0  0  0  0  0  0
    3.9035   54.5299   17.4875 C   0  0  0  0  0  0
    2.8607   54.3124   16.6006 C   0  0  0  0  0  0
    1.8565   52.9855   17.0864 S   0  0  0  0  0  0
   -0.0945   50.8401   25.9492 C   0  0  0  0  0  0
    0.0047   49.7498   25.3913 O   0  0  0  0  0  0
   -0.4231   50.8969   27.2513 N   0  0  0  0  0  0
   -0.4874   52.0594   28.1450 C   0  0  1  0  0  0
   -1.1100   52.8098   27.6552 H   0  0  0  0  0  0
   -1.2234   51.6759   29.4337 C   0  0  0  0  0  0
    0.8669   52.6946   28.4910 C   0  0  0  0  0  0
    1.0062   54.0873   28.4798 C   0  0  0  0  0  0
    2.2291   54.6766   28.7899 C   0  0  0  0  0  0
    3.3187   53.8721   29.1152 C   0  0  0  0  0  0
    3.1933   52.4849   29.1328 C   0  0  0  0  0  0
    1.9695   51.8967   28.8197 C   0  0  0  0  0  0
   -3.1064   48.2753   23.5022 H   0  0  0  0  0  0
   -2.8231   49.3747   22.1385 H   0  0  0  0  0  0
   -1.5740   49.1132   23.3459 H   0  0  0  0  0  0
   -4.7412   49.2148   24.9134 H   0  0  0  0  0  0
   -5.6576   51.0583   26.2505 H   0  0  0  0  0  0
   -4.6413   53.3120   26.1229 H   0  0  0  0  0  0
   -2.6990   53.6967   24.6587 H   0  0  0  0  0  0
    1.6242   53.7339   25.1791 H   0  0  0  0  0  0
    2.0548   52.2748   26.0637 H   0  0  0  0  0  0
    0.6647   53.2004   21.2781 H   0  0  0  0  0  0
    1.3179   54.0959   22.6450 H   0  0  0  0  0  0
    3.1072   53.9304   20.9004 H   0  0  0  0  0  0
    3.5782   53.0389   22.2837 H   0  0  0  0  0  0
    2.9802   49.6751   21.1111 H   0  0  0  0  0  0
    3.4985   50.6534   22.4291 H   0  0  0  0  0  0
    1.2117   49.8186   22.9383 H   0  0  0  0  0  0
    0.5814   50.5543   21.4698 H   0  0  0  0  0  0
    4.6473   53.6260   19.3279 H   0  0  0  0  0  0
    4.6630   55.2856   17.3496 H   0  0  0  0  0  0
    2.6539   54.8415   15.6822 H   0  0  0  0  0  0
   -0.6302   49.9968   27.6791 H   0  0  0  0  0  0
   -1.2946   52.5287   30.1051 H   0  0  0  0  0  0
   -2.2305   51.3075   29.2323 H   0  0  0  0  0  0
   -0.6955   50.8974   29.9800 H   0  0  0  0  0  0
    0.1712   54.7187   28.2214 H   0  0  0  0  0  0
    2.3326   55.7523   28.7744 H   0  0  0  0  0  0
    4.2717   54.3262   29.3459 H   0  0  0  0  0  0
    4.0468   51.8686   29.3756 H   0  0  0  0  0  0
    1.8782   50.8210   28.8268 H   0  0  0  0  0  0
  1  2  1  0  0  0
  1 40  1  0  0  0
  1 41  1  0  0  0
  1 42  1  0  0  0
  2  7  2  0  0  0
  2  3  1  0  0  0
  3  4  2  0  0  0
  3 43  1  0  0  0
  4  5  1  0  0  0
  4 44  1  0  0  0
  5  6  2  0  0  0
  5 45  1  0  0  0
  6  7  1  0  0  0
  6 46  1  0  0  0
  7  8  1  0  0  0
  8  9  2  0  0  0
  8 10  1  0  0  0
 10 15  1  0  0  0
 10 11  1  0  0  0
 11 12  1  0  0  0
 11 13  1  0  0  0
 11 28  1  0  0  0
 13 14  1  0  0  0
 13 47  1  0  0  0
 13 48  1  0  0  0
 14 15  1  0  0  0
 15 20  1  0  0  0
 15 16  1  0  0  0
 16 17  1  0  0  0
 16 49  1  0  0  0
 16 50  1  0  0  0
 17 18  1  0  0  0
 17 51  1  0  0  0
 17 52  1  0  0  0
 18 19  1  0  0  0
 18 21  1  0  0  0
 19 20  1  0  0  0
 19 53  1  0  0  0
 19 54  1  0  0  0
 20 55  1  0  0  0
 20 56  1  0  0  0
 21 22  2  0  0  0
 21 23  1  0  0  0
 23 27  1  0  0  0
 23 24  2  0  0  0
 24 25  1  0  0  0
 24 57  1  0  0  0
 25 26  2  0  0  0
 25 58  1  0  0  0
 26 27  1  0  0  0
 26 59  1  0  0  0
 28 29  2  0  0  0
 28 30  1  0  0  0
 30 31  1  0  0  0
 30 60  1  0  0  0
 31 32  1  0  0  0
 31 33  1  0  0  0
 31 34  1  0  0  0
 33 61  1  0  0  0
 33 62  1  0  0  0
 33 63  1  0  0  0
 34 39  2  0  0  0
 34 35  1  0  0  0
 35 36  2  0  0  0
 35 64  1  0  0  0
 36 37  1  0  0  0
 36 65  1  0  0  0
 37 38  2  0  0  0
 37 66  1  0  0  0
 38 39  1  0  0  0
 38 67  1  0  0  0
 39 68  1  0  0  0
M  END
> <i_i_glide_confnum>
196

> <i_i_glide_lignum>
4039

> <i_i_glide_posenum>
141

> <i_i_glide_rotatable_bonds>
8

> <i_m_Source_File_Index>
3759

> <b_m_subgroup_collapsed>
0

> <r_i_docking_score>
-1.74975

> <r_i_glide_ecoul>
0.348434

> <r_i_glide_eff_state_penalty>
0

> <r_i_glide_einternal>
7.8252

> <r_i_glide_emodel>
-34.135

> <r_i_glide_energy>
-40.7416

> <r_i_glide_erotb>
0.536415

> <r_i_glide_esite>
-0.16123

> <r_i_glide_evdw>
-41.09

> <r_i_glide_gscore>
-1.74975

> <r_i_glide_hbond>
-0.16

> <r_i_glide_ligand_efficiency>
-0.0472905

> <r_i_glide_ligand_efficiency_ln>
-0.37948

> <r_i_glide_ligand_efficiency_sa>
-0.157583

> <r_i_glide_lipo>
-1.786

> <r_i_glide_metal>
0

> <r_i_glide_rewards>
1.8233

> <s_i_glide_gridfile>
wee1_glide-grid

> <s_m_Source_File>
wee1_decoys_glide_SP.sdf

> <s_m_Source_Path>
/Users/zhangxujun/Desktop

> <s_m_entry_id>
4034

> <s_m_entry_name>
wee1_decoys_glide_SP.3759

> <s_m_subgroup_title>
wee1_decoys_glide_SP

> <s_m_subgroupid>
wee1_decoys_glide_SP


$$$$
