@<TRIPOS>MOLECULE
ZINC43666597_3890
39   40    1
SMALL
USER_CHARGES


@<TRIPOS>ATOM
      1 C1          5.5732   54.4220   28.4657 C.3       1 UNK         0.0000 
      2 C2          4.2862   53.6319   28.1841 C.3       1 UNK         0.0000 
      3 H3          4.3996   53.1289   27.2235 H         1 UNK         0.0000 
      4 C4          4.0514   52.4945   29.2063 C.3       1 UNK         0.0000 
      5 C5          2.7038   51.7843   28.9560 C.3       1 UNK         0.0000 
      6 C6          1.5105   52.7636   29.0294 C.3       1 UNK         0.0000 
      7 H7          0.6203   52.1653   28.8584 H         1 UNK         0.0000 
      8 C8          1.6861   53.7977   27.8649 C.3       1 UNK         0.0000 
      9 H9          0.8977   54.5458   27.9222 H         1 UNK         0.0000 
     10 C10         3.0433   54.5554   28.0494 C.3       1 UNK         0.0000 
     11 N11         1.5043   53.2283   26.4942 N.pl3     1 UNK         0.0000 
     12 C12         0.4408   52.4907   25.9913 C.ar      1 UNK         0.0000 
     13 C13         0.7143   52.3039   24.6479 C.ar      1 UNK         0.0000 
     14 C14         1.9226   52.9612   24.4332 C.ar      1 UNK         0.0000 
     15 N15         2.3913   53.5172   25.5208 N.2       1 UNK         0.0000 
     16 I16        -0.4672   51.2629   23.1985 I         1 UNK         0.0000 
     17 N17        -0.6456   52.0965   26.7203 N.pl3     1 UNK         0.0000 
     18 C18         1.2893   53.3961   30.4450 C.3       1 UNK         0.0000 
     19 C19         0.1217   54.3979   30.4847 C.3       1 UNK         0.0000 
     20 C20         1.0897   52.3446   31.5585 C.3       1 UNK         0.0000 
     21 H21         5.5137   54.9524   29.4178 H         1 UNK         0.0000 
     22 H22         6.4434   53.7653   28.5051 H         1 UNK         0.0000 
     23 H23         5.7640   55.1617   27.6882 H         1 UNK         0.0000 
     24 H24         4.8809   51.7872   29.1820 H         1 UNK         0.0000 
     25 H25         4.0684   52.9015   30.2166 H         1 UNK         0.0000 
     26 H26         2.5823   50.9884   29.6774 H         1 UNK         0.0000 
     27 H27         2.7048   51.2967   27.9843 H         1 UNK         0.0000 
     28 H28         3.1856   55.2968   27.2642 H         1 UNK         0.0000 
     29 H29         2.9518   55.2018   28.9228 H         1 UNK         0.0000 
     30 H30         2.4463   53.0329   23.4909 H         1 UNK         0.0000 
     31 H31        -1.2910   51.4142   26.3458 H         1 UNK         0.0000 
     32 H32        -0.7018   52.2480   27.7165 H         1 UNK         0.0000 
     33 H33         2.1772   53.9653   30.7027 H         1 UNK         0.0000 
     34 H34        -0.7883   53.9640   30.0729 H         1 UNK         0.0000 
     35 H35        -0.0952   54.7166   31.5049 H         1 UNK         0.0000 
     36 H36         0.3549   55.3028   29.9296 H         1 UNK         0.0000 
     37 H37         0.2334   51.7034   31.3491 H         1 UNK         0.0000 
     38 H38         1.9641   51.7104   31.6958 H         1 UNK         0.0000 
     39 H39         0.8987   52.8167   32.5232 H         1 UNK         0.0000 
@<TRIPOS>BOND
     1    1    2 1    
     2    1   21 1    
     3    1   22 1    
     4    1   23 1    
     5    2    3 1    
     6    2   10 1    
     7    2    4 1    
     8    4    5 1    
     9    4   24 1    
    10    4   25 1    
    11    5    6 1    
    12    5   26 1    
    13    5   27 1    
    14    6    7 1    
    15    6    8 1    
    16    6   18 1    
    17    8    9 1    
    18    8   10 1    
    19    8   11 1    
    20   10   28 1    
    21   10   29 1    
    22   11   15 ar   
    23   11   12 ar   
    24   12   13 ar   
    25   12   17 1    
    26   13   14 ar   
    27   13   16 1    
    28   14   15 ar   
    29   14   30 1    
    30   17   31 1    
    31   17   32 1    
    32   18   19 1    
    33   18   20 1    
    34   18   33 1    
    35   19   34 1    
    36   19   35 1    
    37   19   36 1    
    38   20   37 1    
    39   20   38 1    
    40   20   39 1    
@<TRIPOS>SUBSTRUCTURE
     1 UNK         1 GROUP             0       ****    0 ROOT    
