@<TRIPOS>MOLECULE
ZINC01148530_426
46   49    1
SMALL
USER_CHARGES


@<TRIPOS>ATOM
      1 C1         -0.1284   51.9187   29.2650 C.3       1 UNK         0.0000 
      2 C2          0.6642   52.3057   28.0383 C.ar      1 UNK         0.0000 
      3 C3          0.4768   51.8857   26.7128 C.ar      1 UNK         0.0000 
      4 C4          1.5044   52.4969   26.0283 C.ar      1 UNK         0.0000 
      5 N5          2.2710   53.1970   26.9298 N.pl3     1 UNK         0.0000 
      6 N6          1.7093   53.1058   28.1527 N.2       1 UNK         0.0000 
      7 C7          3.5303   53.8245   26.7425 C.ar      1 UNK         0.0000 
      8 C8          3.8718   54.3725   25.4980 C.ar      1 UNK         0.0000 
      9 C9          5.1463   54.8969   25.2916 C.ar      1 UNK         0.0000 
     10 C10         6.0739   54.8945   26.3302 C.ar      1 UNK         0.0000 
     11 C11         5.7414   54.3749   27.5775 C.ar      1 UNK         0.0000 
     12 C12         4.4727   53.8380   27.7851 C.ar      1 UNK         0.0000 
     13 O13         1.8248   52.3405   24.7001 O.3       1 UNK         0.0000 
     14 C14         1.1049   51.3650   24.0689 C.2       1 UNK         0.0000 
     15 C15         0.0509   50.6781   24.5848 C.2       1 UNK         0.0000 
     16 C16        -0.5052   50.9624   25.9950 C.3       1 UNK         0.0000 
     17 H17        -0.4958   49.9986   26.5130 H         1 UNK         0.0000 
     18 C18        -1.9568   51.4645   26.0902 C.ar      1 UNK         0.0000 
     19 C19        -2.7734   50.8907   27.0700 C.ar      1 UNK         0.0000 
     20 C20        -4.0889   51.3135   27.2886 C.ar      1 UNK         0.0000 
     21 C21        -4.6005   52.3365   26.4805 C.ar      1 UNK         0.0000 
     22 C22        -3.8018   52.9379   25.5014 C.ar      1 UNK         0.0000 
     23 C23        -2.4842   52.5018   25.2965 C.ar      1 UNK         0.0000 
     24 Cl24       -1.5318   53.2967   24.0817 Cl        1 UNK         0.0000 
     25 Br25       -4.5039   54.4010   24.4883 Br        1 UNK         0.0000 
     26 O26        -5.8877   52.7774   26.6676 O.3       1 UNK         0.0000 
     27 O27        -4.9031   50.7838   28.2782 O.3       1 UNK         0.0000 
     28 C28        -4.3799   49.7882   29.1598 C.3       1 UNK         0.0000 
     29 C29        -0.5769   49.6520   23.8172 C.1       1 UNK         0.0000 
     30 N30        -1.0719   48.8278   23.1726 N.1       1 UNK         0.0000 
     31 N31         1.6329   51.2150   22.8165 N.pl3     1 UNK         0.0000 
     32 H32        -0.5060   50.8968   29.1920 H         1 UNK         0.0000 
     33 H33         0.4598   51.9682   30.1838 H         1 UNK         0.0000 
     34 H34        -0.9960   52.5622   29.4029 H         1 UNK         0.0000 
     35 H35         3.1660   54.3821   24.6821 H         1 UNK         0.0000 
     36 H36         5.4173   55.2966   24.3271 H         1 UNK         0.0000 
     37 H37         7.0610   55.2969   26.1644 H         1 UNK         0.0000 
     38 H38         6.4679   54.3811   28.3781 H         1 UNK         0.0000 
     39 H39         4.2407   53.4129   28.7508 H         1 UNK         0.0000 
     40 H40        -2.3644   50.0996   27.6812 H         1 UNK         0.0000 
     41 H41        -6.1618   53.3915   25.9826 H         1 UNK         0.0000 
     42 H42        -5.1411   49.5151   29.8893 H         1 UNK         0.0000 
     43 H43        -3.5143   50.1548   29.7137 H         1 UNK         0.0000 
     44 H44        -4.0980   48.8812   28.6217 H         1 UNK         0.0000 
     45 H45         1.2817   50.5077   22.1865 H         1 UNK         0.0000 
     46 H46         2.2511   51.9196   22.4363 H         1 UNK         0.0000 
@<TRIPOS>BOND
     1    1    2 1    
     2    1   32 1    
     3    1   33 1    
     4    1   34 1    
     5    2    6 ar   
     6    2    3 ar   
     7    3   16 1    
     8    3    4 ar   
     9    4    5 ar   
    10    4   13 1    
    11    5    6 ar   
    12    5    7 1    
    13    7   12 ar   
    14    7    8 ar   
    15    8    9 ar   
    16    8   35 1    
    17    9   10 ar   
    18    9   36 1    
    19   10   11 ar   
    20   10   37 1    
    21   11   12 ar   
    22   11   38 1    
    23   12   39 1    
    24   13   14 1    
    25   14   15 2    
    26   14   31 1    
    27   15   16 1    
    28   15   29 1    
    29   16   17 1    
    30   16   18 1    
    31   18   23 ar   
    32   18   19 ar   
    33   19   20 ar   
    34   19   40 1    
    35   20   21 ar   
    36   20   27 1    
    37   21   22 ar   
    38   21   26 1    
    39   22   23 ar   
    40   22   25 1    
    41   23   24 1    
    42   26   41 1    
    43   27   28 1    
    44   28   42 1    
    45   28   43 1    
    46   28   44 1    
    47   29   30 3    
    48   31   45 1    
    49   31   46 1    
@<TRIPOS>SUBSTRUCTURE
     1 UNK         1 GROUP             0       ****    0 ROOT    
