ZINC19850513_1174
                    3D
 Schrodinger Suite 2024-2.
 50 52  0  0  1  0            999 V2000
    6.1845   54.0610   26.7946 C   0  0  0  0  0  0
    6.4857   54.1626   25.4380 C   0  0  0  0  0  0
    5.4660   54.3713   24.5157 C   0  0  0  0  0  0
    4.1475   54.4967   24.9418 C   0  0  0  0  0  0
    3.8520   54.4157   26.2998 C   0  0  0  0  0  0
    4.8598   54.1639   27.2403 C   0  0  0  0  0  0
    4.5936   54.0667   28.6890 C   0  0  0  0  0  0
    3.5831   53.6069   29.3279 N   0  0  0  0  0  0
    2.6006   52.9647   28.6415 N   0  0  0  0  0  0
    1.4858   52.5152   29.2678 C   0  0  0  0  0  0
    1.3101   52.6409   30.4816 O   0  0  0  0  0  0
    0.3508   51.8166   28.4818 C   0  0  0  0  0  0
    0.7050   51.4083   27.0207 N   0  3  0  0  0  0
   -0.0712   50.1246   26.6166 C   0  0  0  0  0  0
    0.2426   49.7325   25.1548 C   0  0  0  0  0  0
    0.0901   50.8775   24.2242 N   0  0  0  0  0  0
    0.8240   52.1050   24.6026 C   0  0  0  0  0  0
    0.4415   52.5634   26.0220 C   0  0  0  0  0  0
   -1.3871   51.0122   23.2384 S   0  0  0  0  0  0
   -1.1863   52.0964   22.2691 O   0  0  0  0  0  0
   -1.7514   49.6625   22.7927 O   0  0  0  0  0  0
   -2.6775   51.5496   24.3622 C   0  0  0  0  0  0
   -3.0458   52.8969   24.4152 C   0  0  0  0  0  0
   -4.0620   53.3042   25.2764 C   0  0  0  0  0  0
   -4.6988   52.3652   26.0854 C   0  0  0  0  0  0
   -4.3267   51.0226   26.0427 C   0  0  0  0  0  0
   -3.3181   50.6120   25.1756 C   0  0  0  0  0  0
   -6.0960   52.9178   27.2540 Br  0  0  0  0  0  0
    5.8434   54.4839   22.8357 Cl  0  0  0  0  0  0
    6.9924   53.8900   27.4936 H   0  0  0  0  0  0
    7.5045   54.0765   25.0929 H   0  0  0  0  0  0
    3.3632   54.6877   24.2235 H   0  0  0  0  0  0
    2.8370   54.5874   26.6166 H   0  0  0  0  0  0
    5.4122   54.4713   29.2804 H   0  0  0  0  0  0
    2.7568   52.8602   27.6506 H   0  0  0  0  0  0
    0.1069   50.8964   29.0140 H   0  0  0  0  0  0
   -0.5637   52.4110   28.4568 H   0  0  0  0  0  0
    0.3003   49.3448   27.2742 H   0  0  0  0  0  0
   -1.1343   50.2693   26.8161 H   0  0  0  0  0  0
    1.2403   49.3030   25.0435 H   0  0  0  0  0  0
   -0.4604   48.9591   24.8428 H   0  0  0  0  0  0
    0.6026   52.8816   23.8690 H   0  0  0  0  0  0
    1.8932   51.9009   24.5236 H   0  0  0  0  0  0
   -0.6063   52.8596   26.1059 H   0  0  0  0  0  0
    1.0766   53.3902   26.3276 H   0  0  0  0  0  0
   -2.5590   53.6272   23.7849 H   0  0  0  0  0  0
   -4.3566   54.3425   25.3142 H   0  0  0  0  0  0
   -4.8236   50.2995   26.6735 H   0  0  0  0  0  0
   -3.0402   49.5676   25.1382 H   0  0  0  0  0  0
    1.6825   51.1565   26.9701 H   0  0  0  0  0  0
  1  6  2  0  0  0
  1  2  1  0  0  0
  1 30  1  0  0  0
  2  3  2  0  0  0
  2 31  1  0  0  0
  3  4  1  0  0  0
  3 29  1  0  0  0
  4  5  2  0  0  0
  4 32  1  0  0  0
  5  6  1  0  0  0
  5 33  1  0  0  0
  6  7  1  0  0  0
  7  8  2  0  0  0
  7 34  1  0  0  0
  8  9  1  0  0  0
  9 10  1  0  0  0
  9 35  1  0  0  0
 10 11  2  0  0  0
 10 12  1  0  0  0
 12 13  1  0  0  0
 12 36  1  0  0  0
 12 37  1  0  0  0
 13 18  1  0  0  0
 13 14  1  0  0  0
 13 50  1  0  0  0
 14 15  1  0  0  0
 14 38  1  0  0  0
 14 39  1  0  0  0
 15 16  1  0  0  0
 15 40  1  0  0  0
 15 41  1  0  0  0
 16 17  1  0  0  0
 16 19  1  0  0  0
 17 18  1  0  0  0
 17 42  1  0  0  0
 17 43  1  0  0  0
 18 44  1  0  0  0
 18 45  1  0  0  0
 19 20  2  0  0  0
 19 21  2  0  0  0
 19 22  1  0  0  0
 22 27  2  0  0  0
 22 23  1  0  0  0
 23 24  2  0  0  0
 23 46  1  0  0  0
 24 25  1  0  0  0
 24 47  1  0  0  0
 25 26  2  0  0  0
 25 28  1  0  0  0
 26 27  1  0  0  0
 26 48  1  0  0  0
 27 49  1  0  0  0
M  CHG  1  13   1
M  END
> <i_i_glide_confnum>
10

> <i_i_glide_lignum>
1175

> <i_i_glide_posenum>
44

> <i_i_glide_rotatable_bonds>
7

> <i_m_Source_File_Index>
3725

> <b_m_subgroup_collapsed>
0

> <r_i_docking_score>
-5.09066

> <r_i_glide_ecoul>
-3.63106

> <r_i_glide_eff_state_penalty>
0

> <r_i_glide_einternal>
10.7271

> <r_i_glide_emodel>
-54.0392

> <r_i_glide_energy>
-43.9183

> <r_i_glide_erotb>
0.488534

> <r_i_glide_esite>
-0.00961618

> <r_i_glide_evdw>
-40.2872

> <r_i_glide_gscore>
-5.09066

> <r_i_glide_hbond>
0

> <r_i_glide_ligand_efficiency>
-0.17554

> <r_i_glide_ligand_efficiency_ln>
-1.16563

> <r_i_glide_ligand_efficiency_sa>
-0.539314

> <r_i_glide_lipo>
-2.33595

> <r_i_glide_metal>
0

> <r_i_glide_rewards>
-0.674606

> <s_i_glide_gridfile>
wee1_glide-grid

> <s_m_Source_File>
wee1_decoys_glide_SP.sdf

> <s_m_Source_Path>
/Users/zhangxujun/Desktop

> <s_m_entry_id>
4000

> <s_m_entry_name>
wee1_decoys_glide_SP.3725

> <s_m_subgroup_title>
wee1_decoys_glide_SP

> <s_m_subgroupid>
wee1_decoys_glide_SP


$$$$
