@<TRIPOS>MOLECULE
ZINC67625565_6233
57   58    1
SMALL
USER_CHARGES


@<TRIPOS>ATOM
      1 C1          1.7182   54.9756   28.7507 C.3       1 UNK         0.0000 
      2 S2          2.1630   53.1732   29.0516 S.o2      1 UNK         0.0000 
      3 O3          1.9663   52.9328   30.4842 O.2       1 UNK         0.0000 
      4 O4          3.4636   52.9098   28.4265 O.2       1 UNK         0.0000 
      5 N5          0.9158   52.2675   28.1699 N.pl3     1 UNK         0.0000 
      6 C6         -0.4940   52.5278   28.5471 C.3       1 UNK         0.0000 
      7 C7         -1.3971   51.3616   28.0815 C.3       1 UNK         0.0000 
      8 C8         -1.1670   50.9382   26.6071 C.3       1 UNK         0.0000 
      9 C9          0.3413   50.8109   26.2687 C.3       1 UNK         0.0000 
     10 H10         0.6933   50.0075   26.9185 H         1 UNK         0.0000 
     11 C11         1.0998   52.0911   26.7076 C.3       1 UNK         0.0000 
     12 N12         0.7039   50.2517   24.9645 N.am      1 UNK         0.0000 
     13 C13         0.2219   50.5633   23.7542 C.2       1 UNK         0.0000 
     14 O14        -0.5800   51.4688   23.5241 O.2       1 UNK         0.0000 
     15 N15         0.8265   49.8241   22.8095 N.am      1 UNK         0.0000 
     16 C16         0.9425   50.1601   21.3861 C.3       1 UNK         0.0000 
     17 C17         1.5080   51.5685   21.0919 C.3       1 UNK         0.0000 
     18 C18         2.8092   51.8974   21.8440 C.3       1 UNK         0.0000 
     19 N19         3.0524   53.4106   21.7416 N.4       1 UNK         0.0000 
     20 C20         4.0339   54.0531   22.7436 C.3       1 UNK         0.0000 
     21 C21         3.5714   53.9446   24.2164 C.3       1 UNK         0.0000 
     22 C22         4.5648   54.6205   25.1912 C.3       1 UNK         0.0000 
     23 C23         6.0501   54.2925   24.9095 C.3       1 UNK         0.0000 
     24 C24         6.4527   54.3934   23.4195 C.3       1 UNK         0.0000 
     25 C25         5.4894   53.6297   22.4858 C.3       1 UNK         0.0000 
     26 H26         2.4668   55.6031   29.2307 H         1 UNK         0.0000 
     27 H27         1.7034   55.1603   27.6818 H         1 UNK         0.0000 
     28 H28         0.7379   55.1728   29.1836 H         1 UNK         0.0000 
     29 H29        -0.8269   53.4100   27.9982 H         1 UNK         0.0000 
     30 H30        -0.5768   52.6761   29.6263 H         1 UNK         0.0000 
     31 H31        -2.4456   51.6127   28.2424 H         1 UNK         0.0000 
     32 H32        -1.2079   50.4977   28.7205 H         1 UNK         0.0000 
     33 H33        -1.6285   51.6799   25.9554 H         1 UNK         0.0000 
     34 H34        -1.6792   49.9930   26.4173 H         1 UNK         0.0000 
     35 H35         2.1611   52.0971   26.4633 H         1 UNK         0.0000 
     36 H36         0.6257   52.9298   26.1956 H         1 UNK         0.0000 
     37 H37         1.3736   49.4979   25.0044 H         1 UNK         0.0000 
     38 H38         1.2922   48.9769   23.1025 H         1 UNK         0.0000 
     39 H39        -0.0317   50.0298   20.9089 H         1 UNK         0.0000 
     40 H40         1.6135   49.4102   20.9626 H         1 UNK         0.0000 
     41 H41         0.7423   52.3079   21.3338 H         1 UNK         0.0000 
     42 H42         1.6740   51.6676   20.0184 H         1 UNK         0.0000 
     43 H43         3.6920   51.3955   21.4455 H         1 UNK         0.0000 
     44 H44         2.7049   51.6847   22.9043 H         1 UNK         0.0000 
     45 H45         2.1603   53.8745   21.8514 H         1 UNK         0.0000 
     46 H46         3.9864   55.1124   22.4898 H         1 UNK         0.0000 
     47 H47         3.5032   52.8971   24.5055 H         1 UNK         0.0000 
     48 H48         2.5533   54.3191   24.3370 H         1 UNK         0.0000 
     49 H49         4.3184   54.3407   26.2168 H         1 UNK         0.0000 
     50 H50         4.4384   55.6967   25.1573 H         1 UNK         0.0000 
     51 H51         6.2673   53.2966   25.2790 H         1 UNK         0.0000 
     52 H52         6.6864   54.9511   25.5019 H         1 UNK         0.0000 
     53 H53         7.4693   54.0193   23.2884 H         1 UNK         0.0000 
     54 H54         6.4841   55.4437   23.1256 H         1 UNK         0.0000 
     55 H55         5.7508   53.7508   21.4339 H         1 UNK         0.0000 
     56 H56         5.5902   52.5580   22.6652 H         1 UNK         0.0000 
     57 H57         3.3530   53.6245   20.7993 H         1 UNK         0.0000 
@<TRIPOS>BOND
     1    1    2 1    
     2    1   26 1    
     3    1   27 1    
     4    1   28 1    
     5    2    3 2    
     6    2    4 2    
     7    2    5 1    
     8    5   11 1    
     9    5    6 1    
    10    6    7 1    
    11    6   29 1    
    12    6   30 1    
    13    7    8 1    
    14    7   31 1    
    15    7   32 1    
    16    8    9 1    
    17    8   33 1    
    18    8   34 1    
    19    9   10 1    
    20    9   11 1    
    21    9   12 1    
    22   11   35 1    
    23   11   36 1    
    24   12   13 am   BACKBONE|DICT|INTERRES
    25   12   37 1    
    26   13   14 2    
    27   13   15 am   BACKBONE|DICT|INTERRES
    28   15   16 1    
    29   15   38 1    
    30   16   17 1    
    31   16   39 1    
    32   16   40 1    
    33   17   18 1    
    34   17   41 1    
    35   17   42 1    
    36   18   19 1    
    37   18   43 1    
    38   18   44 1    
    39   19   20 1    
    40   19   45 1    
    41   19   57 1    
    42   20   25 1    
    43   20   21 1    
    44   20   46 1    
    45   21   22 1    
    46   21   47 1    
    47   21   48 1    
    48   22   23 1    
    49   22   49 1    
    50   22   50 1    
    51   23   24 1    
    52   23   51 1    
    53   23   52 1    
    54   24   25 1    
    55   24   53 1    
    56   24   54 1    
    57   25   55 1    
    58   25   56 1    
@<TRIPOS>SUBSTRUCTURE
     1 UNK         1 GROUP             0       ****    0 ROOT    
