@<TRIPOS>MOLECULE
ZINC39533903_5106
59   62    1
SMALL
USER_CHARGES


@<TRIPOS>ATOM
      1 C1          0.5575   53.6481   30.2629 C.ar      1 UNK         0.0000 
      2 C2          1.2361   54.7771   29.8142 C.ar      1 UNK         0.0000 
      3 C3          1.7864   54.7895   28.5349 C.ar      1 UNK         0.0000 
      4 C4          1.6604   53.6771   27.6882 C.ar      1 UNK         0.0000 
      5 C5          0.9704   52.5510   28.1600 C.ar      1 UNK         0.0000 
      6 C6          0.4216   52.5336   29.4405 C.ar      1 UNK         0.0000 
      7 C7          2.2388   53.6961   26.3089 C.ar      1 UNK         0.0000 
      8 C8          3.4480   54.3471   26.0414 C.ar      1 UNK         0.0000 
      9 C9          3.9760   54.3682   24.7528 C.ar      1 UNK         0.0000 
     10 C10         3.3454   53.6967   23.6915 C.ar      1 UNK         0.0000 
     11 C11         2.1080   53.0959   23.9582 C.ar      1 UNK         0.0000 
     12 C12         1.5718   53.0816   25.2430 C.ar      1 UNK         0.0000 
     13 C13         4.0065   53.6680   22.2810 C.3       1 UNK         0.0000 
     14 H14         3.9621   54.7138   21.9703 H         1 UNK         0.0000 
     15 C15         5.5044   53.2147   22.3160 C.3       1 UNK         0.0000 
     16 N16         6.4653   54.1529   22.8817 N.3       1 UNK         0.0000 
     17 Cl17        6.6744   55.6407   21.9038 Cl        1 UNK         0.0000 
     18 N18         3.2501   52.9020   21.2422 N.3       1 UNK         0.0000 
     19 C19         3.6558   53.2970   19.8800 C.3       1 UNK         0.0000 
     20 C20         2.7048   52.7215   18.8110 C.3       1 UNK         0.0000 
     21 N21         2.7187   51.1855   18.8828 N.4       1 UNK         0.0000 
     22 C22         2.4102   50.6891   20.3124 C.3       1 UNK         0.0000 
     23 H23         2.5804   49.6122   20.2972 H         1 UNK         0.0000 
     24 C24         3.2626   51.4310   21.3842 C.3       1 UNK         0.0000 
     25 S25         0.5165   50.8188   20.5406 S.3       1 UNK         0.0000 
     26 O26         0.1611   51.9620   21.3901 O.2       1 UNK         0.0000 
     27 O27        -0.1185   50.6490   19.2274 O.2       1 UNK         0.0000 
     28 O28         0.2929   49.3979   21.3908 O.3       1 UNK         0.0000 
     29 C29        -0.1790   49.4460   22.6759 C.ar      1 UNK         0.0000 
     30 C30         0.7097   49.3559   23.7445 C.ar      1 UNK         0.0000 
     31 C31         0.2312   49.3032   25.0505 C.ar      1 UNK         0.0000 
     32 C32        -1.1413   49.3587   25.2814 C.ar      1 UNK         0.0000 
     33 C33        -2.0350   49.4714   24.2176 C.ar      1 UNK         0.0000 
     34 C34        -1.5528   49.5096   22.9107 C.ar      1 UNK         0.0000 
     35 H35         0.1284   53.6314   31.2554 H         1 UNK         0.0000 
     36 H36         1.3316   55.6419   30.4551 H         1 UNK         0.0000 
     37 H37         2.2965   55.6796   28.1999 H         1 UNK         0.0000 
     38 H38         0.8615   51.6726   27.5394 H         1 UNK         0.0000 
     39 H39        -0.1067   51.6600   29.7941 H         1 UNK         0.0000 
     40 H40         3.9885   54.8476   26.8328 H         1 UNK         0.0000 
     41 H41         4.8859   54.9232   24.6116 H         1 UNK         0.0000 
     42 H42         1.5501   52.6143   23.1768 H         1 UNK         0.0000 
     43 H43         0.6209   52.5917   25.3995 H         1 UNK         0.0000 
     44 H44         5.5853   52.2921   22.8817 H         1 UNK         0.0000 
     45 H45         5.9044   52.9919   21.3282 H         1 UNK         0.0000 
     46 H46         6.1942   54.4804   23.7966 H         1 UNK         0.0000 
     47 H47         3.6589   54.3846   19.7868 H         1 UNK         0.0000 
     48 H48         4.6641   52.9314   19.6743 H         1 UNK         0.0000 
     49 H49         1.6731   53.0477   18.9573 H         1 UNK         0.0000 
     50 H50         3.0197   52.9764   17.7990 H         1 UNK         0.0000 
     51 H51         2.0685   50.7919   18.2153 H         1 UNK         0.0000 
     52 H52         4.2904   51.0784   21.2680 H         1 UNK         0.0000 
     53 H53         2.9288   51.1226   22.3744 H         1 UNK         0.0000 
     54 H54         1.7729   49.2967   23.5623 H         1 UNK         0.0000 
     55 H55         0.9149   49.1946   25.8796 H         1 UNK         0.0000 
     56 H56        -1.5120   49.2993   26.2962 H         1 UNK         0.0000 
     57 H57        -3.0968   49.5100   24.4072 H         1 UNK         0.0000 
     58 H58        -2.2396   49.5729   22.0801 H         1 UNK         0.0000 
     59 H59         3.6458   50.8628   18.5900 H         1 UNK         0.0000 
@<TRIPOS>BOND
     1    1    6 ar   
     2    1    2 ar   
     3    1   35 1    
     4    2    3 ar   
     5    2   36 1    
     6    3    4 ar   
     7    3   37 1    
     8    4    5 ar   
     9    4    7 1    
    10    5    6 ar   
    11    5   38 1    
    12    6   39 1    
    13    7   12 ar   
    14    7    8 ar   
    15    8    9 ar   
    16    8   40 1    
    17    9   10 ar   
    18    9   41 1    
    19   10   11 ar   
    20   10   13 1    
    21   11   12 ar   
    22   11   42 1    
    23   12   43 1    
    24   13   14 1    
    25   13   15 1    
    26   13   18 1    
    27   15   16 1    
    28   15   44 1    
    29   15   45 1    
    30   16   17 1    
    31   16   46 1    
    32   18   24 1    
    33   18   19 1    
    34   19   20 1    
    35   19   47 1    
    36   19   48 1    
    37   20   21 1    
    38   20   49 1    
    39   20   50 1    
    40   21   22 1    
    41   21   51 1    
    42   21   59 1    
    43   22   23 1    
    44   22   24 1    
    45   22   25 1    
    46   24   52 1    
    47   24   53 1    
    48   25   26 2    
    49   25   27 2    
    50   25   28 1    
    51   28   29 1    
    52   29   34 ar   
    53   29   30 ar   
    54   30   31 ar   
    55   30   54 1    
    56   31   32 ar   
    57   31   55 1    
    58   32   33 ar   
    59   32   56 1    
    60   33   34 ar   
    61   33   57 1    
    62   34   58 1    
@<TRIPOS>SUBSTRUCTURE
     1 UNK         1 GROUP             0       ****    0 ROOT    
