@<TRIPOS>MOLECULE
ZINC14740943_112
66   70    1
SMALL
USER_CHARGES


@<TRIPOS>ATOM
      1 C1          1.1715   56.0312   30.6249 C.3       1 UNK         0.0000 
      2 N2          1.7926   55.0528   29.7449 N.pl3     1 UNK         0.0000 
      3 C3          1.2600   53.8802   29.2820 C.ar      1 UNK         0.0000 
      4 C4          2.2496   53.3109   28.4862 C.ar      1 UNK         0.0000 
      5 C5          3.3430   54.2062   28.5646 C.ar      1 UNK         0.0000 
      6 N6          3.0281   55.2678   29.2815 N.2       1 UNK         0.0000 
      7 C7          4.6266   54.0957   27.9011 C.2       1 UNK         0.0000 
      8 O8          5.5999   53.7124   28.5488 O.2       1 UNK         0.0000 
      9 N9          4.7198   54.5863   26.6361 N.am      1 UNK         0.0000 
     10 C10         6.0302   54.9530   26.0699 C.3       1 UNK         0.0000 
     11 C11         6.2582   54.2712   24.7064 C.3       1 UNK         0.0000 
     12 C12         5.0050   54.0965   23.8496 C.ar      1 UNK         0.0000 
     13 C13         5.1112   53.6645   22.5243 C.ar      1 UNK         0.0000 
     14 C14         3.9813   53.4227   21.7486 C.ar      1 UNK         0.0000 
     15 C15         2.7181   53.6276   22.2943 C.ar      1 UNK         0.0000 
     16 C16         2.5938   54.0954   23.5969 C.ar      1 UNK         0.0000 
     17 C17         3.7238   54.3381   24.3880 C.ar      1 UNK         0.0000 
     18 C18         3.5609   54.8965   25.7935 C.3       1 UNK         0.0000 
     19 C19         1.9864   52.0422   27.6926 C.3       1 UNK         0.0000 
     20 C20         0.4604   51.9115   27.4441 C.3       1 UNK         0.0000 
     21 H21         0.1344   52.6886   26.7500 H         1 UNK         0.0000 
     22 C22        -0.3194   51.9929   28.7834 C.3       1 UNK         0.0000 
     23 C23        -0.1444   53.3411   29.5345 C.3       1 UNK         0.0000 
     24 C24        -1.0429   50.3727   25.9375 C.3       1 UNK         0.0000 
     25 C25        -0.6870   49.5987   24.6459 C.3       1 UNK         0.0000 
     26 C26        -1.9535   49.1974   23.8280 C.3       1 UNK         0.0000 
     27 C27        -1.7430   48.8144   22.3473 C.3       1 UNK         0.0000 
     28 C28        -0.8327   49.8015   21.6100 C.3       1 UNK         0.0000 
     29 C29         0.5318   49.8743   22.3027 C.3       1 UNK         0.0000 
     30 C30         0.4204   50.2915   23.7830 C.3       1 UNK         0.0000 
     31 O31        -0.0958   48.3319   24.8815 O.3       1 UNK         0.0000 
     32 H32         0.7044   55.5111   31.4624 H         1 UNK         0.0000 
     33 H33         1.9049   56.7380   31.0134 H         1 UNK         0.0000 
     34 H34         0.4155   56.5894   30.0817 H         1 UNK         0.0000 
     35 H35         6.0088   56.0268   25.8852 H         1 UNK         0.0000 
     36 H36         6.8786   54.8256   26.7457 H         1 UNK         0.0000 
     37 H37         6.6919   53.2972   24.9020 H         1 UNK         0.0000 
     38 H38         7.0324   54.8022   24.1532 H         1 UNK         0.0000 
     39 H39         6.0848   53.4915   22.0953 H         1 UNK         0.0000 
     40 H40         4.0812   53.0770   20.7304 H         1 UNK         0.0000 
     41 H41         1.8381   53.4501   21.6905 H         1 UNK         0.0000 
     42 H42         1.6089   54.2842   23.9960 H         1 UNK         0.0000 
     43 H43         3.5045   55.9775   25.7172 H         1 UNK         0.0000 
     44 H44         2.6240   54.5217   26.2070 H         1 UNK         0.0000 
     45 H45         2.5134   52.0968   26.7421 H         1 UNK         0.0000 
     46 H46         2.3835   51.1739   28.2171 H         1 UNK         0.0000 
     47 H47         0.0393   51.1949   29.4368 H         1 UNK         0.0000 
     48 H48        -1.3745   51.7495   28.6458 H         1 UNK         0.0000 
     49 H49        -0.3190   53.1861   30.6011 H         1 UNK         0.0000 
     50 H50        -0.8890   54.0608   29.1983 H         1 UNK         0.0000 
     51 H51        -1.7777   49.8585   26.5573 H         1 UNK         0.0000 
     52 H52        -1.4097   51.3748   25.7156 H         1 UNK         0.0000 
     53 H53        -2.5275   48.4220   24.3404 H         1 UNK         0.0000 
     54 H54        -2.6282   50.0556   23.8361 H         1 UNK         0.0000 
     55 H55        -1.3046   47.8161   22.2956 H         1 UNK         0.0000 
     56 H56        -2.7045   48.7432   21.8386 H         1 UNK         0.0000 
     57 H57        -0.7080   49.4926   20.5703 H         1 UNK         0.0000 
     58 H58        -1.2943   50.7915   21.5827 H         1 UNK         0.0000 
     59 H59         1.0202   48.8992   22.2402 H         1 UNK         0.0000 
     60 H60         1.1814   50.5679   21.7696 H         1 UNK         0.0000 
     61 H61         0.2161   51.3632   23.7942 H         1 UNK         0.0000 
     62 H62         1.4004   50.2127   24.2563 H         1 UNK         0.0000 
     63 H63        -0.6063   47.8527   25.5404 H         1 UNK         0.0000 
     64 N64         0.2172   50.5255   26.8125 N.4       1 UNK         0.0000 
     65 H65         1.0090   50.3009   26.2266 H         1 UNK         0.0000 
     66 H66         0.2049   49.8110   27.5312 H         1 UNK         0.0000 
@<TRIPOS>BOND
     1    1    2 1    
     2    1   32 1    
     3    1   33 1    
     4    1   34 1    
     5    2    6 ar   
     6    2    3 ar   
     7    3   23 1    
     8    3    4 ar   
     9    4    5 ar   
    10    4   19 1    
    11    5    6 ar   
    12    5    7 1    
    13    7    8 2    
    14    7    9 am   BACKBONE|DICT|INTERRES
    15    9   18 1    
    16    9   10 1    
    17   10   11 1    
    18   10   35 1    
    19   10   36 1    
    20   11   12 1    
    21   11   37 1    
    22   11   38 1    
    23   12   17 ar   
    24   12   13 ar   
    25   13   14 ar   
    26   13   39 1    
    27   14   15 ar   
    28   14   40 1    
    29   15   16 ar   
    30   15   41 1    
    31   16   17 ar   
    32   16   42 1    
    33   17   18 1    
    34   18   43 1    
    35   18   44 1    
    36   19   20 1    
    37   19   45 1    
    38   19   46 1    
    39   20   21 1    
    40   20   22 1    
    41   20   64 1    
    42   22   23 1    
    43   22   47 1    
    44   22   48 1    
    45   23   49 1    
    46   23   50 1    
    47   24   25 1    
    48   24   51 1    
    49   24   52 1    
    50   24   64 1    
    51   25   30 1    
    52   25   26 1    
    53   25   31 1    
    54   26   27 1    
    55   26   53 1    
    56   26   54 1    
    57   27   28 1    
    58   27   55 1    
    59   27   56 1    
    60   28   29 1    
    61   28   57 1    
    62   28   58 1    
    63   29   30 1    
    64   29   59 1    
    65   29   60 1    
    66   30   61 1    
    67   30   62 1    
    68   31   63 1    
    69   64   65 1    
    70   64   66 1    
@<TRIPOS>SUBSTRUCTURE
     1 UNK         1 GROUP             0       ****    0 ROOT    
