@<TRIPOS>MOLECULE
ZINC12191054_1069
72   76    1
SMALL
USER_CHARGES


@<TRIPOS>ATOM
      1 C1          9.2721   49.7460   13.8258 C.3       1 UNK         0.0000 
      2 C2          9.2467   51.2063   13.3469 C.3       1 UNK         0.0000 
      3 C3          8.2527   52.0646   14.1174 C.ar      1 UNK         0.0000 
      4 C4          8.6222   52.6184   15.3447 C.ar      1 UNK         0.0000 
      5 C5          7.7066   53.3746   16.0703 C.ar      1 UNK         0.0000 
      6 C6          6.4143   53.5725   15.5771 C.ar      1 UNK         0.0000 
      7 C7          6.0542   53.0474   14.3338 C.ar      1 UNK         0.0000 
      8 C8          6.9712   52.2899   13.6074 C.ar      1 UNK         0.0000 
      9 C9          5.3903   54.3006   16.4354 C.3       1 UNK         0.0000 
     10 C10         3.6611   52.4142   16.8241 C.3       1 UNK         0.0000 
     11 C11         2.9156   51.8362   18.0410 C.3       1 UNK         0.0000 
     12 H12         2.9680   50.7450   18.0616 H         1 UNK         0.0000 
     13 C13         3.5748   52.4403   19.2869 C.3       1 UNK         0.0000 
     14 C14         4.2718   53.7425   18.8270 C.3       1 UNK         0.0000 
     15 H15         3.6150   54.6005   18.6680 H         1 UNK         0.0000 
     16 C16         5.4979   54.1377   19.7120 C.2       1 UNK         0.0000 
     17 O17         6.6269   54.0981   19.2151 O.2       1 UNK         0.0000 
     18 N18         5.3101   54.6297   20.9686 N.am      1 UNK         0.0000 
     19 C19         6.4604   55.1093   21.7619 C.3       1 UNK         0.0000 
     20 C20         6.5641   54.3236   23.0924 C.3       1 UNK         0.0000 
     21 N21         5.2944   54.0984   23.8060 N.pl3     1 UNK         0.0000 
     22 C22         4.2406   53.6187   22.8936 C.3       1 UNK         0.0000 
     23 C23         4.0336   54.5535   21.6940 C.3       1 UNK         0.0000 
     24 C24         5.1499   54.1965   25.1929 C.ar      1 UNK         0.0000 
     25 C25         3.8889   54.4073   25.7717 C.ar      1 UNK         0.0000 
     26 C26         3.7391   54.4912   27.1537 C.ar      1 UNK         0.0000 
     27 C27         4.8534   54.3803   27.9777 C.ar      1 UNK         0.0000 
     28 C28         6.1167   54.1866   27.4294 C.ar      1 UNK         0.0000 
     29 C29         6.2602   54.0971   26.0464 C.ar      1 UNK         0.0000 
     30 F30         4.7052   54.4711   29.3179 F         1 UNK         0.0000 
     31 N31         1.4741   52.1021   18.0486 N.pl3     1 UNK         0.0000 
     32 C32         0.4752   51.3000   18.5359 C.ar      1 UNK         0.0000 
     33 C33        -0.6866   52.0635   18.4447 C.ar      1 UNK         0.0000 
     34 N34        -0.3847   53.2362   17.9086 N.2       1 UNK         0.0000 
     35 N35         0.9765   53.2876   17.6776 N.2       1 UNK         0.0000 
     36 C36        -2.0329   51.7046   18.8795 C.2       1 UNK         0.0000 
     37 O37        -2.9777   52.4969   18.8772 O.2       1 UNK         0.0000 
     38 O38        -2.0941   50.4186   19.2964 O.3       1 UNK         0.0000 
     39 C39        -3.3147   49.8754   19.7812 C.3       1 UNK         0.0000 
     40 H40        10.0184   49.1729   13.2740 H         1 UNK         0.0000 
     41 H41         9.5232   49.6752   14.8851 H         1 UNK         0.0000 
     42 H42         8.3063   49.2606   13.6801 H         1 UNK         0.0000 
     43 H43         9.0196   51.2448   12.2800 H         1 UNK         0.0000 
     44 H44        10.2431   51.6428   13.4415 H         1 UNK         0.0000 
     45 H45         9.6113   52.4489   15.7460 H         1 UNK         0.0000 
     46 H46         7.9967   53.7754   17.0311 H         1 UNK         0.0000 
     47 H47         5.0578   53.1944   13.9424 H         1 UNK         0.0000 
     48 H48         6.6800   51.8653   12.6575 H         1 UNK         0.0000 
     49 H49         4.5712   54.7402   15.8636 H         1 UNK         0.0000 
     50 H50         5.8575   55.0908   17.0244 H         1 UNK         0.0000 
     51 H51         4.1674   51.6818   16.1978 H         1 UNK         0.0000 
     52 H52         3.0482   53.0595   16.1932 H         1 UNK         0.0000 
     53 H53         4.3109   51.7221   19.6562 H         1 UNK         0.0000 
     54 H54         2.8660   52.5553   20.1049 H         1 UNK         0.0000 
     55 H55         6.3041   56.1625   21.9903 H         1 UNK         0.0000 
     56 H56         7.4156   55.0450   21.2376 H         1 UNK         0.0000 
     57 H57         7.2943   54.8217   23.7289 H         1 UNK         0.0000 
     58 H58         6.9458   53.3236   22.8832 H         1 UNK         0.0000 
     59 H59         4.5348   52.6327   22.5265 H         1 UNK         0.0000 
     60 H60         3.2921   53.4530   23.4011 H         1 UNK         0.0000 
     61 H61         3.1931   54.2534   21.0795 H         1 UNK         0.0000 
     62 H62         3.7392   55.5223   22.0817 H         1 UNK         0.0000 
     63 H63         3.0061   54.5187   25.1618 H         1 UNK         0.0000 
     64 H64         2.7633   54.6506   27.5875 H         1 UNK         0.0000 
     65 H65         6.9774   54.1044   28.0778 H         1 UNK         0.0000 
     66 H66         7.2439   53.9186   25.6469 H         1 UNK         0.0000 
     67 H67         0.6776   50.3115   18.9222 H         1 UNK         0.0000 
     68 H68        -3.1849   48.8175   20.0074 H         1 UNK         0.0000 
     69 H69        -3.6321   50.3818   20.6931 H         1 UNK         0.0000 
     70 H70        -4.1089   49.9672   19.0394 H         1 UNK         0.0000 
     71 N71         4.7704   53.2955   17.4302 N.4       1 UNK         0.0000 
     72 H72         5.5132   52.6385   17.6468 H         1 UNK         0.0000 
@<TRIPOS>BOND
     1    1    2 1    
     2    1   40 1    
     3    1   41 1    
     4    1   42 1    
     5    2    3 1    
     6    2   43 1    
     7    2   44 1    
     8    3    8 ar   
     9    3    4 ar   
    10    4    5 ar   
    11    4   45 1    
    12    5    6 ar   
    13    5   46 1    
    14    6    7 ar   
    15    6    9 1    
    16    7    8 ar   
    17    7   47 1    
    18    8   48 1    
    19    9   49 1    
    20    9   50 1    
    21    9   71 1    
    22   10   11 1    
    23   10   51 1    
    24   10   52 1    
    25   10   71 1    
    26   11   12 1    
    27   11   13 1    
    28   11   31 1    
    29   13   14 1    
    30   13   53 1    
    31   13   54 1    
    32   14   15 1    
    33   14   16 1    
    34   14   71 1    
    35   16   17 2    
    36   16   18 am   BACKBONE|DICT|INTERRES
    37   18   23 1    
    38   18   19 1    
    39   19   20 1    
    40   19   55 1    
    41   19   56 1    
    42   20   21 1    
    43   20   57 1    
    44   20   58 1    
    45   21   22 1    
    46   21   24 1    
    47   22   23 1    
    48   22   59 1    
    49   22   60 1    
    50   23   61 1    
    51   23   62 1    
    52   24   29 ar   
    53   24   25 ar   
    54   25   26 ar   
    55   25   63 1    
    56   26   27 ar   
    57   26   64 1    
    58   27   28 ar   
    59   27   30 1    
    60   28   29 ar   
    61   28   65 1    
    62   29   66 1    
    63   31   35 ar   
    64   31   32 ar   
    65   32   33 ar   
    66   32   67 1    
    67   33   34 ar   
    68   33   36 1    
    69   34   35 ar   
    70   36   37 2    
    71   36   38 1    
    72   38   39 1    
    73   39   68 1    
    74   39   69 1    
    75   39   70 1    
    76   71   72 1    
@<TRIPOS>SUBSTRUCTURE
     1 UNK         1 GROUP             0       ****    0 ROOT    
