ZINC31773928_2721
                    3D
 Schrodinger Suite 2024-2.
 40 42  0  0  1  0            999 V2000
    4.9814   52.4845   20.1238 C   0  0  0  0  0  0
    4.8944   54.0290   19.9995 C   0  0  2  0  0  0
    3.9407   54.3519   20.4233 H   0  0  0  0  0  0
    4.8360   54.5333   18.5400 C   0  0  0  0  0  0
    4.5913   55.7246   18.3466 O   0  0  0  0  0  0
    5.0140   53.6263   17.5512 N   0  0  0  0  0  0
    5.0161   53.8124   16.1584 C   0  0  0  0  0  0
    4.8476   52.6593   15.3878 C   0  0  0  0  0  0
    4.8556   52.7374   13.9982 C   0  0  0  0  0  0
    5.0378   53.9706   13.3770 C   0  0  0  0  0  0
    5.2138   55.1261   14.1353 C   0  0  0  0  0  0
    5.2068   55.0510   15.5260 C   0  0  0  0  0  0
    5.0534   54.0764   11.4766 Br  0  0  0  0  0  0
    6.2246   54.8968   20.9248 S   0  0  0  0  0  0
    5.7803   54.5617   22.6426 C   0  0  0  0  0  0
    6.6295   54.8774   23.6620 N   0  0  0  0  0  0
    7.5745   55.1734   23.4609 H   0  0  0  0  0  0
    6.3038   54.9074   24.9732 C   0  0  0  0  0  0
    7.1044   55.2966   25.8134 O   0  0  0  0  0  0
    4.9495   54.4749   25.2566 C   0  0  0  0  0  0
    4.1491   54.0966   24.2192 C   0  0  0  0  0  0
    4.6015   54.1308   22.9253 N   0  0  0  0  0  0
    2.7527   53.6272   24.3357 C   0  0  0  0  0  0
    1.9236   53.2967   25.4091 C   0  0  0  0  0  0
    0.7081   52.8528   24.8879 C   0  0  0  0  0  0
    0.8206   52.9462   23.5162 C   0  0  0  0  0  0
    2.0458   53.4203   23.1844 O   0  0  0  0  0  0
    4.5134   54.4572   26.6119 C   0  0  0  0  0  0
    4.1846   54.4578   27.7212 N   0  0  0  0  0  0
    4.1456   51.9933   19.6224 H   0  0  0  0  0  0
    5.9023   52.0966   19.6834 H   0  0  0  0  0  0
    4.9522   52.1532   21.1613 H   0  0  0  0  0  0
    5.1051   52.6598   17.8389 H   0  0  0  0  0  0
    4.7038   51.6967   15.8600 H   0  0  0  0  0  0
    4.7219   51.8437   13.4069 H   0  0  0  0  0  0
    5.3612   56.0781   13.6470 H   0  0  0  0  0  0
    5.3642   55.9588   16.0876 H   0  0  0  0  0  0
    2.1686   53.3383   26.4592 H   0  0  0  0  0  0
   -0.1483   52.5023   25.4462 H   0  0  0  0  0  0
    0.1581   52.7205   22.6937 H   0  0  0  0  0  0
  1  2  1  0  0  0
  1 30  1  0  0  0
  1 31  1  0  0  0
  1 32  1  0  0  0
  2  3  1  0  0  0
  2  4  1  0  0  0
  2 14  1  0  0  0
  4  5  2  0  0  0
  4  6  1  0  0  0
  6  7  1  0  0  0
  6 33  1  0  0  0
  7 12  2  0  0  0
  7  8  1  0  0  0
  8  9  2  0  0  0
  8 34  1  0  0  0
  9 10  1  0  0  0
  9 35  1  0  0  0
 10 11  2  0  0  0
 10 13  1  0  0  0
 11 12  1  0  0  0
 11 36  1  0  0  0
 12 37  1  0  0  0
 14 15  1  0  0  0
 15 22  2  0  0  0
 15 16  1  0  0  0
 16 17  1  0  0  0
 16 18  1  0  0  0
 18 19  2  0  0  0
 18 20  1  0  0  0
 20 21  2  0  0  0
 20 28  1  0  0  0
 21 22  1  0  0  0
 21 23  1  0  0  0
 23 27  1  0  0  0
 23 24  2  0  0  0
 24 25  1  0  0  0
 24 38  1  0  0  0
 25 26  2  0  0  0
 25 39  1  0  0  0
 26 27  1  0  0  0
 26 40  1  0  0  0
 28 29  3  0  0  0
M  END
> <i_i_glide_confnum>
41

> <i_i_glide_lignum>
2722

> <i_i_glide_posenum>
321

> <i_i_glide_rotatable_bonds>
7

> <i_m_Source_File_Index>
2499

> <b_m_subgroup_collapsed>
0

> <r_i_docking_score>
-6.76605

> <r_i_glide_ecoul>
-8.80801

> <r_i_glide_eff_state_penalty>
0

> <r_i_glide_einternal>
3.96732

> <r_i_glide_emodel>
-60.5015

> <r_i_glide_energy>
-42.2619

> <r_i_glide_erotb>
0.353152

> <r_i_glide_esite>
-0.0453121

> <r_i_glide_evdw>
-33.4539

> <r_i_glide_gscore>
-6.76605

> <r_i_glide_hbond>
-0.594669

> <r_i_glide_ligand_efficiency>
-0.250595

> <r_i_glide_ligand_efficiency_ln>
-1.57503

> <r_i_glide_ligand_efficiency_sa>
-0.751784

> <r_i_glide_lipo>
-1.72955

> <r_i_glide_metal>
0

> <r_i_glide_rewards>
-1.75578

> <s_i_glide_gridfile>
wee1_glide-grid

> <s_m_Source_File>
wee1_decoys_glide_SP.sdf

> <s_m_Source_Path>
/Users/zhangxujun/Desktop

> <s_m_entry_id>
2774

> <s_m_entry_name>
wee1_decoys_glide_SP.2499

> <s_m_subgroup_title>
wee1_decoys_glide_SP

> <s_m_subgroupid>
wee1_decoys_glide_SP


$$$$
