ZINC09670244_2490
                    3D
 Schrodinger Suite 2024-2.
 51 54  0  0  1  0            999 V2000
   -1.4493   49.6674   25.9112 C   0  0  0  0  0  0
   -0.6440   50.7517   26.6156 C   0  0  0  0  0  0
    0.7040   50.5225   26.8813 C   0  0  0  0  0  0
    1.4732   51.4792   27.5486 C   0  0  0  0  0  0
    0.9199   52.7021   27.9241 C   0  0  0  0  0  0
   -0.4530   52.8957   27.7432 C   0  0  0  0  0  0
   -1.2307   51.9415   27.0709 C   0  0  0  0  0  0
   -2.5898   52.2008   26.8745 N   0  0  0  0  0  0
   -3.1285   52.6070   25.7069 C   0  0  0  0  0  0
   -2.5055   52.7442   24.6511 O   0  0  0  0  0  0
   -4.5244   52.9452   25.7910 C   0  0  0  0  0  0
   -5.3382   53.6480   24.9102 C   0  0  0  0  0  0
   -6.6156   53.6827   25.4707 C   0  0  0  0  0  0
   -6.5311   52.9954   26.6698 C   0  0  0  0  0  0
   -5.2645   52.5451   26.8637 O   0  0  0  0  0  0
    1.7940   53.7939   28.4936 C   0  0  0  0  0  0
    1.5303   54.2601   29.5999 O   0  0  0  0  0  0
    2.9027   54.2177   27.8341 N   0  0  0  0  0  0
    3.3135   54.0280   26.5052 C   0  0  0  0  0  0
    4.6186   54.2201   25.9772 C   0  0  0  0  0  0
    4.6315   54.0986   24.5532 C   0  0  0  0  0  0
    3.3745   53.7598   24.0294 C   0  0  0  0  0  0
    2.1596   53.6789   25.2402 S   0  0  0  0  0  0
    3.0511   53.5539   22.5582 C   0  0  0  0  0  0
    4.3553   53.2551   21.8015 C   0  0  0  0  0  0
    5.4295   54.2996   22.1317 C   0  0  0  0  0  0
    5.8459   54.2839   23.6231 C   0  0  0  0  0  0
    5.7977   54.5989   26.7538 C   0  0  0  0  0  0
    6.7037   55.2932   26.2987 O   0  0  0  0  0  0
    5.8400   54.1785   28.0195 N   0  0  0  0  0  0
   -0.9359   48.7045   25.9357 H   0  0  0  0  0  0
   -2.4036   49.5146   26.4176 H   0  0  0  0  0  0
   -1.6526   49.9459   24.8762 H   0  0  0  0  0  0
    1.1405   49.5818   26.5801 H   0  0  0  0  0  0
    2.5221   51.2944   27.7195 H   0  0  0  0  0  0
   -0.8953   53.8247   28.0726 H   0  0  0  0  0  0
   -3.1907   52.1334   27.6815 H   0  0  0  0  0  0
   -5.0340   54.0862   23.9711 H   0  0  0  0  0  0
   -7.4956   54.1440   25.0466 H   0  0  0  0  0  0
   -7.2471   52.7502   27.4407 H   0  0  0  0  0  0
    3.5419   54.7583   28.3977 H   0  0  0  0  0  0
    2.5902   54.4538   22.1486 H   0  0  0  0  0  0
    2.3357   52.7436   22.4132 H   0  0  0  0  0  0
    4.1608   53.2418   20.7283 H   0  0  0  0  0  0
    4.7204   52.2590   22.0580 H   0  0  0  0  0  0
    5.0633   55.2897   21.8541 H   0  0  0  0  0  0
    6.3032   54.1311   21.5061 H   0  0  0  0  0  0
    6.5595   53.4772   23.7918 H   0  0  0  0  0  0
    6.3784   55.2117   23.8318 H   0  0  0  0  0  0
    5.2104   53.4615   28.3438 H   0  0  0  0  0  0
    6.5891   54.5109   28.6128 H   0  0  0  0  0  0
  1  2  1  0  0  0
  1 31  1  0  0  0
  1 32  1  0  0  0
  1 33  1  0  0  0
  2  7  2  0  0  0
  2  3  1  0  0  0
  3  4  2  0  0  0
  3 34  1  0  0  0
  4  5  1  0  0  0
  4 35  1  0  0  0
  5  6  2  0  0  0
  5 16  1  0  0  0
  6  7  1  0  0  0
  6 36  1  0  0  0
  7  8  1  0  0  0
  8  9  1  0  0  0
  8 37  1  0  0  0
  9 10  2  0  0  0
  9 11  1  0  0  0
 11 15  1  0  0  0
 11 12  2  0  0  0
 12 13  1  0  0  0
 12 38  1  0  0  0
 13 14  2  0  0  0
 13 39  1  0  0  0
 14 15  1  0  0  0
 14 40  1  0  0  0
 16 17  2  0  0  0
 16 18  1  0  0  0
 18 19  1  0  0  0
 18 41  1  0  0  0
 19 23  1  0  0  0
 19 20  2  0  0  0
 20 21  1  0  0  0
 20 28  1  0  0  0
 21 27  1  0  0  0
 21 22  2  0  0  0
 22 23  1  0  0  0
 22 24  1  0  0  0
 24 25  1  0  0  0
 24 42  1  0  0  0
 24 43  1  0  0  0
 25 26  1  0  0  0
 25 44  1  0  0  0
 25 45  1  0  0  0
 26 27  1  0  0  0
 26 46  1  0  0  0
 26 47  1  0  0  0
 27 48  1  0  0  0
 27 49  1  0  0  0
 28 29  2  0  0  0
 28 30  1  0  0  0
 30 50  1  0  0  0
 30 51  1  0  0  0
M  END
> <i_i_glide_confnum>
60

> <i_i_glide_lignum>
2491

> <i_i_glide_posenum>
164

> <i_i_glide_rotatable_bonds>
7

> <i_m_Source_File_Index>
720

> <b_m_subgroup_collapsed>
0

> <r_i_docking_score>
-4.66649

> <r_i_glide_ecoul>
-5.10672

> <r_i_glide_eff_state_penalty>
0

> <r_i_glide_einternal>
8.5838

> <r_i_glide_emodel>
-48.2342

> <r_i_glide_energy>
-44.5169

> <r_i_glide_erotb>
0.663092

> <r_i_glide_esite>
-0.0204586

> <r_i_glide_evdw>
-39.4102

> <r_i_glide_gscore>
-4.66649

> <r_i_glide_hbond>
-0.419815

> <r_i_glide_ligand_efficiency>
-0.15555

> <r_i_glide_ligand_efficiency_ln>
-1.06028

> <r_i_glide_ligand_efficiency_sa>
-0.483329

> <r_i_glide_lipo>
-2.36209

> <r_i_glide_metal>
0

> <r_i_glide_rewards>
0.209295

> <s_i_glide_gridfile>
wee1_glide-grid

> <s_m_Source_File>
wee1_decoys_glide_SP.sdf

> <s_m_Source_Path>
/Users/zhangxujun/Desktop

> <s_m_entry_id>
995

> <s_m_entry_name>
wee1_decoys_glide_SP.720

> <s_m_subgroup_title>
wee1_decoys_glide_SP

> <s_m_subgroupid>
wee1_decoys_glide_SP


$$$$
