@<TRIPOS>MOLECULE
ZINC44736970_5565
65   69    1
SMALL
USER_CHARGES


@<TRIPOS>ATOM
      1 C1         -6.7390   52.1642   28.2685 C.3       1 UNK         0.0000 
      2 C2         -5.5996   51.9881   27.2825 C.ar      1 UNK         0.0000 
      3 C3         -5.5428   52.8107   26.1520 C.ar      1 UNK         0.0000 
      4 C4         -4.5103   52.7008   25.2189 C.ar      1 UNK         0.0000 
      5 C5         -3.5230   51.7316   25.4409 C.ar      1 UNK         0.0000 
      6 C6         -3.5908   50.9087   26.5922 C.ar      1 UNK         0.0000 
      7 C7         -4.6160   51.0229   27.5351 C.ar      1 UNK         0.0000 
      8 N8         -2.4866   50.0967   26.4817 N.pl3     1 UNK         0.0000 
      9 C9         -1.8272   50.4459   25.3238 C.ar      1 UNK         0.0000 
     10 N10        -2.4287   51.4240   24.6793 N.2       1 UNK         0.0000 
     11 C11        -0.5544   49.7292   24.8659 C.3       1 UNK         0.0000 
     12 H12        -0.8332   48.7178   24.5567 H         1 UNK         0.0000 
     13 C13         0.4686   49.5824   26.0089 C.3       1 UNK         0.0000 
     14 N14         0.0702   50.4123   23.7252 N.am      1 UNK         0.0000 
     15 C15        -0.1842   50.1812   22.4238 C.2       1 UNK         0.0000 
     16 O16        -0.8668   49.2345   22.0334 O.2       1 UNK         0.0000 
     17 C17         0.4961   51.1074   21.3797 C.3       1 UNK         0.0000 
     18 H18        -0.0839   51.0089   20.4635 H         1 UNK         0.0000 
     19 C19         0.5171   52.5850   21.7982 C.3       1 UNK         0.0000 
     20 N20         1.8149   52.7496   22.4706 N.am      1 UNK         0.0000 
     21 C21         2.7042   51.6144   22.2355 C.3       1 UNK         0.0000 
     22 C22         1.9935   50.7756   21.1520 C.3       1 UNK         0.0000 
     23 C23         2.4301   49.3003   21.2325 C.3       1 UNK         0.0000 
     24 C24         1.8652   48.4439   20.0819 C.3       1 UNK         0.0000 
     25 N25         2.3044   49.0570   18.7343 N.4       1 UNK         0.0000 
     26 C26         1.9507   50.5481   18.5773 C.3       1 UNK         0.0000 
     27 C27         2.5340   51.3036   19.7847 C.3       1 UNK         0.0000 
     28 C28         1.9975   53.7210   23.3927 C.2       1 UNK         0.0000 
     29 O29         1.1002   54.4967   23.6822 O.2       1 UNK         0.0000 
     30 C30         3.3034   53.8850   24.1207 C.ar      1 UNK         0.0000 
     31 C31         4.5199   54.0213   23.4380 C.ar      1 UNK         0.0000 
     32 C32         5.6905   54.3058   24.1443 C.ar      1 UNK         0.0000 
     33 C33         5.6534   54.4608   25.5323 C.ar      1 UNK         0.0000 
     34 C34         4.4457   54.3187   26.2215 C.ar      1 UNK         0.0000 
     35 C35         3.2810   54.0419   25.5127 C.ar      1 UNK         0.0000 
     36 Cl36        4.3571   54.4964   27.9404 Cl        1 UNK         0.0000 
     37 Cl37        7.1044   54.8447   26.3788 Cl        1 UNK         0.0000 
     38 H38        -6.4912   51.7530   29.2481 H         1 UNK         0.0000 
     39 H39        -6.9590   53.2222   28.4142 H         1 UNK         0.0000 
     40 H40        -7.6411   51.6784   27.8968 H         1 UNK         0.0000 
     41 H41        -6.3179   53.5459   25.9909 H         1 UNK         0.0000 
     42 H42        -4.4779   53.3371   24.3475 H         1 UNK         0.0000 
     43 H43        -4.6497   50.3874   28.4090 H         1 UNK         0.0000 
     44 H44         0.0535   49.0475   26.8655 H         1 UNK         0.0000 
     45 H45         1.3428   49.0177   25.6820 H         1 UNK         0.0000 
     46 H46         0.8031   50.5554   26.3700 H         1 UNK         0.0000 
     47 H47         0.5270   51.2845   23.9450 H         1 UNK         0.0000 
     48 H48         0.5019   53.1769   20.8815 H         1 UNK         0.0000 
     49 H49        -0.3603   52.8187   22.4069 H         1 UNK         0.0000 
     50 H50         2.7044   51.0262   23.1547 H         1 UNK         0.0000 
     51 H51         3.7501   51.8345   22.0192 H         1 UNK         0.0000 
     52 H52         3.5044   49.2967   21.2295 H         1 UNK         0.0000 
     53 H53         2.1655   48.8551   22.1925 H         1 UNK         0.0000 
     54 H54         2.2555   47.4264   20.0967 H         1 UNK         0.0000 
     55 H55         0.7743   48.4128   20.0704 H         1 UNK         0.0000 
     56 H56         3.3098   48.9807   18.6180 H         1 UNK         0.0000 
     57 H57         2.4147   50.8613   17.6389 H         1 UNK         0.0000 
     58 H58         0.8675   50.6187   18.4831 H         1 UNK         0.0000 
     59 H59         2.3214   52.3683   19.6692 H         1 UNK         0.0000 
     60 H60         3.6246   51.2452   19.7454 H         1 UNK         0.0000 
     61 H61         4.5609   53.9480   22.3598 H         1 UNK         0.0000 
     62 H62         6.6247   54.4241   23.6140 H         1 UNK         0.0000 
     63 H63         2.3485   53.9638   26.0549 H         1 UNK         0.0000 
     64 H64         1.9210   48.5357   17.9565 H         1 UNK         0.0000 
     65 H65        -2.1522   49.3805   27.1311 H         1 UNK         0.0000 
@<TRIPOS>BOND
     1    1    2 1    
     2    1   38 1    
     3    1   39 1    
     4    1   40 1    
     5    2    7 ar   
     6    2    3 ar   
     7    3    4 ar   
     8    3   41 1    
     9    4    5 ar   
    10    4   42 1    
    11    5   10 ar   
    12    5    6 ar   
    13    6    7 ar   
    14    6    8 ar   
    15    7   43 1    
    16    8    9 ar   
    17    8   65 1    
    18    9   10 ar   
    19    9   11 1    
    20   11   12 1    
    21   11   13 1    
    22   11   14 1    
    23   13   44 1    
    24   13   45 1    
    25   13   46 1    
    26   14   15 am   BACKBONE|DICT|INTERRES
    27   14   47 1    
    28   15   16 2    
    29   15   17 1    
    30   17   18 1    
    31   17   22 1    
    32   17   19 1    
    33   19   20 1    
    34   19   48 1    
    35   19   49 1    
    36   20   21 1    
    37   20   28 am   BACKBONE|DICT|INTERRES
    38   21   22 1    
    39   21   50 1    
    40   21   51 1    
    41   22   27 1    
    42   22   23 1    
    43   23   24 1    
    44   23   52 1    
    45   23   53 1    
    46   24   25 1    
    47   24   54 1    
    48   24   55 1    
    49   25   26 1    
    50   25   56 1    
    51   25   64 1    
    52   26   27 1    
    53   26   57 1    
    54   26   58 1    
    55   27   59 1    
    56   27   60 1    
    57   28   29 2    
    58   28   30 1    
    59   30   35 ar   
    60   30   31 ar   
    61   31   32 ar   
    62   31   61 1    
    63   32   33 ar   
    64   32   62 1    
    65   33   34 ar   
    66   33   37 1    
    67   34   35 ar   
    68   34   36 1    
    69   35   63 1    
@<TRIPOS>SUBSTRUCTURE
     1 UNK         1 GROUP             0       ****    0 ROOT    
