@<TRIPOS>MOLECULE
ZINC20116205_2615
51   53    1
SMALL
USER_CHARGES


@<TRIPOS>ATOM
      1 C1         -5.6298   46.6243   23.9104 C.ar      1 UNK         0.0000 
      2 C2         -5.9117   45.7616   24.9671 C.ar      1 UNK         0.0000 
      3 C3         -5.1087   45.7630   26.1149 C.ar      1 UNK         0.0000 
      4 C4         -4.0063   46.6270   26.1825 C.ar      1 UNK         0.0000 
      5 C5         -3.7107   47.4884   25.1215 C.ar      1 UNK         0.0000 
      6 C6         -4.5423   47.4896   23.9889 C.ar      1 UNK         0.0000 
      7 N7         -2.6130   48.3543   25.2841 N.am      1 UNK         0.0000 
      8 C8         -1.9325   49.0122   24.3161 C.2       1 UNK         0.0000 
      9 O9         -2.0694   48.7825   23.1111 O.2       1 UNK         0.0000 
     10 C10        -0.9571   50.0796   24.7714 C.ar      1 UNK         0.0000 
     11 C11        -0.0967   50.6612   23.8286 C.ar      1 UNK         0.0000 
     12 C12         0.8226   51.6275   24.2102 C.ar      1 UNK         0.0000 
     13 C13         0.8933   52.0368   25.5388 C.ar      1 UNK         0.0000 
     14 C14         0.0313   51.4838   26.4921 C.ar      1 UNK         0.0000 
     15 C15        -0.8901   50.5138   26.1075 C.ar      1 UNK         0.0000 
     16 N16         1.9476   52.8976   25.8457 N.am      1 UNK         0.0000 
     17 C17         2.1432   53.6807   26.9245 C.2       1 UNK         0.0000 
     18 O18         1.2856   53.8860   27.7830 O.2       1 UNK         0.0000 
     19 C19         3.5622   54.3036   27.0837 C.3       1 UNK         0.0000 
     20 H20         3.3871   55.2964   27.5000 H         1 UNK         0.0000 
     21 C21         4.2473   54.4947   25.6845 C.3       1 UNK         0.0000 
     22 C22         5.6899   55.0399   25.7866 C.3       1 UNK         0.0000 
     23 C23         6.5547   54.2957   26.8254 C.3       1 UNK         0.0000 
     24 C24         5.8428   54.2040   28.1842 C.3       1 UNK         0.0000 
     25 C25         4.4942   53.4658   28.0268 C.3       1 UNK         0.0000 
     26 H26         4.6558   52.4953   27.5685 H         1 UNK         0.0000 
     27 C27         3.8993   53.2211   29.4379 C.2       1 UNK         0.0000 
     28 O28         3.9044   52.0482   29.8755 O.co2     1 UNK         0.0000 
     29 O29         3.5033   54.2207   30.0816 O.co2     1 UNK         0.0000 
     30 C30        -5.4615   44.8482   27.2818 C.3       1 UNK         0.0000 
     31 F31        -4.9875   43.6295   27.0305 F         1 UNK         0.0000 
     32 F32        -6.7828   44.7674   27.4430 F         1 UNK         0.0000 
     33 F33        -4.9389   45.3000   28.4240 F         1 UNK         0.0000 
     34 H34        -6.2637   46.6366   23.0359 H         1 UNK         0.0000 
     35 H35        -6.7678   45.1051   24.8979 H         1 UNK         0.0000 
     36 H36        -3.3815   46.6368   27.0673 H         1 UNK         0.0000 
     37 H37        -4.3761   48.1663   23.1663 H         1 UNK         0.0000 
     38 H38        -2.2962   48.4966   26.2371 H         1 UNK         0.0000 
     39 H39        -0.1177   50.3528   22.7936 H         1 UNK         0.0000 
     40 H40         1.4930   52.0342   23.4684 H         1 UNK         0.0000 
     41 H41         0.0939   51.7514   27.5377 H         1 UNK         0.0000 
     42 H42        -1.5278   50.0976   26.8757 H         1 UNK         0.0000 
     43 H43         2.6796   52.9320   25.1548 H         1 UNK         0.0000 
     44 H44         4.3750   53.5311   25.1852 H         1 UNK         0.0000 
     45 H45         3.6862   55.1890   25.0585 H         1 UNK         0.0000 
     46 H46         5.6600   56.0953   26.0395 H         1 UNK         0.0000 
     47 H47         6.1714   54.9897   24.8081 H         1 UNK         0.0000 
     48 H48         7.5044   54.8119   26.9520 H         1 UNK         0.0000 
     49 H49         6.7934   53.2959   26.4585 H         1 UNK         0.0000 
     50 H50         5.6976   55.2171   28.5667 H         1 UNK         0.0000 
     51 H51         6.4979   53.6820   28.8815 H         1 UNK         0.0000 
@<TRIPOS>BOND
     1    1    6 ar   
     2    1    2 ar   
     3    1   34 1    
     4    2    3 ar   
     5    2   35 1    
     6    3    4 ar   
     7    3   30 1    
     8    4    5 ar   
     9    4   36 1    
    10    5    6 ar   
    11    5    7 1    
    12    6   37 1    
    13    7    8 am   BACKBONE|DICT|INTERRES
    14    7   38 1    
    15    8    9 2    
    16    8   10 1    
    17   10   15 ar   
    18   10   11 ar   
    19   11   12 ar   
    20   11   39 1    
    21   12   13 ar   
    22   12   40 1    
    23   13   14 ar   
    24   13   16 1    
    25   14   15 ar   
    26   14   41 1    
    27   15   42 1    
    28   16   17 am   BACKBONE|DICT|INTERRES
    29   16   43 1    
    30   17   18 2    
    31   17   19 1    
    32   19   20 1    
    33   19   25 1    
    34   19   21 1    
    35   21   22 1    
    36   21   44 1    
    37   21   45 1    
    38   22   23 1    
    39   22   46 1    
    40   22   47 1    
    41   23   24 1    
    42   23   48 1    
    43   23   49 1    
    44   24   25 1    
    45   24   50 1    
    46   24   51 1    
    47   25   26 1    
    48   25   27 1    
    49   27   28 2    
    50   27   29 1    
    51   30   31 1    
    52   30   32 1    
    53   30   33 1    
@<TRIPOS>SUBSTRUCTURE
     1 UNK         1 GROUP             0       ****    0 ROOT    
