@<TRIPOS>MOLECULE
ZINC39684593_286
71   74    1
SMALL
USER_CHARGES


@<TRIPOS>ATOM
      1 C1          2.3112   52.2835   28.5849 C.3       1 UNK         0.0000 
      2 C2          2.7476   53.4855   27.7071 C.3       1 UNK         0.0000 
      3 H3          2.0679   54.2993   27.9724 H         1 UNK         0.0000 
      4 C4          4.2064   54.0286   27.9924 C.3       1 UNK         0.0000 
      5 C5          4.7491   54.8969   26.8196 C.3       1 UNK         0.0000 
      6 C6          5.2434   52.8978   28.1766 C.3       1 UNK         0.0000 
      7 C7          4.1976   54.8824   29.2820 C.3       1 UNK         0.0000 
      8 N8          2.4865   53.3054   26.2747 N.am      1 UNK         0.0000 
      9 C9          1.3717   52.8967   25.6384 C.2       1 UNK         0.0000 
     10 O10         0.3755   52.4967   26.2388 O.2       1 UNK         0.0000 
     11 C11         1.3058   53.0341   24.0856 C.3       1 UNK         0.0000 
     12 H12         0.6752   53.9032   23.8927 H         1 UNK         0.0000 
     13 C13         2.7040   53.3768   23.5118 C.3       1 UNK         0.0000 
     14 N14         2.7515   52.7175   22.2109 N.am      1 UNK         0.0000 
     15 C15         1.5235   51.9642   21.9415 C.3       1 UNK         0.0000 
     16 C16         0.8134   51.7780   23.3057 C.3       1 UNK         0.0000 
     17 C17         1.2262   50.4234   23.9642 C.3       1 UNK         0.0000 
     18 C18         0.8266   49.1934   23.1289 C.3       1 UNK         0.0000 
     19 N19        -0.6964   49.2399   22.8752 N.4       1 UNK         0.0000 
     20 C20        -1.2004   50.5768   22.2866 C.3       1 UNK         0.0000 
     21 C21        -0.7320   51.7153   23.2149 C.3       1 UNK         0.0000 
     22 C22         3.7225   52.8715   21.2658 C.2       1 UNK         0.0000 
     23 O23         3.6386   52.3038   20.1778 O.2       1 UNK         0.0000 
     24 C24         4.9222   53.7719   21.5436 C.ar      1 UNK         0.0000 
     25 C25         5.6227   53.6635   22.7594 C.ar      1 UNK         0.0000 
     26 C26         6.7043   54.4927   23.0431 C.ar      1 UNK         0.0000 
     27 C27         7.0957   55.4138   22.0819 C.ar      1 UNK         0.0000 
     28 N28         6.4784   55.5219   20.8846 N.ar      1 UNK         0.0000 
     29 C29         5.4263   54.7050   20.5970 C.ar      1 UNK         0.0000 
     30 S30         4.7044   54.8965   18.9645 S.3       1 UNK         0.0000 
     31 C31         5.7023   56.0990   18.1226 C.ar      1 UNK         0.0000 
     32 C32         5.1122   57.2841   17.6817 C.ar      1 UNK         0.0000 
     33 C33         5.8886   58.2496   17.0447 C.ar      1 UNK         0.0000 
     34 C34         7.2455   58.0139   16.8360 C.ar      1 UNK         0.0000 
     35 C35         7.8325   56.8176   17.2482 C.ar      1 UNK         0.0000 
     36 C36         7.0574   55.8537   17.8881 C.ar      1 UNK         0.0000 
     37 H37         2.6566   52.3962   29.6114 H         1 UNK         0.0000 
     38 H38         1.2257   52.2053   28.6509 H         1 UNK         0.0000 
     39 H39         2.7038   51.3392   28.2103 H         1 UNK         0.0000 
     40 H40         4.0290   55.6413   26.4815 H         1 UNK         0.0000 
     41 H41         5.6710   55.4124   27.0940 H         1 UNK         0.0000 
     42 H42         4.9916   54.2949   25.9424 H         1 UNK         0.0000 
     43 H43         4.9511   52.1552   28.9189 H         1 UNK         0.0000 
     44 H44         5.4127   52.3924   27.2309 H         1 UNK         0.0000 
     45 H45         6.2117   53.2925   28.4896 H         1 UNK         0.0000 
     46 H46         3.9060   54.2934   30.1497 H         1 UNK         0.0000 
     47 H47         5.1841   55.2969   29.4972 H         1 UNK         0.0000 
     48 H48         3.5008   55.7172   29.2099 H         1 UNK         0.0000 
     49 H49         3.2410   53.6290   25.6919 H         1 UNK         0.0000 
     50 H50         2.8347   54.4583   23.4292 H         1 UNK         0.0000 
     51 H51         3.4742   52.8968   24.1069 H         1 UNK         0.0000 
     52 H52         1.6432   51.0557   21.3532 H         1 UNK         0.0000 
     53 H53         0.9096   52.6234   21.3249 H         1 UNK         0.0000 
     54 H54         0.8233   50.3126   24.9724 H         1 UNK         0.0000 
     55 H55         2.3056   50.3960   24.0814 H         1 UNK         0.0000 
     56 H56         1.0098   48.2720   23.6820 H         1 UNK         0.0000 
     57 H57         1.3221   49.1285   22.1593 H         1 UNK         0.0000 
     58 H58        -1.1638   49.0862   23.7596 H         1 UNK         0.0000 
     59 H59        -2.2874   50.4986   22.2398 H         1 UNK         0.0000 
     60 H60        -0.8036   50.6501   21.2723 H         1 UNK         0.0000 
     61 H61        -1.1043   52.6507   22.7957 H         1 UNK         0.0000 
     62 H62        -1.1899   51.6441   24.2042 H         1 UNK         0.0000 
     63 H63         5.3780   52.9031   23.4826 H         1 UNK         0.0000 
     64 H64         7.2434   54.4051   23.9754 H         1 UNK         0.0000 
     65 H65         7.9343   56.0717   22.2576 H         1 UNK         0.0000 
     66 H66         4.0589   57.4627   17.8420 H         1 UNK         0.0000 
     67 H67         5.4447   59.1828   16.7230 H         1 UNK         0.0000 
     68 H68         7.8444   58.7686   16.3478 H         1 UNK         0.0000 
     69 H69         8.8838   56.6405   17.0758 H         1 UNK         0.0000 
     70 H70         7.5086   54.9275   18.2138 H         1 UNK         0.0000 
     71 H71        -0.9678   48.4752   22.2715 H         1 UNK         0.0000 
@<TRIPOS>BOND
     1    1    2 1    
     2    1   37 1    
     3    1   38 1    
     4    1   39 1    
     5    2    3 1    
     6    2    4 1    
     7    2    8 1    
     8    4    5 1    
     9    4    6 1    
    10    4    7 1    
    11    5   40 1    
    12    5   41 1    
    13    5   42 1    
    14    6   43 1    
    15    6   44 1    
    16    6   45 1    
    17    7   46 1    
    18    7   47 1    
    19    7   48 1    
    20    8    9 am   BACKBONE|DICT|INTERRES
    21    8   49 1    
    22    9   10 2    
    23    9   11 1    
    24   11   12 1    
    25   11   16 1    
    26   11   13 1    
    27   13   14 1    
    28   13   50 1    
    29   13   51 1    
    30   14   15 1    
    31   14   22 am   BACKBONE|DICT|INTERRES
    32   15   16 1    
    33   15   52 1    
    34   15   53 1    
    35   16   21 1    
    36   16   17 1    
    37   17   18 1    
    38   17   54 1    
    39   17   55 1    
    40   18   19 1    
    41   18   56 1    
    42   18   57 1    
    43   19   20 1    
    44   19   58 1    
    45   19   71 1    
    46   20   21 1    
    47   20   59 1    
    48   20   60 1    
    49   21   61 1    
    50   21   62 1    
    51   22   23 2    
    52   22   24 1    
    53   24   29 ar   
    54   24   25 ar   
    55   25   26 ar   
    56   25   63 1    
    57   26   27 ar   
    58   26   64 1    
    59   27   28 ar   
    60   27   65 1    
    61   28   29 ar   
    62   29   30 1    
    63   30   31 1    
    64   31   36 ar   
    65   31   32 ar   
    66   32   33 ar   
    67   32   66 1    
    68   33   34 ar   
    69   33   67 1    
    70   34   35 ar   
    71   34   68 1    
    72   35   36 ar   
    73   35   69 1    
    74   36   70 1    
@<TRIPOS>SUBSTRUCTURE
     1 UNK         1 GROUP             0       ****    0 ROOT    
