@<TRIPOS>MOLECULE
ZINC09019127_5427
57   62    1
SMALL
USER_CHARGES


@<TRIPOS>ATOM
      1 C1         -6.0718   51.3422   26.4298 C.ar      1 UNK         0.0000 
      2 C2         -5.3296   50.7426   27.4459 C.ar      1 UNK         0.0000 
      3 C3         -3.9353   50.7421   27.3808 C.ar      1 UNK         0.0000 
      4 C4         -3.2664   51.3418   26.3071 C.ar      1 UNK         0.0000 
      5 C5         -4.0255   51.9142   25.2753 C.ar      1 UNK         0.0000 
      6 C6         -5.4215   51.9301   25.3452 C.ar      1 UNK         0.0000 
      7 C7         -3.3327   52.5280   24.1430 C.2       1 UNK         0.0000 
      8 C8         -2.0118   52.7704   24.1219 C.2       1 UNK         0.0000 
      9 C9         -1.7334   51.3305   26.2101 C.3       1 UNK         0.0000 
     10 H10        -1.3581   51.5785   27.2071 H         1 UNK         0.0000 
     11 C11        -1.0105   50.0592   25.6866 C.3       1 UNK         0.0000 
     12 H12        -0.8895   49.3210   26.4813 H         1 UNK         0.0000 
     13 C13         0.3108   50.5208   25.1522 C.3       1 UNK         0.0000 
     14 H14         1.1038   50.0683   25.7459 H         1 UNK         0.0000 
     15 C15         0.3238   52.0844   25.2698 C.3       1 UNK         0.0000 
     16 H16         0.6821   52.3658   26.2629 H         1 UNK         0.0000 
     17 C17         1.1970   52.9040   24.2658 C.2       1 UNK         0.0000 
     18 O18         0.7397   53.2932   23.1986 O.2       1 UNK         0.0000 
     19 N19         2.4720   53.1376   24.6566 N.am      1 UNK         0.0000 
     20 C20         3.5440   53.6981   23.9255 C.ar      1 UNK         0.0000 
     21 C21         3.5926   53.7540   22.5222 C.ar      1 UNK         0.0000 
     22 C22         4.7411   54.2146   21.8813 C.ar      1 UNK         0.0000 
     23 C23         5.8455   54.6164   22.6318 C.ar      1 UNK         0.0000 
     24 C24         5.8123   54.5460   24.0223 C.ar      1 UNK         0.0000 
     25 C25         4.6613   54.0962   24.6660 C.ar      1 UNK         0.0000 
     26 Cl26        7.2279   55.2847   21.8416 Cl        1 UNK         0.0000 
     27 C27         0.3795   49.9250   23.7467 C.2       1 UNK         0.0000 
     28 O28         1.3838   49.9956   23.0388 O.2       1 UNK         0.0000 
     29 N29        -0.7882   49.2666   23.4779 N.am      1 UNK         0.0000 
     30 C30        -1.6749   49.3401   24.5139 C.2       1 UNK         0.0000 
     31 O31        -2.8120   48.8690   24.5588 O.2       1 UNK         0.0000 
     32 C32        -1.0376   48.5530   22.2635 C.ar      1 UNK         0.0000 
     33 C33        -0.6093   49.0602   21.0257 C.ar      1 UNK         0.0000 
     34 C34        -0.7984   48.3324   19.8532 C.ar      1 UNK         0.0000 
     35 C35        -1.4231   47.0781   19.8872 C.ar      1 UNK         0.0000 
     36 C36        -1.8760   46.5819   21.1152 C.ar      1 UNK         0.0000 
     37 C37        -1.6895   47.3089   22.2863 C.ar      1 UNK         0.0000 
     38 N38        -1.5954   46.2826   18.6446 N.pl3     1 UNK         0.0000 
     39 O39        -1.2710   46.7891   17.5759 O.co2     1 UNK         0.0000 
     40 O40        -2.0506   45.1455   18.7384 O.co2     1 UNK         0.0000 
     41 H41        -7.1520   51.3435   26.4732 H         1 UNK         0.0000 
     42 H42        -5.8257   50.2690   28.2808 H         1 UNK         0.0000 
     43 H43        -3.3687   50.2574   28.1648 H         1 UNK         0.0000 
     44 H44        -6.0072   52.3843   24.5578 H         1 UNK         0.0000 
     45 H45        -3.9137   52.8194   23.2827 H         1 UNK         0.0000 
     46 H46        -1.5601   53.2873   23.2912 H         1 UNK         0.0000 
     47 H47         2.7191   52.8615   25.5950 H         1 UNK         0.0000 
     48 H48         2.7672   53.4253   21.9090 H         1 UNK         0.0000 
     49 H49         4.7681   54.2694   20.8029 H         1 UNK         0.0000 
     50 H50         6.6746   54.8581   24.5929 H         1 UNK         0.0000 
     51 H51         4.6546   54.0348   25.7455 H         1 UNK         0.0000 
     52 H52        -0.1090   50.0169   20.9642 H         1 UNK         0.0000 
     53 H53        -0.4403   48.7473   18.9196 H         1 UNK         0.0000 
     54 H54        -2.3681   45.6215   21.1764 H         1 UNK         0.0000 
     55 H55        -2.0305   46.8764   23.2162 H         1 UNK         0.0000 
     56 N56        -1.1803   52.4946   25.3250 N.4       1 UNK         0.0000 
     57 H57        -1.2271   53.3374   25.8780 H         1 UNK         0.0000 
@<TRIPOS>BOND
     1    1    6 ar   
     2    1    2 ar   
     3    1   41 1    
     4    2    3 ar   
     5    2   42 1    
     6    3    4 ar   
     7    3   43 1    
     8    4    9 1    
     9    4    5 ar   
    10    5    6 ar   
    11    5    7 1    
    12    6   44 1    
    13    7    8 2    
    14    7   45 1    
    15    8   46 1    
    16    8   56 1    
    17    9   10 1    
    18    9   11 1    
    19    9   56 1    
    20   11   12 1    
    21   11   30 1    
    22   11   13 1    
    23   13   14 1    
    24   13   15 1    
    25   13   27 1    
    26   15   16 1    
    27   15   17 1    
    28   15   56 1    
    29   17   18 2    
    30   17   19 am   BACKBONE|DICT|INTERRES
    31   19   20 1    
    32   19   47 1    
    33   20   25 ar   
    34   20   21 ar   
    35   21   22 ar   
    36   21   48 1    
    37   22   23 ar   
    38   22   49 1    
    39   23   24 ar   
    40   23   26 1    
    41   24   25 ar   
    42   24   50 1    
    43   25   51 1    
    44   27   28 2    
    45   27   29 am   BACKBONE|DICT|INTERRES
    46   29   30 am   BACKBONE|DICT|INTERRES
    47   29   32 1    
    48   30   31 2    
    49   32   37 ar   
    50   32   33 ar   
    51   33   34 ar   
    52   33   52 1    
    53   34   35 ar   
    54   34   53 1    
    55   35   36 ar   
    56   35   38 1    
    57   36   37 ar   
    58   36   54 1    
    59   37   55 1    
    60   38   39 2    
    61   38   40 1    
    62   56   57 1    
@<TRIPOS>SUBSTRUCTURE
     1 UNK         1 GROUP             0       ****    0 ROOT    
