ZINC24578354_1474
                    3D
 Schrodinger Suite 2024-2.
 52 55  0  0  1  0            999 V2000
    3.8310   53.3118   30.2864 C   0  0  0  0  0  0
    4.0716   53.5989   28.8209 C   0  0  0  0  0  0
    3.0428   53.4567   27.8918 C   0  0  0  0  0  0
    3.2857   53.7068   26.5442 C   0  0  0  0  0  0
    4.5616   54.0960   26.0983 C   0  0  0  0  0  0
    5.5726   54.2650   27.0649 C   0  0  0  0  0  0
    5.3310   54.0209   28.4098 C   0  0  0  0  0  0
    4.7825   54.2841   24.6964 N   0  0  0  0  0  0
    3.6926   54.3469   23.7081 C   0  0  0  0  0  0
    4.3121   54.3456   22.3178 C   0  0  1  0  0  0
    3.8538   55.0955   21.6797 H   0  0  0  0  0  0
    5.7672   54.6953   22.6005 C   0  0  0  0  0  0
    5.9909   54.4977   24.0954 C   0  0  0  0  0  0
    7.1047   54.5272   24.6038 O   0  0  0  0  0  0
    4.1556   52.9746   21.6155 C   0  0  0  0  0  0
    5.0422   52.1186   21.6812 O   0  0  0  0  0  0
    2.9864   52.7961   20.9623 N   0  0  0  0  0  0
    2.8301   51.7073   20.0949 N   0  0  0  0  0  0
    2.2833   50.5459   20.5202 C   0  0  0  0  0  0
    2.1941   50.1190   21.6744 O   0  0  0  0  0  0
    1.7698   49.8566   19.2633 C   0  0  0  0  0  0
    2.4363   48.4559   19.1361 C   0  0  0  0  0  0
    1.8659   47.6356   17.9559 C   0  0  0  0  0  0
    0.3305   47.5137   18.0323 C   0  0  0  0  0  0
   -0.3559   48.8873   18.1921 C   0  0  0  0  0  0
    0.2298   49.6619   19.3913 C   0  0  0  0  0  0
    2.1779   50.8019   18.2631 N   0  0  0  0  0  0
    2.7028   51.9269   18.7609 C   0  0  0  0  0  0
    2.9283   52.9613   18.1353 O   0  0  0  0  0  0
    2.7663   53.2983   30.5221 H   0  0  0  0  0  0
    4.2794   52.3569   30.5645 H   0  0  0  0  0  0
    4.3035   54.0930   30.8822 H   0  0  0  0  0  0
    2.0592   53.1384   28.2072 H   0  0  0  0  0  0
    2.4624   53.5668   25.8616 H   0  0  0  0  0  0
    6.5700   54.5905   26.8265 H   0  0  0  0  0  0
    6.1294   54.1584   29.1253 H   0  0  0  0  0  0
    3.1692   55.2947   23.8582 H   0  0  0  0  0  0
    2.9238   53.5815   23.8143 H   0  0  0  0  0  0
    6.4913   54.0614   22.0929 H   0  0  0  0  0  0
    6.0293   55.6964   22.2765 H   0  0  0  0  0  0
    2.2927   53.5187   20.8149 H   0  0  0  0  0  0
    2.4007   47.9024   20.0770 H   0  0  0  0  0  0
    3.5031   48.5837   18.9390 H   0  0  0  0  0  0
    2.3124   46.6400   17.9422 H   0  0  0  0  0  0
    2.1458   48.1025   17.0096 H   0  0  0  0  0  0
    0.0653   46.8789   18.8792 H   0  0  0  0  0  0
   -0.0464   47.0071   17.1432 H   0  0  0  0  0  0
   -1.4292   48.7475   18.3262 H   0  0  0  0  0  0
   -0.2369   49.4702   17.2759 H   0  0  0  0  0  0
   -0.2532   50.6421   19.4195 H   0  0  0  0  0  0
   -0.0428   49.2039   20.3445 H   0  0  0  0  0  0
    2.3542   50.4928   17.3164 H   0  0  0  0  0  0
  1  2  1  0  0  0
  1 30  1  0  0  0
  1 31  1  0  0  0
  1 32  1  0  0  0
  2  7  2  0  0  0
  2  3  1  0  0  0
  3  4  2  0  0  0
  3 33  1  0  0  0
  4  5  1  0  0  0
  4 34  1  0  0  0
  5  6  2  0  0  0
  5  8  1  0  0  0
  6  7  1  0  0  0
  6 35  1  0  0  0
  7 36  1  0  0  0
  8 13  1  0  0  0
  8  9  1  0  0  0
  9 10  1  0  0  0
  9 37  1  0  0  0
  9 38  1  0  0  0
 10 11  1  0  0  0
 10 12  1  0  0  0
 10 15  1  0  0  0
 12 13  1  0  0  0
 12 39  1  0  0  0
 12 40  1  0  0  0
 13 14  2  0  0  0
 15 16  2  0  0  0
 15 17  1  0  0  0
 17 18  1  0  0  0
 17 41  1  0  0  0
 18 28  1  0  0  0
 18 19  1  0  0  0
 19 20  2  0  0  0
 19 21  1  0  0  0
 21 26  1  0  0  0
 21 22  1  0  0  0
 21 27  1  0  0  0
 22 23  1  0  0  0
 22 42  1  0  0  0
 22 43  1  0  0  0
 23 24  1  0  0  0
 23 44  1  0  0  0
 23 45  1  0  0  0
 24 25  1  0  0  0
 24 46  1  0  0  0
 24 47  1  0  0  0
 25 26  1  0  0  0
 25 48  1  0  0  0
 25 49  1  0  0  0
 26 50  1  0  0  0
 26 51  1  0  0  0
 27 28  1  0  0  0
 27 52  1  0  0  0
 28 29  2  0  0  0
M  END
> <i_i_glide_confnum>
7

> <i_i_glide_lignum>
1475

> <i_i_glide_posenum>
331

> <i_i_glide_rotatable_bonds>
4

> <i_m_Source_File_Index>
5154

> <b_m_subgroup_collapsed>
0

> <r_i_docking_score>
-6.05349

> <r_i_glide_ecoul>
-2.91572

> <r_i_glide_eff_state_penalty>
0

> <r_i_glide_einternal>
2.76058

> <r_i_glide_emodel>
-55.1126

> <r_i_glide_energy>
-41.9555

> <r_i_glide_erotb>
0.526235

> <r_i_glide_esite>
-0.207003

> <r_i_glide_evdw>
-39.0398

> <r_i_glide_gscore>
-6.05349

> <r_i_glide_hbond>
-0.312191

> <r_i_glide_ligand_efficiency>
-0.216196

> <r_i_glide_ligand_efficiency_ln>
-1.39732

> <r_i_glide_ligand_efficiency_sa>
-0.656499

> <r_i_glide_lipo>
-1.91251

> <r_i_glide_metal>
0

> <r_i_glide_rewards>
-1.75868

> <s_i_glide_gridfile>
wee1_glide-grid

> <s_m_Source_File>
wee1_decoys_glide_SP.sdf

> <s_m_Source_Path>
/Users/zhangxujun/Desktop

> <s_m_entry_id>
5429

> <s_m_entry_name>
wee1_decoys_glide_SP.5154

> <s_m_subgroup_title>
wee1_decoys_glide_SP

> <s_m_subgroupid>
wee1_decoys_glide_SP


$$$$
