@<TRIPOS>MOLECULE
ZINC39243237_2065
52   55    1
SMALL
USER_CHARGES


@<TRIPOS>ATOM
      1 C1          1.5130   56.1064   29.8923 C.3       1 UNK         0.0000 
      2 C2          0.9919   54.6877   29.7373 C.ar      1 UNK         0.0000 
      3 C3          0.6335   53.9348   30.8571 C.ar      1 UNK         0.0000 
      4 C4          0.1593   52.6350   30.7050 C.ar      1 UNK         0.0000 
      5 C5         -0.0254   52.1001   29.4312 C.ar      1 UNK         0.0000 
      6 C6          0.3001   52.8547   28.2978 C.ar      1 UNK         0.0000 
      7 C7          0.8421   54.1346   28.4622 C.ar      1 UNK         0.0000 
      8 C8          0.0185   52.3016   26.9053 C.3       1 UNK         0.0000 
      9 O9          1.2057   52.3108   26.1133 O.3       1 UNK         0.0000 
     10 C10         1.0767   51.8736   24.8079 C.ar      1 UNK         0.0000 
     11 C11         0.7047   50.5506   24.5026 C.ar      1 UNK         0.0000 
     12 C12         0.6333   50.1438   23.1589 C.ar      1 UNK         0.0000 
     13 C13         0.9034   51.0453   22.1267 C.ar      1 UNK         0.0000 
     14 C14         1.2541   52.3567   22.4427 C.ar      1 UNK         0.0000 
     15 C15         1.3643   52.7581   23.7659 C.ar      1 UNK         0.0000 
     16 Br16        1.9638   54.5240   24.0930 Br        1 UNK         0.0000 
     17 C17         0.8178   50.6194   20.6616 C.3       1 UNK         0.0000 
     18 H18         0.8839   49.5298   20.6395 H         1 UNK         0.0000 
     19 C19         1.9703   51.1364   19.7825 C.2       1 UNK         0.0000 
     20 C20         1.7718   51.5925   18.5235 C.2       1 UNK         0.0000 
     21 O21         0.5750   51.6777   17.8711 O.3       1 UNK         0.0000 
     22 C22        -0.5273   50.9967   18.4940 C.3       1 UNK         0.0000 
     23 H23        -0.5209   49.9746   18.1131 H         1 UNK         0.0000 
     24 C24        -0.4795   51.0584   19.9899 C.2       1 UNK         0.0000 
     25 C25        -1.6652   51.5570   20.3656 C.2       1 UNK         0.0000 
     26 N26        -2.4047   51.8734   19.2747 N.2       1 UNK         0.0000 
     27 N27        -1.7915   51.5973   18.1920 N.2       1 UNK         0.0000 
     28 C28        -2.2887   51.8268   21.7214 C.3       1 UNK         0.0000 
     29 N29         2.7326   52.0842   17.6824 N.pl3     1 UNK         0.0000 
     30 C30         3.2760   51.2105   20.3617 C.1       1 UNK         0.0000 
     31 N31         4.3050   51.3170   20.8815 N.1       1 UNK         0.0000 
     32 O32         0.4662   49.7009   25.5592 O.3       1 UNK         0.0000 
     33 C33        -0.1882   48.4672   25.3362 C.3       1 UNK         0.0000 
     34 H34         0.7192   56.8264   29.6895 H         1 UNK         0.0000 
     35 H35         1.9039   56.2885   30.8925 H         1 UNK         0.0000 
     36 H36         2.3298   56.2947   29.1936 H         1 UNK         0.0000 
     37 H37         0.7050   54.3513   31.8531 H         1 UNK         0.0000 
     38 H38        -0.0955   52.0537   31.5809 H         1 UNK         0.0000 
     39 H39        -0.4411   51.1063   29.3319 H         1 UNK         0.0000 
     40 H40         1.1051   54.7176   27.5929 H         1 UNK         0.0000 
     41 H41        -0.3976   51.3013   27.0105 H         1 UNK         0.0000 
     42 H42        -0.7645   52.8960   26.4335 H         1 UNK         0.0000 
     43 H43         0.3748   49.1253   22.9087 H         1 UNK         0.0000 
     44 H44         1.4757   53.0675   21.6582 H         1 UNK         0.0000 
     45 H45        -2.3818   52.8965   21.9071 H         1 UNK         0.0000 
     46 H46        -3.2764   51.3663   21.7807 H         1 UNK         0.0000 
     47 H47        -1.6996   51.4046   22.5310 H         1 UNK         0.0000 
     48 H48         3.7035   51.8794   17.8955 H         1 UNK         0.0000 
     49 H49         2.5221   52.1723   16.6992 H         1 UNK         0.0000 
     50 H50        -1.0881   48.5753   24.7269 H         1 UNK         0.0000 
     51 H51         0.4785   47.7371   24.8766 H         1 UNK         0.0000 
     52 H52        -0.4963   48.0923   26.3093 H         1 UNK         0.0000 
@<TRIPOS>BOND
     1    1    2 1    
     2    1   34 1    
     3    1   35 1    
     4    1   36 1    
     5    2    7 ar   
     6    2    3 ar   
     7    3    4 ar   
     8    3   37 1    
     9    4    5 ar   
    10    4   38 1    
    11    5    6 ar   
    12    5   39 1    
    13    6    7 ar   
    14    6    8 1    
    15    7   40 1    
    16    8    9 1    
    17    8   41 1    
    18    8   42 1    
    19    9   10 1    
    20   10   15 ar   
    21   10   11 ar   
    22   11   12 ar   
    23   11   32 1    
    24   12   13 ar   
    25   12   43 1    
    26   13   14 ar   
    27   13   17 1    
    28   14   15 ar   
    29   14   44 1    
    30   15   16 1    
    31   17   18 1    
    32   17   24 1    
    33   17   19 1    
    34   19   20 2    
    35   19   30 1    
    36   20   21 1    
    37   20   29 1    
    38   21   22 1    
    39   22   23 1    
    40   22   27 1    
    41   22   24 1    
    42   24   25 2    
    43   25   26 1    
    44   25   28 1    
    45   26   27 2    
    46   28   45 1    
    47   28   46 1    
    48   28   47 1    
    49   29   48 1    
    50   29   49 1    
    51   30   31 3    
    52   32   33 1    
    53   33   50 1    
    54   33   51 1    
    55   33   52 1    
@<TRIPOS>SUBSTRUCTURE
     1 UNK         1 GROUP             0       ****    0 ROOT    
