@<TRIPOS>MOLECULE
ZINC13246132_5885
56   60    1
SMALL
USER_CHARGES


@<TRIPOS>ATOM
      1 C1         -4.8800   52.2812   24.4829 C.3       1 UNK         0.0000 
      2 C2         -3.5742   53.0955   24.5020 C.3       1 UNK         0.0000 
      3 N3         -2.3566   52.2557   24.3797 N.pl3     1 UNK         0.0000 
      4 C4         -1.9233   52.0484   23.0690 C.ar      1 UNK         0.0000 
      5 O5         -2.4955   52.4967   22.0797 O.2       1 UNK         0.0000 
      6 C6         -0.7217   51.2318   23.0113 C.ar      1 UNK         0.0000 
      7 C7          0.0428   50.8527   21.8839 C.2       1 UNK         0.0000 
      8 C8          1.1026   50.0105   22.2495 C.2       1 UNK         0.0000 
      9 S9          1.1201   49.6976   23.9537 S.3       1 UNK         0.0000 
     10 C10        -0.2220   50.7261   24.1963 C.ar      1 UNK         0.0000 
     11 N11        -0.7124   50.9732   25.4329 N.2       1 UNK         0.0000 
     12 C12        -1.7532   51.7242   25.5277 C.ar      1 UNK         0.0000 
     13 S13        -2.3639   52.0866   27.2003 S.3       1 UNK         0.0000 
     14 C14        -0.9672   51.6141   28.2867 C.3       1 UNK         0.0000 
     15 C15         0.1942   52.6141   28.2259 C.2       1 UNK         0.0000 
     16 O16         0.1130   53.6921   28.8164 O.2       1 UNK         0.0000 
     17 N17         1.2426   52.2383   27.4720 N.am      1 UNK         0.0000 
     18 C18         2.4101   52.9782   27.2222 C.ar      1 UNK         0.0000 
     19 C19         2.6335   53.3038   25.8820 C.ar      1 UNK         0.0000 
     20 C20         3.8645   53.8667   25.4671 C.ar      1 UNK         0.0000 
     21 C21         4.1648   54.0826   24.0989 C.ar      1 UNK         0.0000 
     22 C22         5.4378   54.4965   23.7175 C.ar      1 UNK         0.0000 
     23 C23         6.4016   54.8020   24.6739 C.ar      1 UNK         0.0000 
     24 C24         6.1186   54.6573   26.0295 C.ar      1 UNK         0.0000 
     25 C25         4.8581   54.1606   26.4460 C.ar      1 UNK         0.0000 
     26 C26         4.5781   53.9030   27.8054 C.ar      1 UNK         0.0000 
     27 C27         3.3894   53.2754   28.1979 C.ar      1 UNK         0.0000 
     28 C28         3.2608   52.8854   29.6336 C.2       1 UNK         0.0000 
     29 O29         3.5077   53.7671   30.4817 O.co2     1 UNK         0.0000 
     30 C30         2.0963   49.3807   21.2846 C.3       1 UNK         0.0000 
     31 C31         2.0559   50.1486   19.9473 C.3       1 UNK         0.0000 
     32 C32         0.6111   50.3652   19.4622 C.3       1 UNK         0.0000 
     33 C33        -0.2148   51.2487   20.4265 C.3       1 UNK         0.0000 
     34 H34        -5.7445   52.9427   24.5456 H         1 UNK         0.0000 
     35 H35        -4.9806   51.7022   23.5638 H         1 UNK         0.0000 
     36 H36        -4.9345   51.5944   25.3283 H         1 UNK         0.0000 
     37 H37        -3.5364   53.6846   25.4192 H         1 UNK         0.0000 
     38 H38        -3.6135   53.8546   23.7174 H         1 UNK         0.0000 
     39 H39        -0.6274   50.6046   28.0465 H         1 UNK         0.0000 
     40 H40        -1.3262   51.5685   29.3152 H         1 UNK         0.0000 
     41 H41         1.1170   51.4056   26.9151 H         1 UNK         0.0000 
     42 H42         1.8983   53.0538   25.1293 H         1 UNK         0.0000 
     43 H43         3.4218   53.8553   23.3479 H         1 UNK         0.0000 
     44 H44         5.6706   54.6119   22.6687 H         1 UNK         0.0000 
     45 H45         7.3786   55.1429   24.3596 H         1 UNK         0.0000 
     46 H46         6.8717   54.8779   26.7717 H         1 UNK         0.0000 
     47 H47         5.3428   54.1272   28.5381 H         1 UNK         0.0000 
     48 H48         3.1042   49.3875   21.6956 H         1 UNK         0.0000 
     49 H49         1.8385   48.3378   21.1056 H         1 UNK         0.0000 
     50 H50         2.5523   51.1144   20.0590 H         1 UNK         0.0000 
     51 H51         2.6293   49.6062   19.1931 H         1 UNK         0.0000 
     52 H52         0.6169   50.8153   18.4686 H         1 UNK         0.0000 
     53 H53         0.1232   49.3959   19.3471 H         1 UNK         0.0000 
     54 H54        -1.2717   51.1690   20.1714 H         1 UNK         0.0000 
     55 H55         0.0567   52.2960   20.2841 H         1 UNK         0.0000 
     56 O56         2.9798   51.6967   29.9027 O.co2     1 UNK         0.0000 
@<TRIPOS>BOND
     1    1    2 1    
     2    1   34 1    
     3    1   35 1    
     4    1   36 1    
     5    2    3 1    
     6    2   37 1    
     7    2   38 1    
     8    3   12 ar   
     9    3    4 ar   
    10    4    5 2    
    11    4    6 ar   
    12    6   10 ar   
    13    6    7 1    
    14    7   33 1    
    15    7    8 2    
    16    8    9 1    
    17    8   30 1    
    18    9   10 1    
    19   10   11 ar   
    20   11   12 ar   
    21   12   13 1    
    22   13   14 1    
    23   14   15 1    
    24   14   39 1    
    25   14   40 1    
    26   15   16 2    
    27   15   17 am   BACKBONE|DICT|INTERRES
    28   17   18 1    
    29   17   41 1    
    30   18   27 ar   
    31   18   19 ar   
    32   19   20 ar   
    33   19   42 1    
    34   20   25 ar   
    35   20   21 ar   
    36   21   22 ar   
    37   21   43 1    
    38   22   23 ar   
    39   22   44 1    
    40   23   24 ar   
    41   23   45 1    
    42   24   25 ar   
    43   24   46 1    
    44   25   26 ar   
    45   26   27 ar   
    46   26   47 1    
    47   27   28 1    
    48   28   29 2    
    49   28   56 1    
    50   30   31 1    
    51   30   48 1    
    52   30   49 1    
    53   31   32 1    
    54   31   50 1    
    55   31   51 1    
    56   32   33 1    
    57   32   52 1    
    58   32   53 1    
    59   33   54 1    
    60   33   55 1    
@<TRIPOS>SUBSTRUCTURE
     1 UNK         1 GROUP             0       ****    0 ROOT    
