@<TRIPOS>MOLECULE
ZINC04212612_3403
56   58    1
SMALL
USER_CHARGES


@<TRIPOS>ATOM
      1 C1          0.7045   51.1627   27.1131 C.3       1 UNK         0.0000 
      2 C2          0.6400   52.7107   27.1241 C.3       1 UNK         0.0000 
      3 H3         -0.3062   52.9452   26.6408 H         1 UNK         0.0000 
      4 C4          0.5511   53.3406   28.5381 C.ar      1 UNK         0.0000 
      5 C5          1.0910   54.6145   28.7970 C.ar      1 UNK         0.0000 
      6 C6          1.0843   55.1512   30.0805 C.ar      1 UNK         0.0000 
      7 C7          0.4849   54.4314   31.1101 C.ar      1 UNK         0.0000 
      8 C8         -0.0503   53.1717   30.8749 C.ar      1 UNK         0.0000 
      9 C9         -0.0191   52.6253   29.5984 C.ar      1 UNK         0.0000 
     10 N10         1.6974   53.2746   26.2612 N.am      1 UNK         0.0000 
     11 C11         3.0073   53.2974   26.5832 C.2       1 UNK         0.0000 
     12 O12         3.3878   52.8958   27.6828 O.2       1 UNK         0.0000 
     13 C13         3.9974   53.8025   25.5404 C.ar      1 UNK         0.0000 
     14 C14         3.6179   53.8251   24.1814 C.ar      1 UNK         0.0000 
     15 C15         4.5220   54.1421   23.1619 C.ar      1 UNK         0.0000 
     16 C16         5.8301   54.4962   23.5118 C.ar      1 UNK         0.0000 
     17 C17         6.2247   54.4936   24.8408 C.ar      1 UNK         0.0000 
     18 C18         5.3474   54.1192   25.8709 C.ar      1 UNK         0.0000 
     19 N19         5.8649   54.0206   27.1886 N.pl3     1 UNK         0.0000 
     20 C20         5.4193   54.9959   28.1621 C.3       1 UNK         0.0000 
     21 C21         7.2443   53.6158   27.3766 C.3       1 UNK         0.0000 
     22 N22         4.0361   54.0939   21.8355 N.am      1 UNK         0.0000 
     23 C23         4.7114   54.2462   20.6754 C.2       1 UNK         0.0000 
     24 O24         5.9094   54.4985   20.5752 O.2       1 UNK         0.0000 
     25 N25         3.9044   54.0752   19.6163 N.am      1 UNK         0.0000 
     26 C26         4.3007   54.1049   18.2726 C.ar      1 UNK         0.0000 
     27 C27         4.0494   52.9548   17.5189 C.ar      1 UNK         0.0000 
     28 C28         4.4051   52.9002   16.1728 C.ar      1 UNK         0.0000 
     29 C29         4.9890   54.0079   15.5609 C.ar      1 UNK         0.0000 
     30 C30         5.2079   55.1743   16.2964 C.ar      1 UNK         0.0000 
     31 C31         4.8607   55.2379   17.6475 C.ar      1 UNK         0.0000 
     32 Cl32        5.1032   56.7395   18.4796 Cl        1 UNK         0.0000 
     33 Cl33        5.4316   53.9392   13.8964 Cl        1 UNK         0.0000 
     34 H34        -0.1986   50.7058   27.5172 H         1 UNK         0.0000 
     35 H35         0.8032   50.7827   26.0966 H         1 UNK         0.0000 
     36 H36         1.5566   50.7973   27.6878 H         1 UNK         0.0000 
     37 H37         1.5362   55.1992   28.0057 H         1 UNK         0.0000 
     38 H38         1.5044   56.1286   30.2689 H         1 UNK         0.0000 
     39 H39         0.4506   54.8467   32.1055 H         1 UNK         0.0000 
     40 H40        -0.4953   52.6141   31.6816 H         1 UNK         0.0000 
     41 H41        -0.4447   51.6424   29.4592 H         1 UNK         0.0000 
     42 H42         1.4045   53.6858   25.3862 H         1 UNK         0.0000 
     43 H43         2.6162   53.5420   23.8897 H         1 UNK         0.0000 
     44 H44         6.5732   54.7789   22.7843 H         1 UNK         0.0000 
     45 H45         7.2483   54.7617   25.0546 H         1 UNK         0.0000 
     46 H46         4.3834   55.2966   28.0098 H         1 UNK         0.0000 
     47 H47         5.5000   54.5911   29.1726 H         1 UNK         0.0000 
     48 H48         6.0628   55.8694   28.0821 H         1 UNK         0.0000 
     49 H49         7.5045   52.8948   26.6090 H         1 UNK         0.0000 
     50 H50         7.9043   54.4776   27.3003 H         1 UNK         0.0000 
     51 H51         7.3825   53.1417   28.3500 H         1 UNK         0.0000 
     52 H52         3.0510   53.9001   21.7531 H         1 UNK         0.0000 
     53 H53         2.9502   53.7916   19.7866 H         1 UNK         0.0000 
     54 H54         3.6194   52.0772   17.9809 H         1 UNK         0.0000 
     55 H55         4.2377   51.9886   15.6155 H         1 UNK         0.0000 
     56 H56         5.6438   56.0371   15.8141 H         1 UNK         0.0000 
@<TRIPOS>BOND
     1    1    2 1    
     2    1   34 1    
     3    1   35 1    
     4    1   36 1    
     5    2    3 1    
     6    2    4 1    
     7    2   10 1    
     8    4    9 ar   
     9    4    5 ar   
    10    5    6 ar   
    11    5   37 1    
    12    6    7 ar   
    13    6   38 1    
    14    7    8 ar   
    15    7   39 1    
    16    8    9 ar   
    17    8   40 1    
    18    9   41 1    
    19   10   11 am   BACKBONE|DICT|INTERRES
    20   10   42 1    
    21   11   12 2    
    22   11   13 1    
    23   13   18 ar   
    24   13   14 ar   
    25   14   15 ar   
    26   14   43 1    
    27   15   16 ar   
    28   15   22 1    
    29   16   17 ar   
    30   16   44 1    
    31   17   18 ar   
    32   17   45 1    
    33   18   19 1    
    34   19   20 1    
    35   19   21 1    
    36   20   46 1    
    37   20   47 1    
    38   20   48 1    
    39   21   49 1    
    40   21   50 1    
    41   21   51 1    
    42   22   23 am   BACKBONE|DICT|INTERRES
    43   22   52 1    
    44   23   24 2    
    45   23   25 am   BACKBONE|DICT|INTERRES
    46   25   26 1    
    47   25   53 1    
    48   26   31 ar   
    49   26   27 ar   
    50   27   28 ar   
    51   27   54 1    
    52   28   29 ar   
    53   28   55 1    
    54   29   30 ar   
    55   29   33 1    
    56   30   31 ar   
    57   30   56 1    
    58   31   32 1    
@<TRIPOS>SUBSTRUCTURE
     1 UNK         1 GROUP             0       ****    0 ROOT    
