@<TRIPOS>MOLECULE
ZINC20086028_4379
53   56    1
SMALL
USER_CHARGES


@<TRIPOS>ATOM
      1 C1         -3.3893   52.2051   17.8354 C.3       1 UNK         0.0000 
      2 C2         -2.4744   51.5286   18.8386 C.ar      1 UNK         0.0000 
      3 C3         -1.0919   51.6685   18.7109 C.ar      1 UNK         0.0000 
      4 C4         -0.2432   51.0527   19.6262 C.ar      1 UNK         0.0000 
      5 C5         -0.7777   50.3053   20.6788 C.ar      1 UNK         0.0000 
      6 C6         -2.1624   50.1546   20.7996 C.ar      1 UNK         0.0000 
      7 C7         -3.0096   50.7691   19.8810 C.ar      1 UNK         0.0000 
      8 S8          0.3199   49.5656   21.8944 S.o2      1 UNK         0.0000 
      9 O9         -0.5135   48.8204   22.8459 O.2       1 UNK         0.0000 
     10 O10         1.3607   48.8768   21.1228 O.2       1 UNK         0.0000 
     11 N11         1.0825   50.9171   22.7881 N.pl3     1 UNK         0.0000 
     12 C12         0.4585   51.6308   23.9440 C.3       1 UNK         0.0000 
     13 H13         0.5587   50.9987   24.8233 H         1 UNK         0.0000 
     14 C14         1.3196   52.9339   24.0793 C.3       1 UNK         0.0000 
     15 H15         0.7236   53.8319   23.8952 H         1 UNK         0.0000 
     16 C16         2.3062   52.8242   22.9168 C.2       1 UNK         0.0000 
     17 C17         2.1280   51.6828   22.2467 C.2       1 UNK         0.0000 
     18 N18         2.8414   51.1951   21.1814 N.pl3     1 UNK         0.0000 
     19 C19         3.2876   53.7875   22.5469 C.1       1 UNK         0.0000 
     20 N20         4.1373   54.4966   22.2164 N.1       1 UNK         0.0000 
     21 C21         1.9061   53.1754   25.4918 C.ar      1 UNK         0.0000 
     22 C22         3.1938   53.6967   25.6973 C.ar      1 UNK         0.0000 
     23 C23         3.6846   53.9051   26.9841 C.ar      1 UNK         0.0000 
     24 C24         2.8915   53.6007   28.0852 C.ar      1 UNK         0.0000 
     25 C25         1.6061   53.1002   27.9064 C.ar      1 UNK         0.0000 
     26 C26         1.1185   52.8964   26.6186 C.ar      1 UNK         0.0000 
     27 Cl27        3.5042   53.8475   29.6791 Cl        1 UNK         0.0000 
     28 C28        -1.0333   51.9827   23.6845 C.2       1 UNK         0.0000 
     29 O29        -1.3430   52.4961   22.6097 O.2       1 UNK         0.0000 
     30 C30        -2.0094   51.8723   24.8132 C.ar      1 UNK         0.0000 
     31 C31        -1.8772   50.9039   25.8201 C.ar      1 UNK         0.0000 
     32 C32        -2.8125   50.8343   26.8491 C.ar      1 UNK         0.0000 
     33 C33        -3.8998   51.7019   26.8612 C.ar      1 UNK         0.0000 
     34 C34        -4.0608   52.6473   25.8532 C.ar      1 UNK         0.0000 
     35 C35        -3.1213   52.7286   24.8296 C.ar      1 UNK         0.0000 
     36 H36        -4.4429   52.0785   18.0845 H         1 UNK         0.0000 
     37 H37        -3.2168   51.7996   16.8371 H         1 UNK         0.0000 
     38 H38        -3.1768   53.2736   17.7931 H         1 UNK         0.0000 
     39 H39        -0.6714   52.2509   17.9030 H         1 UNK         0.0000 
     40 H40         0.8241   51.1677   19.5139 H         1 UNK         0.0000 
     41 H41        -2.5851   49.5790   21.6108 H         1 UNK         0.0000 
     42 H42        -4.0786   50.6524   19.9837 H         1 UNK         0.0000 
     43 H43         3.5713   51.7340   20.7364 H         1 UNK         0.0000 
     44 H44         2.6572   50.2635   20.8246 H         1 UNK         0.0000 
     45 H45         3.8492   53.9416   24.8814 H         1 UNK         0.0000 
     46 H46         4.6816   54.2955   27.1248 H         1 UNK         0.0000 
     47 H47         0.9863   52.8705   28.7606 H         1 UNK         0.0000 
     48 H48         0.1132   52.5240   26.5119 H         1 UNK         0.0000 
     49 H49        -1.0665   50.1891   25.8301 H         1 UNK         0.0000 
     50 H50        -2.6996   50.0971   27.6320 H         1 UNK         0.0000 
     51 H51        -4.6259   51.6339   27.6577 H         1 UNK         0.0000 
     52 H52        -4.9115   53.3125   25.8630 H         1 UNK         0.0000 
     53 H53        -3.2639   53.4705   24.0557 H         1 UNK         0.0000 
@<TRIPOS>BOND
     1    1    2 1    
     2    1   36 1    
     3    1   37 1    
     4    1   38 1    
     5    2    7 ar   
     6    2    3 ar   
     7    3    4 ar   
     8    3   39 1    
     9    4    5 ar   
    10    4   40 1    
    11    5    6 ar   
    12    5    8 1    
    13    6    7 ar   
    14    6   41 1    
    15    7   42 1    
    16    8    9 2    
    17    8   10 2    
    18    8   11 1    
    19   11   17 1    
    20   11   12 1    
    21   12   13 1    
    22   12   14 1    
    23   12   28 1    
    24   14   15 1    
    25   14   16 1    
    26   14   21 1    
    27   16   17 2    
    28   16   19 1    
    29   17   18 1    
    30   18   43 1    
    31   18   44 1    
    32   19   20 3    
    33   21   26 ar   
    34   21   22 ar   
    35   22   23 ar   
    36   22   45 1    
    37   23   24 ar   
    38   23   46 1    
    39   24   25 ar   
    40   24   27 1    
    41   25   26 ar   
    42   25   47 1    
    43   26   48 1    
    44   28   29 2    
    45   28   30 1    
    46   30   35 ar   
    47   30   31 ar   
    48   31   32 ar   
    49   31   49 1    
    50   32   33 ar   
    51   32   50 1    
    52   33   34 ar   
    53   33   51 1    
    54   34   35 ar   
    55   34   52 1    
    56   35   53 1    
@<TRIPOS>SUBSTRUCTURE
     1 UNK         1 GROUP             0       ****    0 ROOT    
