@<TRIPOS>MOLECULE
ZINC01884936_3339
47   50    1
SMALL
USER_CHARGES


@<TRIPOS>ATOM
      1 C1          5.1173   55.0081   25.6019 C.3       1 UNK         0.0000 
      2 C2          3.9240   54.2584   25.0362 C.ar      1 UNK         0.0000 
      3 C3          2.9771   53.6998   25.8992 C.ar      1 UNK         0.0000 
      4 C4          1.9039   52.9802   25.3801 C.ar      1 UNK         0.0000 
      5 C5          1.7808   52.8190   23.9995 C.ar      1 UNK         0.0000 
      6 C6          2.7152   53.3879   23.1330 C.ar      1 UNK         0.0000 
      7 C7          3.7929   54.0976   23.6547 C.ar      1 UNK         0.0000 
      8 S8          0.4587   51.8076   23.3538 S.o2      1 UNK         0.0000 
      9 O9          0.3424   52.0964   21.9209 O.2       1 UNK         0.0000 
     10 O10         0.7412   50.4532   23.8395 O.2       1 UNK         0.0000 
     11 N11        -1.0048   52.4222   24.1288 N.pl3     1 UNK         0.0000 
     12 C12        -2.0338   51.5132   24.7241 C.3       1 UNK         0.0000 
     13 C13        -2.2291   50.1940   24.0100 C.ar      1 UNK         0.0000 
     14 C14        -2.6382   49.8554   22.6496 C.ar      1 UNK         0.0000 
     15 N15        -2.7023   48.5608   22.3385 N.2       1 UNK         0.0000 
     16 C16        -2.4335   47.5588   23.1884 C.ar      1 UNK         0.0000 
     17 O17        -2.4909   46.3627   22.8840 O.2       1 UNK         0.0000 
     18 N18        -2.0733   47.8649   24.4960 N.pl3     1 UNK         0.0000 
     19 C19        -1.9749   49.1931   24.8712 C.ar      1 UNK         0.0000 
     20 N20        -1.6219   49.6971   26.0816 N.am      1 UNK         0.0000 
     21 C21        -1.5406   51.0397   26.1024 C.2       1 UNK         0.0000 
     22 O22        -1.1525   51.7463   27.0331 O.2       1 UNK         0.0000 
     23 C23        -1.9076   46.8043   25.5117 C.3       1 UNK         0.0000 
     24 C24        -3.2191   46.3417   26.1086 C.2       1 UNK         0.0000 
     25 C25        -3.7722   46.4386   27.3742 C.2       1 UNK         0.0000 
     26 C26        -5.0384   45.8554   27.3140 C.2       1 UNK         0.0000 
     27 C27        -5.1932   45.4030   26.0153 C.2       1 UNK         0.0000 
     28 O28        -4.0879   45.6968   25.2850 O.3       1 UNK         0.0000 
     29 O29        -2.8923   50.7994   21.9046 O.2       1 UNK         0.0000 
     30 C30        -3.3692   52.3093   24.9135 C.3       1 UNK         0.0000 
     31 F31        -4.3908   51.5306   25.2807 F         1 UNK         0.0000 
     32 F32        -3.2906   53.2901   25.8180 F         1 UNK         0.0000 
     33 F33        -3.7217   52.9001   23.7723 F         1 UNK         0.0000 
     34 H34         5.9950   54.8728   24.9678 H         1 UNK         0.0000 
     35 H35         5.3877   54.6276   26.5881 H         1 UNK         0.0000 
     36 H36         4.9042   56.0746   25.6817 H         1 UNK         0.0000 
     37 H37         3.0776   53.8085   26.9686 H         1 UNK         0.0000 
     38 H38         1.1872   52.5289   26.0506 H         1 UNK         0.0000 
     39 H39         2.6249   53.2620   22.0620 H         1 UNK         0.0000 
     40 H40         4.5253   54.5204   22.9823 H         1 UNK         0.0000 
     41 H41        -1.4568   53.1247   23.5392 H         1 UNK         0.0000 
     42 H42        -1.4400   49.1246   26.9125 H         1 UNK         0.0000 
     43 H43        -1.3469   45.9679   25.0952 H         1 UNK         0.0000 
     44 H44        -1.2759   47.1833   26.3145 H         1 UNK         0.0000 
     45 H45        -3.2978   46.8972   28.2324 H         1 UNK         0.0000 
     46 H46        -5.7591   45.7780   28.1139 H         1 UNK         0.0000 
     47 H47        -5.9950   44.9004   25.4933 H         1 UNK         0.0000 
@<TRIPOS>BOND
     1    1    2 1    
     2    1   34 1    
     3    1   35 1    
     4    1   36 1    
     5    2    7 ar   
     6    2    3 ar   
     7    3    4 ar   
     8    3   37 1    
     9    4    5 ar   
    10    4   38 1    
    11    5    6 ar   
    12    5    8 1    
    13    6    7 ar   
    14    6   39 1    
    15    7   40 1    
    16    8    9 2    
    17    8   10 2    
    18    8   11 1    
    19   11   12 1    
    20   11   41 1    
    21   12   21 1    
    22   12   13 1    
    23   12   30 1    
    24   13   19 ar   
    25   13   14 ar   
    26   14   15 ar   
    27   14   29 2    
    28   15   16 ar   
    29   16   18 ar   
    30   16   17 2    
    31   18   19 ar   
    32   18   23 1    
    33   19   20 1    
    34   20   21 am   BACKBONE|DICT|INTERRES
    35   20   42 1    
    36   21   22 2    
    37   23   24 1    
    38   23   43 1    
    39   23   44 1    
    40   24   28 1    
    41   24   25 2    
    42   25   26 1    
    43   25   45 1    
    44   26   27 2    
    45   26   46 1    
    46   27   28 1    
    47   27   47 1    
    48   30   31 1    
    49   30   32 1    
    50   30   33 1    
@<TRIPOS>SUBSTRUCTURE
     1 UNK         1 GROUP             0       ****    0 ROOT    
