@<TRIPOS>MOLECULE
ZINC09428054_3362
52   55    1
SMALL
USER_CHARGES


@<TRIPOS>ATOM
      1 C1          4.8445   53.6852   19.3755 C.ar      1 UNK         0.0000 
      2 C2          4.5355   53.5403   18.0268 C.ar      1 UNK         0.0000 
      3 C3          4.9021   54.5187   17.1045 C.ar      1 UNK         0.0000 
      4 C4          5.5855   55.6722   17.5371 C.ar      1 UNK         0.0000 
      5 C5          5.9123   55.7914   18.8941 C.ar      1 UNK         0.0000 
      6 C6          5.5374   54.8181   19.8277 C.ar      1 UNK         0.0000 
      7 C7          5.8980   54.9972   21.2818 C.2       1 UNK         0.0000 
      8 O8          6.9076   55.6363   21.5883 O.2       1 UNK         0.0000 
      9 N9          5.0024   54.4819   22.1556 N.am      1 UNK         0.0000 
     10 C10         5.0415   54.4478   23.5487 C.2       1 UNK         0.0000 
     11 C11         3.9965   54.0159   24.4024 C.2       1 UNK         0.0000 
     12 C12         4.3869   54.1021   25.7782 C.2       1 UNK         0.0000 
     13 C13         5.7279   54.4971   25.9231 C.2       1 UNK         0.0000 
     14 S14         6.4758   54.8949   24.4297 S.3       1 UNK         0.0000 
     15 C15         6.4749   54.6422   27.2347 C.3       1 UNK         0.0000 
     16 C16         5.7191   53.8695   28.3235 C.3       1 UNK         0.0000 
     17 C17         4.2264   54.2232   28.3267 C.3       1 UNK         0.0000 
     18 C18         3.5247   53.7959   27.0189 C.3       1 UNK         0.0000 
     19 C19         2.7046   53.5284   23.8933 C.2       1 UNK         0.0000 
     20 O20         2.4143   53.5982   22.6981 O.2       1 UNK         0.0000 
     21 N21         1.9100   52.9056   24.7858 N.am      1 UNK         0.0000 
     22 C22         0.7401   52.0760   24.4977 C.3       1 UNK         0.0000 
     23 H23         1.0344   51.1570   23.9791 H         1 UNK         0.0000 
     24 C24         0.0826   51.6489   25.8330 C.3       1 UNK         0.0000 
     25 C25        -1.2523   50.9569   25.5274 C.3       1 UNK         0.0000 
     26 S26        -1.9657   51.9507   24.1165 S.o2      1 UNK         0.0000 
     27 O27        -2.9071   52.9523   24.6268 O.2       1 UNK         0.0000 
     28 O28        -2.3532   51.0417   23.0337 O.2       1 UNK         0.0000 
     29 C29        -0.3481   52.7956   23.6828 C.3       1 UNK         0.0000 
     30 N30         6.0070   56.7376   16.6021 N.pl3     1 UNK         0.0000 
     31 O31         7.1242   57.2222   16.7571 O.co2     1 UNK         0.0000 
     32 O32         5.2189   57.1083   15.7384 O.co2     1 UNK         0.0000 
     33 Cl33        4.5270   54.2366   15.4389 Cl        1 UNK         0.0000 
     34 H34         4.5502   52.8927   20.0496 H         1 UNK         0.0000 
     35 H35         4.0237   52.6468   17.6921 H         1 UNK         0.0000 
     36 H36         6.4533   56.6673   19.2269 H         1 UNK         0.0000 
     37 H37         4.1287   54.1513   21.7647 H         1 UNK         0.0000 
     38 H38         7.4972   54.2670   27.1573 H         1 UNK         0.0000 
     39 H39         6.5437   55.6949   27.5168 H         1 UNK         0.0000 
     40 H40         5.8468   52.7923   28.1832 H         1 UNK         0.0000 
     41 H41         6.1695   54.1123   29.2815 H         1 UNK         0.0000 
     42 H42         3.7291   53.7595   29.1793 H         1 UNK         0.0000 
     43 H43         4.1095   55.2974   28.4666 H         1 UNK         0.0000 
     44 H44         2.5604   54.3017   26.9683 H         1 UNK         0.0000 
     45 H45         3.3309   52.7239   27.0788 H         1 UNK         0.0000 
     46 H46         2.2110   52.9128   25.7515 H         1 UNK         0.0000 
     47 H47        -0.0810   52.5251   26.4652 H         1 UNK         0.0000 
     48 H48         0.7382   50.9934   26.4114 H         1 UNK         0.0000 
     49 H49        -1.9705   50.8445   26.3397 H         1 UNK         0.0000 
     50 H50        -1.0409   49.9604   25.1379 H         1 UNK         0.0000 
     51 H51        -0.1933   52.8929   22.6101 H         1 UNK         0.0000 
     52 H52        -0.4603   53.7954   24.0929 H         1 UNK         0.0000 
@<TRIPOS>BOND
     1    1    6 ar   
     2    1    2 ar   
     3    1   34 1    
     4    2    3 ar   
     5    2   35 1    
     6    3    4 ar   
     7    3   33 1    
     8    4    5 ar   
     9    4   30 1    
    10    5    6 ar   
    11    5   36 1    
    12    6    7 1    
    13    7    8 2    
    14    7    9 am   BACKBONE|DICT|INTERRES
    15    9   10 am   BACKBONE|DICT|INTERRES
    16    9   37 1    
    17   10   14 1    
    18   10   11 2    
    19   11   12 1    
    20   11   19 1    
    21   12   18 1    
    22   12   13 2    
    23   13   14 1    
    24   13   15 1    
    25   15   16 1    
    26   15   38 1    
    27   15   39 1    
    28   16   17 1    
    29   16   40 1    
    30   16   41 1    
    31   17   18 1    
    32   17   42 1    
    33   17   43 1    
    34   18   44 1    
    35   18   45 1    
    36   19   20 2    
    37   19   21 am   BACKBONE|DICT|INTERRES
    38   21   22 1    
    39   21   46 1    
    40   22   23 1    
    41   22   29 1    
    42   22   24 1    
    43   24   25 1    
    44   24   47 1    
    45   24   48 1    
    46   25   26 1    
    47   25   49 1    
    48   25   50 1    
    49   26   27 2    
    50   26   28 2    
    51   26   29 1    
    52   29   51 1    
    53   29   52 1    
    54   30   31 2    
    55   30   32 1    
@<TRIPOS>SUBSTRUCTURE
     1 UNK         1 GROUP             0       ****    0 ROOT    
