ZINC38547398_122
                    3D
 Schrodinger Suite 2024-2.
 57 61  0  0  1  0            999 V2000
    5.4318   52.2167   14.7890 C   0  0  0  0  0  0
    4.4638   53.0951   15.5578 C   0  0  0  0  0  0
    3.7264   54.0950   14.9129 C   0  0  0  0  0  0
    2.8187   54.8594   15.6504 C   0  0  0  0  0  0
    2.6735   54.6172   16.9695 N   0  3  0  0  0  0
    3.3743   53.6813   17.6413 C   0  0  0  0  0  0
    4.2872   52.8967   16.9307 C   0  0  0  0  0  0
    3.1046   53.5440   19.0280 N   0  0  0  0  0  0
    3.8967   52.8502   20.0568 C   0  0  1  0  0  0
    4.3999   52.0375   19.5344 H   0  0  0  0  0  0
    5.0425   53.7197   20.6501 C   0  0  0  0  0  0
    5.4735   53.6079   21.9875 C   0  0  0  0  0  0
    6.4339   54.4965   22.4807 C   0  0  0  0  0  0
    7.0041   55.4309   21.6171 C   0  0  0  0  0  0
    6.5713   55.4604   20.2904 C   0  0  0  0  0  0
    5.6096   54.6317   19.8090 N   0  0  0  0  0  0
    2.9381   52.2167   21.0804 C   0  0  0  0  0  0
    2.3981   52.8374   22.2446 C   0  0  0  0  0  0
    1.7279   51.9393   23.0844 C   0  0  0  0  0  0
    1.5284   50.4003   22.3480 S   0  0  0  0  0  0
    2.3568   50.9498   20.9105 C   0  0  0  0  0  0
    2.3319   50.2178   19.7215 N   0  0  0  0  0  0
    1.9834   48.9210   19.5734 C   0  0  0  0  0  0
    1.9040   48.0969   20.4817 O   0  0  0  0  0  0
    1.7087   48.5398   18.2190 C   0  0  0  0  0  0
    1.1044   49.2265   17.1658 C   0  0  0  0  0  0
    0.9882   48.3220   16.1084 C   0  0  0  0  0  0
    1.4733   47.1119   16.5761 C   0  0  0  0  0  0
    1.8733   47.2349   17.8675 O   0  0  0  0  0  0
    1.2671   52.2280   24.5091 C   0  0  0  0  0  0
    1.4008   53.7286   24.8325 C   0  0  0  0  0  0
    2.6295   54.3824   24.1807 C   0  0  0  0  0  0
    2.4945   54.3080   22.6548 C   0  0  0  0  0  0
    5.4779   52.4738   13.7312 H   0  0  0  0  0  0
    6.4330   52.3026   15.2109 H   0  0  0  0  0  0
    5.1330   51.1714   14.8780 H   0  0  0  0  0  0
    3.8476   54.2702   13.8536 H   0  0  0  0  0  0
    2.2053   55.6484   15.2360 H   0  0  0  0  0  0
    4.8272   52.0978   17.4105 H   0  0  0  0  0  0
    2.3146   54.0568   19.4043 H   0  0  0  0  0  0
    5.0503   52.8749   22.6549 H   0  0  0  0  0  0
    6.7600   54.4347   23.5090 H   0  0  0  0  0  0
    7.7790   56.0969   21.9680 H   0  0  0  0  0  0
    6.9976   56.1555   19.5826 H   0  0  0  0  0  0
    2.6361   50.6938   18.8841 H   0  0  0  0  0  0
    0.8008   50.2630   17.1605 H   0  0  0  0  0  0
    0.5905   48.5233   15.1247 H   0  0  0  0  0  0
    1.5807   46.1318   16.1365 H   0  0  0  0  0  0
    0.2446   51.8892   24.6827 H   0  0  0  0  0  0
    1.9043   51.6968   25.2081 H   0  0  0  0  0  0
    0.5032   54.2390   24.4807 H   0  0  0  0  0  0
    1.4354   53.8709   25.9135 H   0  0  0  0  0  0
    2.7043   55.4228   24.4818 H   0  0  0  0  0  0
    3.5498   53.9000   24.5154 H   0  0  0  0  0  0
    3.2722   54.8840   22.1623 H   0  0  0  0  0  0
    1.5656   54.8099   22.3934 H   0  0  0  0  0  0
    2.0173   55.1769   17.4947 H   0  0  0  0  0  0
  1  2  1  0  0  0
  1 34  1  0  0  0
  1 35  1  0  0  0
  1 36  1  0  0  0
  2  7  2  0  0  0
  2  3  1  0  0  0
  3  4  2  0  0  0
  3 37  1  0  0  0
  4  5  1  0  0  0
  4 38  1  0  0  0
  5  6  2  0  0  0
  5 57  1  0  0  0
  6  7  1  0  0  0
  6  8  1  0  0  0
  7 39  1  0  0  0
  8  9  1  0  0  0
  8 40  1  0  0  0
  9 10  1  0  0  0
  9 11  1  0  0  0
  9 17  1  0  0  0
 11 16  2  0  0  0
 11 12  1  0  0  0
 12 13  2  0  0  0
 12 41  1  0  0  0
 13 14  1  0  0  0
 13 42  1  0  0  0
 14 15  2  0  0  0
 14 43  1  0  0  0
 15 16  1  0  0  0
 15 44  1  0  0  0
 17 21  2  0  0  0
 17 18  1  0  0  0
 18 33  1  0  0  0
 18 19  2  0  0  0
 19 20  1  0  0  0
 19 30  1  0  0  0
 20 21  1  0  0  0
 21 22  1  0  0  0
 22 23  1  0  0  0
 22 45  1  0  0  0
 23 24  2  0  0  0
 23 25  1  0  0  0
 25 29  1  0  0  0
 25 26  2  0  0  0
 26 27  1  0  0  0
 26 46  1  0  0  0
 27 28  2  0  0  0
 27 47  1  0  0  0
 28 29  1  0  0  0
 28 48  1  0  0  0
 30 31  1  0  0  0
 30 49  1  0  0  0
 30 50  1  0  0  0
 31 32  1  0  0  0
 31 51  1  0  0  0
 31 52  1  0  0  0
 32 33  1  0  0  0
 32 53  1  0  0  0
 32 54  1  0  0  0
 33 55  1  0  0  0
 33 56  1  0  0  0
M  CHG  1   5   1
M  END
> <i_i_glide_confnum>
55

> <i_i_glide_lignum>
123

> <i_i_glide_posenum>
62

> <i_i_glide_rotatable_bonds>
7

> <i_m_Source_File_Index>
1837

> <b_m_subgroup_collapsed>
0

> <r_i_docking_score>
-3.81219

> <r_i_glide_ecoul>
-5.18278

> <r_i_glide_eff_state_penalty>
0

> <r_i_glide_einternal>
19.3663

> <r_i_glide_emodel>
-36.4542

> <r_i_glide_energy>
-36.1371

> <r_i_glide_erotb>
0.705537

> <r_i_glide_esite>
-0.116778

> <r_i_glide_evdw>
-30.9543

> <r_i_glide_gscore>
-3.81219

> <r_i_glide_hbond>
0

> <r_i_glide_ligand_efficiency>
-0.119131

> <r_i_glide_ligand_efficiency_ln>
-0.853654

> <r_i_glide_ligand_efficiency_sa>
-0.378218

> <r_i_glide_lipo>
-1.73714

> <r_i_glide_metal>
0

> <r_i_glide_rewards>
-0.338684

> <s_i_glide_gridfile>
wee1_glide-grid

> <s_m_Source_File>
wee1_decoys_glide_SP.sdf

> <s_m_Source_Path>
/Users/zhangxujun/Desktop

> <s_m_entry_id>
2112

> <s_m_entry_name>
wee1_decoys_glide_SP.1837

> <s_m_subgroup_title>
wee1_decoys_glide_SP

> <s_m_subgroupid>
wee1_decoys_glide_SP


$$$$
