ZINC04093087_3259
                    3D
 Schrodinger Suite 2024-2.
 63 68  0  0  1  0            999 V2000
    1.9126   45.3915   16.1206 C   0  0  0  0  0  0
    0.7559   44.7499   16.5611 C   0  0  0  0  0  0
   -0.0401   45.3443   17.5402 C   0  0  0  0  0  0
    0.3172   46.5773   18.0883 C   0  0  0  0  0  0
    1.5065   47.2098   17.6757 C   0  0  0  0  0  0
    2.2835   46.6172   16.6742 C   0  0  0  0  0  0
    1.9047   48.4836   18.1146 N   0  0  0  0  0  0
    1.8999   48.9507   19.3817 C   0  0  0  0  0  0
    1.6273   48.2621   20.3662 O   0  0  0  0  0  0
    2.2401   50.4542   19.5372 C   0  0  1  0  0  0
    3.1042   50.6478   18.8964 H   0  0  0  0  0  0
    1.0191   51.3236   19.1122 C   0  0  1  0  0  0
    0.8870   51.4660   18.0383 H   0  0  0  0  0  0
   -0.2488   51.0516   19.9236 C   0  0  0  0  0  0
   -0.0144   51.5435   21.1526 C   0  0  0  0  0  0
    1.4225   52.0386   21.0959 C   0  0  2  0  0  0
    2.4717   50.9590   20.9987 C   0  0  2  0  0  0
    2.3688   50.1782   21.7526 H   0  0  0  0  0  0
    3.7809   51.7140   21.2746 C   0  0  0  0  0  0
    4.8934   51.2969   20.9789 O   0  0  0  0  0  0
    3.4800   52.8768   21.9268 N   0  0  0  0  0  0
    2.0197   53.0888   22.0494 C   0  0  2  0  0  0
    1.7780   54.0934   21.7071 H   0  0  0  0  0  0
    1.4404   52.9991   23.4738 C   0  0  0  0  0  0
    0.9174   53.9974   23.9631 O   0  0  0  0  0  0
    1.4606   51.7993   24.0813 N   0  0  0  0  0  0
    0.6995   51.4415   25.2775 C   0  0  0  0  0  0
    1.0061   52.2468   26.5700 C   0  0  0  0  0  0
    0.1883   51.7719   27.7863 C   0  0  0  0  0  0
   -1.3153   51.6968   27.4768 C   0  0  0  0  0  0
   -1.6009   50.8050   26.2579 C   0  0  0  0  0  0
   -0.8160   51.2559   25.0160 C   0  0  0  0  0  0
    4.4956   53.6975   22.4793 C   0  0  0  0  0  0
    5.5026   54.2253   21.6561 C   0  0  0  0  0  0
    6.5883   54.8971   22.2227 C   0  0  0  0  0  0
    6.6367   55.0374   23.6094 C   0  0  0  0  0  0
    5.6522   54.5816   24.4265 N   0  0  0  0  0  0
    4.5986   53.9348   23.8583 C   0  0  0  0  0  0
    1.4376   52.4967   19.7571 O   0  0  0  0  0  0
   -0.5195   47.1512   18.9850 F   0  0  0  0  0  0
    2.5247   44.9405   15.3533 H   0  0  0  0  0  0
    0.4696   43.8010   16.1317 H   0  0  0  0  0  0
   -0.9505   44.8609   17.8616 H   0  0  0  0  0  0
    3.1782   47.1090   16.3183 H   0  0  0  0  0  0
    2.5156   48.9800   17.4694 H   0  0  0  0  0  0
   -1.1232   50.5429   19.5458 H   0  0  0  0  0  0
   -0.6452   51.5286   22.0277 H   0  0  0  0  0  0
    1.7879   51.0179   23.5334 H   0  0  0  0  0  0
    1.0615   50.4373   25.5076 H   0  0  0  0  0  0
    2.0700   52.2030   26.8043 H   0  0  0  0  0  0
    0.7694   53.2970   26.4087 H   0  0  0  0  0  0
    0.5386   50.7868   28.0942 H   0  0  0  0  0  0
    0.3618   52.4332   28.6361 H   0  0  0  0  0  0
   -1.8553   51.3194   28.3466 H   0  0  0  0  0  0
   -1.6963   52.6996   27.2814 H   0  0  0  0  0  0
   -1.3395   49.7693   26.4827 H   0  0  0  0  0  0
   -2.6703   50.8014   26.0436 H   0  0  0  0  0  0
   -1.2366   52.2044   24.6777 H   0  0  0  0  0  0
   -0.9736   50.5329   24.2147 H   0  0  0  0  0  0
    5.4686   54.0712   20.5869 H   0  0  0  0  0  0
    7.3873   55.2764   21.6027 H   0  0  0  0  0  0
    7.4846   55.5213   24.0783 H   0  0  0  0  0  0
    3.8738   53.5434   24.5556 H   0  0  0  0  0  0
  1  6  2  0  0  0
  1  2  1  0  0  0
  1 41  1  0  0  0
  2  3  2  0  0  0
  2 42  1  0  0  0
  3  4  1  0  0  0
  3 43  1  0  0  0
  4  5  2  0  0  0
  4 40  1  0  0  0
  5  6  1  0  0  0
  5  7  1  0  0  0
  6 44  1  0  0  0
  7  8  1  0  0  0
  7 45  1  0  0  0
  8  9  2  0  0  0
  8 10  1  0  0  0
 10 11  1  0  0  0
 10 17  1  0  0  0
 10 12  1  0  0  0
 12 13  1  0  0  0
 12 39  1  0  0  0
 12 14  1  0  0  0
 14 15  2  0  0  0
 14 46  1  0  0  0
 15 16  1  0  0  0
 15 47  1  0  0  0
 16 22  1  0  0  0
 16 17  1  0  0  0
 16 39  1  0  0  0
 17 18  1  0  0  0
 17 19  1  0  0  0
 19 20  2  0  0  0
 19 21  1  0  0  0
 21 22  1  0  0  0
 21 33  1  0  0  0
 22 23  1  0  0  0
 22 24  1  0  0  0
 24 25  2  0  0  0
 24 26  1  0  0  0
 26 27  1  0  0  0
 26 48  1  0  0  0
 27 32  1  0  0  0
 27 28  1  0  0  0
 27 49  1  0  0  0
 28 29  1  0  0  0
 28 50  1  0  0  0
 28 51  1  0  0  0
 29 30  1  0  0  0
 29 52  1  0  0  0
 29 53  1  0  0  0
 30 31  1  0  0  0
 30 54  1  0  0  0
 30 55  1  0  0  0
 31 32  1  0  0  0
 31 56  1  0  0  0
 31 57  1  0  0  0
 32 58  1  0  0  0
 32 59  1  0  0  0
 33 38  2  0  0  0
 33 34  1  0  0  0
 34 35  2  0  0  0
 34 60  1  0  0  0
 35 36  1  0  0  0
 35 61  1  0  0  0
 36 37  2  0  0  0
 36 62  1  0  0  0
 37 38  1  0  0  0
 38 63  1  0  0  0
M  END
> <i_i_glide_confnum>
45

> <i_i_glide_lignum>
3260

> <i_i_glide_posenum>
63

> <i_i_glide_rotatable_bonds>
7

> <i_m_Source_File_Index>
5377

> <b_m_subgroup_collapsed>
0

> <r_i_docking_score>
-4.74828

> <r_i_glide_ecoul>
-7.99308

> <r_i_glide_eff_state_penalty>
0

> <r_i_glide_einternal>
7.24765

> <r_i_glide_emodel>
-57.2384

> <r_i_glide_energy>
-47.7734

> <r_i_glide_erotb>
0.592056

> <r_i_glide_esite>
-0.152377

> <r_i_glide_evdw>
-39.7803

> <r_i_glide_gscore>
-4.74828

> <r_i_glide_hbond>
-0.210041

> <r_i_glide_ligand_efficiency>
-0.131897

> <r_i_glide_ligand_efficiency_ln>
-1.03595

> <r_i_glide_ligand_efficiency_sa>
-0.435513

> <r_i_glide_lipo>
-1.35376

> <r_i_glide_metal>
0

> <r_i_glide_rewards>
-0.436189

> <s_i_glide_gridfile>
wee1_glide-grid

> <s_m_Source_File>
wee1_decoys_glide_SP.sdf

> <s_m_Source_Path>
/Users/zhangxujun/Desktop

> <s_m_entry_id>
5652

> <s_m_entry_name>
wee1_decoys_glide_SP.5377

> <s_m_subgroup_title>
wee1_decoys_glide_SP

> <s_m_subgroupid>
wee1_decoys_glide_SP


$$$$
