@<TRIPOS>MOLECULE
ZINC09328641_4973
66   69    1
SMALL
USER_CHARGES


@<TRIPOS>ATOM
      1 C1          8.1682   55.7041   21.6418 C.3       1 UNK         0.0000 
      2 O2          7.1091   56.0222   20.7566 O.3       1 UNK         0.0000 
      3 C3          7.0872   55.3779   19.5406 C.ar      1 UNK         0.0000 
      4 C4          8.2207   54.8967   18.8714 C.ar      1 UNK         0.0000 
      5 C5          8.0834   54.2507   17.6439 C.ar      1 UNK         0.0000 
      6 C6          6.8200   54.0762   17.0728 C.ar      1 UNK         0.0000 
      7 C7          5.6770   54.5530   17.7350 C.ar      1 UNK         0.0000 
      8 C8          5.8384   55.2149   18.9563 C.ar      1 UNK         0.0000 
      9 C9          4.2883   54.4615   17.0872 C.3       1 UNK         0.0000 
     10 H10         4.3023   53.6267   16.3845 H         1 UNK         0.0000 
     11 C11         3.9111   55.7691   16.3104 C.3       1 UNK         0.0000 
     12 H12         4.6402   55.8724   15.5022 H         1 UNK         0.0000 
     13 C13         4.0515   57.0905   17.1332 C.3       1 UNK         0.0000 
     14 C14         3.5524   58.3596   16.4147 C.3       1 UNK         0.0000 
     15 C15         2.1752   58.1806   15.7554 C.3       1 UNK         0.0000 
     16 C16         2.1660   56.9464   14.8354 C.3       1 UNK         0.0000 
     17 C17         2.5376   55.6416   15.5831 C.3       1 UNK         0.0000 
     18 C18         1.4801   55.2451   16.6397 C.3       1 UNK         0.0000 
     19 C19         1.7992   53.9128   17.3363 C.3       1 UNK         0.0000 
     20 C20         3.3947   52.7057   18.8489 C.3       1 UNK         0.0000 
     21 C21         4.0844   52.8740   20.2169 C.2       1 UNK         0.0000 
     22 O22         5.0986   52.2162   20.4550 O.2       1 UNK         0.0000 
     23 N23         3.5047   53.6840   21.1318 N.am      1 UNK         0.0000 
     24 C24         3.9868   53.9275   22.4318 C.ar      1 UNK         0.0000 
     25 C25         3.0798   54.0048   23.4895 C.ar      1 UNK         0.0000 
     26 C26         3.5442   54.2122   24.7872 C.ar      1 UNK         0.0000 
     27 C27         4.9143   54.3818   25.0419 C.ar      1 UNK         0.0000 
     28 C28         5.8118   54.3348   23.9685 C.ar      1 UNK         0.0000 
     29 C29         5.3511   54.1123   22.6773 C.ar      1 UNK         0.0000 
     30 N30         5.4149   54.6041   26.4229 N.pl3     1 UNK         0.0000 
     31 O31         4.6239   54.4969   27.3571 O.co2     1 UNK         0.0000 
     32 O32         6.6006   54.8937   26.5723 O.co2     1 UNK         0.0000 
     33 O33         2.5921   54.6139   14.6100 O.3       1 UNK         0.0000 
     34 O34         6.7346   53.5154   15.8249 O.3       1 UNK         0.0000 
     35 C35         6.6416   52.0973   15.8222 C.3       1 UNK         0.0000 
     36 H36         7.9044   56.0971   22.6228 H         1 UNK         0.0000 
     37 H37         8.3040   54.6294   21.7506 H         1 UNK         0.0000 
     38 H38         9.1046   56.1510   21.3201 H         1 UNK         0.0000 
     39 H39         9.2092   55.0251   19.2830 H         1 UNK         0.0000 
     40 H40         8.9600   53.8987   17.1193 H         1 UNK         0.0000 
     41 H41         4.9829   55.6157   19.4715 H         1 UNK         0.0000 
     42 H42         3.5044   56.9870   18.0670 H         1 UNK         0.0000 
     43 H43         5.0859   57.2445   17.4406 H         1 UNK         0.0000 
     44 H44         3.5220   59.1997   17.1134 H         1 UNK         0.0000 
     45 H45         4.2794   58.6424   15.6487 H         1 UNK         0.0000 
     46 H46         1.3994   58.0988   16.5174 H         1 UNK         0.0000 
     47 H47         1.9319   59.0768   15.1818 H         1 UNK         0.0000 
     48 H48         2.8703   57.1318   14.0226 H         1 UNK         0.0000 
     49 H49         1.1606   56.8725   14.4169 H         1 UNK         0.0000 
     50 H50         0.4836   55.2333   16.1939 H         1 UNK         0.0000 
     51 H51         1.4004   56.0207   17.3995 H         1 UNK         0.0000 
     52 H52         1.8754   53.0665   16.6507 H         1 UNK         0.0000 
     53 H53         1.0339   53.7142   18.0884 H         1 UNK         0.0000 
     54 H54         3.9047   52.0288   18.1652 H         1 UNK         0.0000 
     55 H55         2.4221   52.2531   19.0532 H         1 UNK         0.0000 
     56 H56         2.5966   54.0740   20.9082 H         1 UNK         0.0000 
     57 H57         2.0217   53.8671   23.3161 H         1 UNK         0.0000 
     58 H58         2.8307   54.2315   25.5996 H         1 UNK         0.0000 
     59 H59         6.8737   54.4647   24.1288 H         1 UNK         0.0000 
     60 H60         6.0525   54.0941   21.8627 H         1 UNK         0.0000 
     61 H61         1.7552   54.5806   14.1423 H         1 UNK         0.0000 
     62 H62         6.8550   51.7226   14.8203 H         1 UNK         0.0000 
     63 H63         7.3502   51.6287   16.5096 H         1 UNK         0.0000 
     64 H64         5.6352   51.7732   16.0817 H         1 UNK         0.0000 
     65 N65         3.1503   54.0554   18.0897 N.4       1 UNK         0.0000 
     66 H66         2.9849   54.8115   18.7437 H         1 UNK         0.0000 
@<TRIPOS>BOND
     1    1    2 1    
     2    1   36 1    
     3    1   37 1    
     4    1   38 1    
     5    2    3 1    
     6    3    8 ar   
     7    3    4 ar   
     8    4    5 ar   
     9    4   39 1    
    10    5    6 ar   
    11    5   40 1    
    12    6    7 ar   
    13    6   34 1    
    14    7    8 ar   
    15    7    9 1    
    16    8   41 1    
    17    9   10 1    
    18    9   11 1    
    19    9   65 1    
    20   11   12 1    
    21   11   17 1    
    22   11   13 1    
    23   13   14 1    
    24   13   42 1    
    25   13   43 1    
    26   14   15 1    
    27   14   44 1    
    28   14   45 1    
    29   15   16 1    
    30   15   46 1    
    31   15   47 1    
    32   16   17 1    
    33   16   48 1    
    34   16   49 1    
    35   17   18 1    
    36   17   33 1    
    37   18   19 1    
    38   18   50 1    
    39   18   51 1    
    40   19   52 1    
    41   19   53 1    
    42   19   65 1    
    43   20   21 1    
    44   20   54 1    
    45   20   55 1    
    46   20   65 1    
    47   21   22 2    
    48   21   23 am   BACKBONE|DICT|INTERRES
    49   23   24 1    
    50   23   56 1    
    51   24   29 ar   
    52   24   25 ar   
    53   25   26 ar   
    54   25   57 1    
    55   26   27 ar   
    56   26   58 1    
    57   27   28 ar   
    58   27   30 1    
    59   28   29 ar   
    60   28   59 1    
    61   29   60 1    
    62   30   31 2    
    63   30   32 1    
    64   33   61 1    
    65   34   35 1    
    66   35   62 1    
    67   35   63 1    
    68   35   64 1    
    69   65   66 1    
@<TRIPOS>SUBSTRUCTURE
     1 UNK         1 GROUP             0       ****    0 ROOT    
