@<TRIPOS>MOLECULE
ZINC53619969_1347
48   50    1
SMALL
USER_CHARGES


@<TRIPOS>ATOM
      1 C1         11.1657   60.4301   17.6481 C.3       1 UNK         0.0000 
      2 C2         10.0770   59.4113   17.9210 C.ar      1 UNK         0.0000 
      3 C3         10.4199   58.0983   18.2458 C.ar      1 UNK         0.0000 
      4 C4          9.4232   57.1541   18.4784 C.ar      1 UNK         0.0000 
      5 C5          8.0690   57.5125   18.3775 C.ar      1 UNK         0.0000 
      6 C6          7.7339   58.8368   18.0515 C.ar      1 UNK         0.0000 
      7 C7          8.7335   59.7761   17.8191 C.ar      1 UNK         0.0000 
      8 C8          7.0237   56.5264   18.6268 C.2       1 UNK         0.0000 
      9 N9          7.1772   55.3257   19.1826 N.pl3     1 UNK         0.0000 
     10 C10         5.9012   54.6221   19.2774 C.3       1 UNK         0.0000 
     11 H11         5.9300   53.7047   18.6825 H         1 UNK         0.0000 
     12 O12         4.9982   55.5471   18.7293 O.3       1 UNK         0.0000 
     13 N13         5.7262   56.6494   18.3568 N.pl3     1 UNK         0.0000 
     14 C14         5.5008   54.3044   20.7091 C.2       1 UNK         0.0000 
     15 H15         4.5421   53.4819   24.9738 H         1 UNK         0.0000 
     16 C16         4.4553   53.4911   21.1737 C.2       1 UNK         0.0000 
     17 N17         4.3130   53.3932   22.4845 N.2       1 UNK         0.0000 
     18 C18         5.1987   54.0882   23.1453 C.2       1 UNK         0.0000 
     19 N19         5.2091   54.0976   24.5353 N.am      1 UNK         0.0000 
     20 C20         5.9819   54.8341   25.3668 C.2       1 UNK         0.0000 
     21 O21         6.7776   55.6964   25.0006 O.2       1 UNK         0.0000 
     22 C22         5.8733   54.5614   26.8789 C.3       1 UNK         0.0000 
     23 C23         4.6726   53.7134   27.3894 C.3       1 UNK         0.0000 
     24 C24         4.8474   53.3906   28.8799 C.3       1 UNK         0.0000 
     25 C25         3.2972   54.3732   27.1480 C.3       1 UNK         0.0000 
     26 S26         6.3412   54.9061   22.1235 S.3       1 UNK         0.0000 
     27 C27         3.4687   52.7041   20.3357 C.3       1 UNK         0.0000 
     28 H28        12.0000   59.9654   17.1191 H         1 UNK         0.0000 
     29 H29        10.8088   61.2396   17.0088 H         1 UNK         0.0000 
     30 H30        11.5469   60.8461   18.5801 H         1 UNK         0.0000 
     31 H31        11.4571   57.7997   18.3211 H         1 UNK         0.0000 
     32 H32         9.7293   56.1454   18.7230 H         1 UNK         0.0000 
     33 H33         6.7057   59.1637   17.9657 H         1 UNK         0.0000 
     34 H34         8.4418   60.7840   17.5531 H         1 UNK         0.0000 
     35 H35         5.1276   57.3467   17.9396 H         1 UNK         0.0000 
     36 H36         5.8680   55.5235   27.3922 H         1 UNK         0.0000 
     37 H37         6.8087   54.0880   27.1851 H         1 UNK         0.0000 
     38 H38         4.6924   52.7516   26.8746 H         1 UNK         0.0000 
     39 H39         4.8220   54.2902   29.4949 H         1 UNK         0.0000 
     40 H40         5.8003   52.8969   29.0533 H         1 UNK         0.0000 
     41 H41         4.0655   52.7195   29.2393 H         1 UNK         0.0000 
     42 H42         3.2044   55.3015   27.7099 H         1 UNK         0.0000 
     43 H43         3.1226   54.6031   26.0973 H         1 UNK         0.0000 
     44 H44         2.4848   53.7205   27.4738 H         1 UNK         0.0000 
     45 H45         3.9140   51.7800   19.9598 H         1 UNK         0.0000 
     46 H46         2.5597   52.4304   20.8723 H         1 UNK         0.0000 
     47 H47         3.1503   53.2766   19.4632 H         1 UNK         0.0000 
     48 H48         8.0575   54.9319   19.4764 H         1 UNK         0.0000 
@<TRIPOS>BOND
     1    1    2 1    
     2    1   28 1    
     3    1   29 1    
     4    1   30 1    
     5    2    7 ar   
     6    2    3 ar   
     7    3    4 ar   
     8    3   31 1    
     9    4    5 ar   
    10    4   32 1    
    11    5    6 ar   
    12    5    8 1    
    13    6    7 ar   
    14    6   33 1    
    15    7   34 1    
    16    8   13 1    
    17    8    9 2    
    18    9   10 1    
    19    9   48 1    
    20   10   11 1    
    21   10   12 1    
    22   10   14 1    
    23   12   13 1    
    24   13   35 1    
    25   14   16 2    
    26   14   26 1    
    27   15   19 1    
    28   16   17 1    
    29   16   27 1    
    30   17   18 2    
    31   18   26 1    
    32   18   19 am   BACKBONE|DICT|INTERRES
    33   19   20 am   BACKBONE|DICT|INTERRES
    34   20   22 1    
    35   20   21 2    
    36   22   23 1    
    37   22   36 1    
    38   22   37 1    
    39   23   24 1    
    40   23   25 1    
    41   23   38 1    
    42   24   39 1    
    43   24   40 1    
    44   24   41 1    
    45   25   42 1    
    46   25   43 1    
    47   25   44 1    
    48   27   45 1    
    49   27   46 1    
    50   27   47 1    
@<TRIPOS>SUBSTRUCTURE
     1 UNK         1 GROUP             0       ****    0 ROOT    
