@<TRIPOS>MOLECULE
ZINC17136303_4622
68   72    1
SMALL
USER_CHARGES


@<TRIPOS>ATOM
      1 C1         -0.0595   52.9009   23.8902 C.3       1 UNK         0.0000 
      2 C2          1.1848   52.1091   23.4482 C.3       1 UNK         0.0000 
      3 C3          1.1850   51.7479   21.9470 C.3       1 UNK         0.0000 
      4 O4          2.4056   52.7037   23.9100 O.3       1 UNK         0.0000 
      5 C5          2.9777   53.8166   23.3628 C.2       1 UNK         0.0000 
      6 O6          2.4784   54.4967   22.4819 O.2       1 UNK         0.0000 
      7 C7          4.2860   54.1242   23.9564 C.2       1 UNK         0.0000 
      8 C8          5.4861   54.4671   23.2541 C.2       1 UNK         0.0000 
      9 C9          6.5031   54.8293   24.1420 C.2       1 UNK         0.0000 
     10 S10         6.1014   54.6527   25.8020 S.3       1 UNK         0.0000 
     11 C11         4.5046   54.1402   25.3411 C.2       1 UNK         0.0000 
     12 N12         3.5244   53.8259   26.2624 N.am      1 UNK         0.0000 
     13 C13         3.6871   53.2818   27.4740 C.2       1 UNK         0.0000 
     14 O14         4.7902   53.0337   27.9594 O.2       1 UNK         0.0000 
     15 C15         2.3806   52.6561   28.0500 C.3       1 UNK         0.0000 
     16 H16         2.2810   51.7300   27.4811 H         1 UNK         0.0000 
     17 C17         1.1293   53.5146   27.8125 C.3       1 UNK         0.0000 
     18 H18         0.8025   53.5316   26.7769 H         1 UNK         0.0000 
     19 C19         1.1226   54.8832   28.5003 C.3       1 UNK         0.0000 
     20 C20         0.8787   54.4973   29.9586 C.3       1 UNK         0.0000 
     21 C21         0.9045   52.9560   29.9087 C.3       1 UNK         0.0000 
     22 H22         0.3838   52.4821   30.7432 H         1 UNK         0.0000 
     23 C23         2.2625   52.2936   29.5560 C.3       1 UNK         0.0000 
     24 H24         2.0947   51.2190   29.5988 H         1 UNK         0.0000 
     25 C25         3.4023   52.5928   30.5316 C.2       1 UNK         0.0000 
     26 O26         3.9038   53.7357   30.4818 O.co2     1 UNK         0.0000 
     27 O27         0.2347   52.8211   28.6643 O.3       1 UNK         0.0000 
     28 C28         5.7206   54.4972   21.7641 C.ar      1 UNK         0.0000 
     29 C29         5.0643   53.6069   20.9061 C.ar      1 UNK         0.0000 
     30 C30         5.3439   53.5893   19.5435 C.ar      1 UNK         0.0000 
     31 C31         6.2984   54.4588   19.0052 C.ar      1 UNK         0.0000 
     32 C32         6.9330   55.3738   19.8518 C.ar      1 UNK         0.0000 
     33 C33         6.6530   55.3880   21.2160 C.ar      1 UNK         0.0000 
     34 C34         6.6632   54.4372   17.5121 C.3       1 UNK         0.0000 
     35 C35         8.1508   54.0562   17.2850 C.3       1 UNK         0.0000 
     36 C36         8.5468   54.0853   15.7959 C.3       1 UNK         0.0000 
     37 C37         7.5894   53.2537   14.9227 C.3       1 UNK         0.0000 
     38 C38         6.1271   53.6979   15.1108 C.3       1 UNK         0.0000 
     39 C39         5.6973   53.6447   16.5892 C.3       1 UNK         0.0000 
     40 H40        -0.9591   52.5356   23.3937 H         1 UNK         0.0000 
     41 H41        -0.2260   52.7899   24.9600 H         1 UNK         0.0000 
     42 H42         0.0286   53.9670   23.6818 H         1 UNK         0.0000 
     43 H43         1.1351   51.1548   23.9745 H         1 UNK         0.0000 
     44 H44         0.3042   51.1614   21.6873 H         1 UNK         0.0000 
     45 H45         1.1816   52.6318   21.3108 H         1 UNK         0.0000 
     46 H46         2.0610   51.1539   21.6887 H         1 UNK         0.0000 
     47 H47         7.5034   55.1444   23.8896 H         1 UNK         0.0000 
     48 H48         2.6079   53.7114   25.8589 H         1 UNK         0.0000 
     49 H49         2.0580   55.4278   28.3636 H         1 UNK         0.0000 
     50 H50         0.3213   55.4910   28.0815 H         1 UNK         0.0000 
     51 H51        -0.0952   54.8495   30.2955 H         1 UNK         0.0000 
     52 H52         1.6200   54.9207   30.6327 H         1 UNK         0.0000 
     53 H53         4.3586   52.8846   21.2841 H         1 UNK         0.0000 
     54 H54         4.8311   52.8658   18.9274 H         1 UNK         0.0000 
     55 H55         7.6647   56.0637   19.4560 H         1 UNK         0.0000 
     56 H56         7.1785   56.0911   21.8450 H         1 UNK         0.0000 
     57 H57         6.6071   55.4926   17.2358 H         1 UNK         0.0000 
     58 H58         8.3406   53.0552   17.6747 H         1 UNK         0.0000 
     59 H59         8.8106   54.7495   17.8085 H         1 UNK         0.0000 
     60 H60         9.5680   53.7198   15.6780 H         1 UNK         0.0000 
     61 H61         8.5519   55.1176   15.4427 H         1 UNK         0.0000 
     62 H62         7.6878   52.1972   15.1790 H         1 UNK         0.0000 
     63 H63         7.8736   53.3407   13.8730 H         1 UNK         0.0000 
     64 H64         5.4677   53.0686   14.5111 H         1 UNK         0.0000 
     65 H65         6.0039   54.7137   14.7320 H         1 UNK         0.0000 
     66 H66         4.6898   54.0576   16.6610 H         1 UNK         0.0000 
     67 H67         5.6605   52.5953   16.8862 H         1 UNK         0.0000 
     68 O68         3.7194   51.6967   31.3414 O.co2     1 UNK         0.0000 
@<TRIPOS>BOND
     1    1    2 1    
     2    1   40 1    
     3    1   41 1    
     4    1   42 1    
     5    2    3 1    
     6    2    4 1    
     7    2   43 1    
     8    3   44 1    
     9    3   45 1    
    10    3   46 1    
    11    4    5 1    
    12    5    6 2    
    13    5    7 1    
    14    7   11 2    
    15    7    8 1    
    16    8    9 2    
    17    8   28 1    
    18    9   10 1    
    19    9   47 1    
    20   10   11 1    
    21   11   12 am   BACKBONE|DICT|INTERRES
    22   12   13 am   BACKBONE|DICT|INTERRES
    23   12   48 1    
    24   13   14 2    
    25   13   15 1    
    26   15   16 1    
    27   15   23 1    
    28   15   17 1    
    29   17   18 1    
    30   17   27 1    
    31   17   19 1    
    32   19   20 1    
    33   19   49 1    
    34   19   50 1    
    35   20   21 1    
    36   20   51 1    
    37   20   52 1    
    38   21   22 1    
    39   21   23 1    
    40   21   27 1    
    41   23   24 1    
    42   23   25 1    
    43   25   26 2    
    44   25   68 1    
    45   28   33 ar   
    46   28   29 ar   
    47   29   30 ar   
    48   29   53 1    
    49   30   31 ar   
    50   30   54 1    
    51   31   32 ar   
    52   31   34 1    
    53   32   33 ar   
    54   32   55 1    
    55   33   56 1    
    56   34   39 1    
    57   34   35 1    
    58   34   57 1    
    59   35   36 1    
    60   35   58 1    
    61   35   59 1    
    62   36   37 1    
    63   36   60 1    
    64   36   61 1    
    65   37   38 1    
    66   37   62 1    
    67   37   63 1    
    68   38   39 1    
    69   38   64 1    
    70   38   65 1    
    71   39   66 1    
    72   39   67 1    
@<TRIPOS>SUBSTRUCTURE
     1 UNK         1 GROUP             0       ****    0 ROOT    
