@<TRIPOS>MOLECULE
ZINC09281664_4205
59   65    1
SMALL
USER_CHARGES


@<TRIPOS>ATOM
      1 C1          0.5200   51.6452   27.5148 C.ar      1 UNK         0.0000 
      2 C2          0.0811   50.4967   26.8719 C.ar      1 UNK         0.0000 
      3 C3         -1.1732   50.4764   26.2699 C.ar      1 UNK         0.0000 
      4 C4         -1.9820   51.6086   26.2233 C.ar      1 UNK         0.0000 
      5 C5         -1.5168   52.7523   26.8750 C.ar      1 UNK         0.0000 
      6 C6         -0.2887   52.7730   27.5395 C.ar      1 UNK         0.0000 
      7 C7         -3.3436   51.6049   25.5712 C.ar      1 UNK         0.0000 
      8 C8         -3.8134   51.0312   24.3415 C.ar      1 UNK         0.0000 
      9 C9         -5.1671   51.3027   24.3775 C.ar      1 UNK         0.0000 
     10 N10        -5.4272   52.0390   25.4850 N.pl3     1 UNK         0.0000 
     11 H11        -6.3338   52.3908   25.7543 H         1 UNK         0.0000 
     12 N12        -4.3223   52.2406   26.2021 N.2       1 UNK         0.0000 
     13 O13        -6.1494   50.9265   23.4994 O.3       1 UNK         0.0000 
     14 C14        -5.7027   50.1623   22.4657 C.2       1 UNK         0.0000 
     15 C15        -4.4161   49.8099   22.2166 C.2       1 UNK         0.0000 
     16 C16        -3.2460   50.2356   23.1403 C.3       1 UNK         0.0000 
     17 C17        -2.4237   49.0851   23.5952 C.ar      1 UNK         0.0000 
     18 C18        -2.7660   47.9582   24.3484 C.ar      1 UNK         0.0000 
     19 C19        -1.7526   47.1139   24.7990 C.ar      1 UNK         0.0000 
     20 C20        -0.4260   47.4042   24.4818 C.ar      1 UNK         0.0000 
     21 C21        -0.0949   48.4967   23.6803 C.ar      1 UNK         0.0000 
     22 C22        -1.1125   49.3252   23.2273 C.ar      1 UNK         0.0000 
     23 N23        -1.0294   50.4828   22.4603 N.am      1 UNK         0.0000 
     24 C24        -2.2354   51.0836   22.3344 C.2       1 UNK         0.0000 
     25 O25        -2.4952   52.0967   21.6872 O.2       1 UNK         0.0000 
     26 C26         0.1668   51.0007   21.7723 C.3       1 UNK         0.0000 
     27 C27         1.0573   52.0051   22.5197 C.ar      1 UNK         0.0000 
     28 C28         0.6974   52.5138   23.7698 C.ar      1 UNK         0.0000 
     29 C29         1.5034   53.4264   24.4357 C.ar      1 UNK         0.0000 
     30 C30         2.6923   53.8671   23.8705 C.ar      1 UNK         0.0000 
     31 C31         3.1023   53.3880   22.6058 C.ar      1 UNK         0.0000 
     32 C32         2.2810   52.4413   21.9103 C.ar      1 UNK         0.0000 
     33 C33         2.7247   51.9860   20.6343 C.ar      1 UNK         0.0000 
     34 C34         3.9161   52.4501   20.0844 C.ar      1 UNK         0.0000 
     35 C35         4.7050   53.3637   20.7694 C.ar      1 UNK         0.0000 
     36 C36         4.3135   53.8324   22.0182 C.ar      1 UNK         0.0000 
     37 C37        -4.1332   48.9951   21.0757 C.1       1 UNK         0.0000 
     38 N38        -3.9240   48.3267   20.1550 N.1       1 UNK         0.0000 
     39 N39        -6.7941   49.8505   21.7006 N.pl3     1 UNK         0.0000 
     40 H40         1.4801   51.6533   28.0092 H         1 UNK         0.0000 
     41 H41         0.6799   49.5971   26.8788 H         1 UNK         0.0000 
     42 H42        -1.5266   49.5389   25.8982 H         1 UNK         0.0000 
     43 H43        -2.1199   53.6469   26.8700 H         1 UNK         0.0000 
     44 H44         0.0405   53.6673   28.0497 H         1 UNK         0.0000 
     45 H45        -3.7881   47.7714   24.6438 H         1 UNK         0.0000 
     46 H46        -1.9831   46.2787   25.4441 H         1 UNK         0.0000 
     47 H47         0.3690   46.8015   24.8816 H         1 UNK         0.0000 
     48 H48         0.9432   48.7002   23.4570 H         1 UNK         0.0000 
     49 H49         0.7885   50.1446   21.5098 H         1 UNK         0.0000 
     50 H50        -0.1252   51.4669   20.8288 H         1 UNK         0.0000 
     51 H51        -0.2221   52.2059   24.2401 H         1 UNK         0.0000 
     52 H52         1.2006   53.7991   25.4020 H         1 UNK         0.0000 
     53 H53         3.3095   54.5833   24.3947 H         1 UNK         0.0000 
     54 H54         2.1364   51.2785   20.0697 H         1 UNK         0.0000 
     55 H55         4.2340   52.0964   19.1131 H         1 UNK         0.0000 
     56 H56         5.6239   53.7146   20.3226 H         1 UNK         0.0000 
     57 H57         4.9294   54.5466   22.5456 H         1 UNK         0.0000 
     58 H58        -6.7060   49.2371   20.9038 H         1 UNK         0.0000 
     59 H59        -7.6326   50.4084   21.7697 H         1 UNK         0.0000 
@<TRIPOS>BOND
     1    1    6 ar   
     2    1    2 ar   
     3    1   40 1    
     4    2    3 ar   
     5    2   41 1    
     6    3    4 ar   
     7    3   42 1    
     8    4    5 ar   
     9    4    7 1    
    10    5    6 ar   
    11    5   43 1    
    12    6   44 1    
    13    7   12 ar   
    14    7    8 ar   
    15    8   16 1    
    16    8    9 ar   
    17    9   10 ar   
    18    9   13 1    
    19   10   11 1    
    20   10   12 ar   
    21   13   14 1    
    22   14   15 2    
    23   14   39 1    
    24   15   16 1    
    25   15   37 1    
    26   16   24 1    
    27   16   17 1    
    28   17   22 ar   
    29   17   18 ar   
    30   18   19 ar   
    31   18   45 1    
    32   19   20 ar   
    33   19   46 1    
    34   20   21 ar   
    35   20   47 1    
    36   21   22 ar   
    37   21   48 1    
    38   22   23 1    
    39   23   24 am   BACKBONE|DICT|INTERRES
    40   23   26 1    
    41   24   25 2    
    42   26   27 1    
    43   26   49 1    
    44   26   50 1    
    45   27   32 ar   
    46   27   28 ar   
    47   28   29 ar   
    48   28   51 1    
    49   29   30 ar   
    50   29   52 1    
    51   30   31 ar   
    52   30   53 1    
    53   31   36 ar   
    54   31   32 ar   
    55   32   33 ar   
    56   33   34 ar   
    57   33   54 1    
    58   34   35 ar   
    59   34   55 1    
    60   35   36 ar   
    61   35   56 1    
    62   36   57 1    
    63   37   38 3    
    64   39   58 1    
    65   39   59 1    
@<TRIPOS>SUBSTRUCTURE
     1 UNK         1 GROUP             0       ****    0 ROOT    
