ZINC16125287_2400
                    3D
 Schrodinger Suite 2024-2.
 55 58  0  0  1  0            999 V2000
    3.6042   53.9412   23.6447 C   0  0  0  0  0  0
    4.0532   54.0975   25.0861 C   0  0  0  0  0  0
    5.4117   54.1742   25.4019 C   0  0  0  0  0  0
    5.8165   54.3060   26.7297 C   0  0  0  0  0  0
    4.8702   54.3803   27.7565 C   0  0  0  0  0  0
    3.5034   54.3130   27.4397 C   0  0  0  0  0  0
    3.1045   54.1584   26.1081 C   0  0  0  0  0  0
    2.5228   54.4275   28.4439 N   0  0  0  0  0  0
    1.9609   55.5930   28.9028 C   0  0  0  0  0  0
    1.1081   55.2246   29.9266 C   0  0  0  0  0  0
    1.1106   53.9191   30.1067 N   0  0  0  0  0  0
    1.9467   53.4343   29.2142 C   0  0  0  0  0  0
    2.2839   51.7060   29.0784 S   0  0  0  0  0  0
    1.3260   51.3730   27.5621 C   0  0  0  0  0  0
   -0.1995   51.5795   27.6590 C   0  0  0  0  0  0
   -0.7128   51.6964   28.7737 O   0  0  0  0  0  0
   -0.9379   51.6445   26.5163 N   0  0  0  0  0  0
   -2.3325   51.8104   26.4475 C   0  0  0  0  0  0
   -3.3265   51.4005   27.3437 C   0  0  0  0  0  0
   -4.6621   51.6922   27.0678 C   0  0  0  0  0  0
   -5.0026   52.3635   25.8882 C   0  0  0  0  0  0
   -4.0133   52.6806   24.9516 C   0  0  0  0  0  0
   -2.6837   52.3499   25.2139 C   0  0  0  0  0  0
   -1.4421   52.5943   24.4088 C   0  0  0  0  0  0
   -0.3576   51.8152   25.1697 C   0  0  2  0  0  0
    0.5544   52.4100   25.1492 H   0  0  0  0  0  0
   -0.0723   50.4360   24.5347 C   0  0  0  0  0  0
   -6.6901   52.8501   25.5748 S   0  0  0  0  0  0
   -6.6598   54.2916   25.3159 O   0  0  0  0  0  0
   -7.5293   52.2764   26.6309 O   0  0  0  0  0  0
   -7.1121   52.0628   24.0818 N   0  0  0  0  0  0
    5.3510   54.4966   29.1928 C   0  0  0  0  0  0
    4.4147   53.5945   23.0023 H   0  0  0  0  0  0
    2.8048   53.2026   23.5755 H   0  0  0  0  0  0
    3.2215   54.8871   23.2589 H   0  0  0  0  0  0
    6.1568   54.1199   24.6215 H   0  0  0  0  0  0
    6.8710   54.3472   26.9607 H   0  0  0  0  0  0
    2.0537   54.1013   25.8617 H   0  0  0  0  0  0
    2.2307   56.5495   28.4823 H   0  0  0  0  0  0
    0.5053   55.8840   30.5343 H   0  0  0  0  0  0
    1.4989   50.3340   27.2845 H   0  0  0  0  0  0
    1.7594   51.9846   26.7808 H   0  0  0  0  0  0
   -3.0741   50.8846   28.2607 H   0  0  0  0  0  0
   -5.4220   51.4128   27.7833 H   0  0  0  0  0  0
   -4.2863   53.1810   24.0342 H   0  0  0  0  0  0
   -1.5057   52.3111   23.3570 H   0  0  0  0  0  0
   -1.2010   53.6588   24.4209 H   0  0  0  0  0  0
    0.3599   50.5519   23.5405 H   0  0  0  0  0  0
    0.6268   49.8445   25.1265 H   0  0  0  0  0  0
   -0.9871   49.8533   24.4124 H   0  0  0  0  0  0
   -7.8571   51.3675   24.1544 H   0  0  0  0  0  0
   -7.1446   52.6647   23.2487 H   0  0  0  0  0  0
    6.3601   54.0926   29.2798 H   0  0  0  0  0  0
    5.3606   55.5294   29.5393 H   0  0  0  0  0  0
    4.7042   53.9204   29.8582 H   0  0  0  0  0  0
  1  2  1  0  0  0
  1 33  1  0  0  0
  1 34  1  0  0  0
  1 35  1  0  0  0
  2  7  2  0  0  0
  2  3  1  0  0  0
  3  4  2  0  0  0
  3 36  1  0  0  0
  4  5  1  0  0  0
  4 37  1  0  0  0
  5  6  2  0  0  0
  5 32  1  0  0  0
  6  7  1  0  0  0
  6  8  1  0  0  0
  7 38  1  0  0  0
  8 12  1  0  0  0
  8  9  1  0  0  0
  9 10  2  0  0  0
  9 39  1  0  0  0
 10 11  1  0  0  0
 10 40  1  0  0  0
 11 12  2  0  0  0
 12 13  1  0  0  0
 13 14  1  0  0  0
 14 15  1  0  0  0
 14 41  1  0  0  0
 14 42  1  0  0  0
 15 16  2  0  0  0
 15 17  1  0  0  0
 17 25  1  0  0  0
 17 18  1  0  0  0
 18 23  2  0  0  0
 18 19  1  0  0  0
 19 20  2  0  0  0
 19 43  1  0  0  0
 20 21  1  0  0  0
 20 44  1  0  0  0
 21 22  2  0  0  0
 21 28  1  0  0  0
 22 23  1  0  0  0
 22 45  1  0  0  0
 23 24  1  0  0  0
 24 25  1  0  0  0
 24 46  1  0  0  0
 24 47  1  0  0  0
 25 26  1  0  0  0
 25 27  1  0  0  0
 27 48  1  0  0  0
 27 49  1  0  0  0
 27 50  1  0  0  0
 28 29  2  0  0  0
 28 30  2  0  0  0
 28 31  1  0  0  0
 31 51  1  0  0  0
 31 52  1  0  0  0
 32 53  1  0  0  0
 32 54  1  0  0  0
 32 55  1  0  0  0
M  END
> <i_i_glide_confnum>
153

> <i_i_glide_lignum>
2401

> <i_i_glide_posenum>
65

> <i_i_glide_rotatable_bonds>
6

> <i_m_Source_File_Index>
1261

> <b_m_subgroup_collapsed>
0

> <r_i_docking_score>
-5.79705

> <r_i_glide_ecoul>
-4.95289

> <r_i_glide_eff_state_penalty>
0

> <r_i_glide_einternal>
2.73838

> <r_i_glide_emodel>
-61.2301

> <r_i_glide_energy>
-47.5923

> <r_i_glide_erotb>
0.482044

> <r_i_glide_esite>
-0.109365

> <r_i_glide_evdw>
-42.6394

> <r_i_glide_gscore>
-5.79705

> <r_i_glide_hbond>
-0.32

> <r_i_glide_ligand_efficiency>
-0.187002

> <r_i_glide_ligand_efficiency_ln>
-1.30741

> <r_i_glide_ligand_efficiency_sa>
-0.587443

> <r_i_glide_lipo>
-2.85416

> <r_i_glide_metal>
0

> <r_i_glide_rewards>
-0.120671

> <s_i_glide_gridfile>
wee1_glide-grid

> <s_m_Source_File>
wee1_decoys_glide_SP.sdf

> <s_m_Source_Path>
/Users/zhangxujun/Desktop

> <s_m_entry_id>
1536

> <s_m_entry_name>
wee1_decoys_glide_SP.1261

> <s_m_subgroup_title>
wee1_decoys_glide_SP

> <s_m_subgroupid>
wee1_decoys_glide_SP


$$$$
