ZINC40378769_1790
                    3D
 Schrodinger Suite 2024-2.
 28 29  0  0  1  0            999 V2000
   -0.3978   51.9316   29.6817 C   0  0  0  0  0  0
    0.7397   52.1970   30.4418 C   0  0  0  0  0  0
    1.9529   52.4967   29.8233 C   0  0  0  0  0  0
    1.9936   52.6298   28.4206 C   0  0  0  0  0  0
    0.8517   52.3506   27.6640 C   0  0  0  0  0  0
   -0.3410   51.9914   28.2876 C   0  0  0  0  0  0
   -1.7625   51.5785   27.2817 S   0  0  0  0  0  0
   -2.8911   51.2967   28.1735 O   0  0  0  0  0  0
   -1.8736   52.6006   26.2378 O   0  0  0  0  0  0
   -1.3298   50.0967   26.4817 N   0  0  0  0  0  0
    3.1394   52.9422   27.6852 N   0  0  0  0  0  0
    3.9098   54.0363   27.8347 C   0  0  0  0  0  0
    3.9043   54.7890   28.8109 O   0  0  0  0  0  0
    4.7472   54.2904   26.6923 C   0  0  0  0  0  0
    4.3629   54.0967   25.3472 C   0  0  0  0  0  0
    5.3264   54.4967   24.4350 C   0  0  0  0  0  0
    6.7044   55.1842   25.2138 S   0  0  0  0  0  0
    5.9984   54.8967   26.7691 C   0  0  0  0  0  0
    3.3682   52.5710   30.8207 Cl  0  0  0  0  0  0
   -1.2956   51.6209   30.1911 H   0  0  0  0  0  0
    0.6872   52.0970   31.5176 H   0  0  0  0  0  0
    0.8838   52.4022   26.5841 H   0  0  0  0  0  0
   -1.3173   49.3168   27.1706 H   0  0  0  0  0  0
   -2.0153   49.8547   25.7659 H   0  0  0  0  0  0
    3.2405   52.4594   26.8056 H   0  0  0  0  0  0
    3.4124   53.6834   25.0411 H   0  0  0  0  0  0
    5.2798   54.4466   23.3569 H   0  0  0  0  0  0
    6.5199   55.1961   27.6677 H   0  0  0  0  0  0
  1  6  2  0  0  0
  1  2  1  0  0  0
  1 20  1  0  0  0
  2  3  2  0  0  0
  2 21  1  0  0  0
  3  4  1  0  0  0
  3 19  1  0  0  0
  4  5  2  0  0  0
  4 11  1  0  0  0
  5  6  1  0  0  0
  5 22  1  0  0  0
  6  7  1  0  0  0
  7  8  2  0  0  0
  7  9  2  0  0  0
  7 10  1  0  0  0
 10 23  1  0  0  0
 10 24  1  0  0  0
 11 12  1  0  0  0
 11 25  1  0  0  0
 12 13  2  0  0  0
 12 14  1  0  0  0
 14 18  2  0  0  0
 14 15  1  0  0  0
 15 16  2  0  0  0
 15 26  1  0  0  0
 16 17  1  0  0  0
 16 27  1  0  0  0
 17 18  1  0  0  0
 18 28  1  0  0  0
M  END
> <i_i_glide_confnum>
5

> <i_i_glide_lignum>
1791

> <i_i_glide_posenum>
333

> <i_i_glide_rotatable_bonds>
4

> <i_m_Source_File_Index>
2384

> <b_m_subgroup_collapsed>
0

> <r_i_docking_score>
-5.72911

> <r_i_glide_ecoul>
-8.66194

> <r_i_glide_eff_state_penalty>
0

> <r_i_glide_einternal>
8.27349

> <r_i_glide_emodel>
-51.9901

> <r_i_glide_energy>
-41.8575

> <r_i_glide_erotb>
0.556685

> <r_i_glide_esite>
-0.247217

> <r_i_glide_evdw>
-33.1956

> <r_i_glide_gscore>
-5.72911

> <r_i_glide_hbond>
-0.16

> <r_i_glide_ligand_efficiency>
-0.301532

> <r_i_glide_ligand_efficiency_ln>
-1.45245

> <r_i_glide_ligand_efficiency_sa>
-0.804609

> <r_i_glide_lipo>
-1.7049

> <r_i_glide_metal>
0

> <r_i_glide_rewards>
-1.21461

> <s_i_glide_gridfile>
wee1_glide-grid

> <s_m_Source_File>
wee1_decoys_glide_SP.sdf

> <s_m_Source_Path>
/Users/zhangxujun/Desktop

> <s_m_entry_id>
2659

> <s_m_entry_name>
wee1_decoys_glide_SP.2384

> <s_m_subgroup_title>
wee1_decoys_glide_SP

> <s_m_subgroupid>
wee1_decoys_glide_SP


$$$$
