@<TRIPOS>MOLECULE
ZINC02502491_1481
46   49    1
SMALL
USER_CHARGES


@<TRIPOS>ATOM
      1 C1          5.3635   54.2274   23.0313 C.3       1 UNK         0.0000 
      2 O2          5.2420   54.4987   24.4240 O.3       1 UNK         0.0000 
      3 C3          4.1011   54.1029   25.1021 C.ar      1 UNK         0.0000 
      4 C4          2.9909   53.5083   24.4825 C.ar      1 UNK         0.0000 
      5 C5          1.8801   53.0691   25.2167 C.ar      1 UNK         0.0000 
      6 C6          1.8821   53.3070   26.5979 C.ar      1 UNK         0.0000 
      7 C7          2.9602   53.9320   27.2449 C.ar      1 UNK         0.0000 
      8 C8          4.0786   54.3028   26.4875 C.ar      1 UNK         0.0000 
      9 O9          5.1615   54.8884   27.1030 O.3       1 UNK         0.0000 
     10 C10         6.1204   53.9572   27.5895 C.3       1 UNK         0.0000 
     11 O11         2.9874   54.2024   28.6032 O.3       1 UNK         0.0000 
     12 C12         1.8463   53.8954   29.3994 C.3       1 UNK         0.0000 
     13 C13         0.6945   52.3291   24.5377 C.3       1 UNK         0.0000 
     14 H14        -0.0296   53.1141   24.3127 H         1 UNK         0.0000 
     15 C15         1.0788   51.6305   23.2137 C.ar      1 UNK         0.0000 
     16 C16         1.1667   52.3158   21.9851 C.ar      1 UNK         0.0000 
     17 C17         1.5973   51.6178   20.8608 C.ar      1 UNK         0.0000 
     18 C18         1.9026   50.2880   20.9118 C.ar      1 UNK         0.0000 
     19 C19         1.7703   49.5527   22.0797 C.ar      1 UNK         0.0000 
     20 C20         1.3317   50.2343   23.2196 C.ar      1 UNK         0.0000 
     21 O21         1.1051   49.4643   24.3413 O.3       1 UNK         0.0000 
     22 C22         0.2986   49.9635   25.3021 C.2       1 UNK         0.0000 
     23 C23         0.0026   51.2749   25.4266 C.2       1 UNK         0.0000 
     24 C24        -0.9377   51.7062   26.4052 C.1       1 UNK         0.0000 
     25 N25        -1.6938   52.0961   27.1853 N.1       1 UNK         0.0000 
     26 N26        -0.1163   48.9165   26.0808 N.pl3     1 UNK         0.0000 
     27 O27         2.2780   49.8625   19.6784 O.3       1 UNK         0.0000 
     28 C28         2.4426   51.0314   18.9212 C.3       1 UNK         0.0000 
     29 O29         1.7663   52.0652   19.5884 O.3       1 UNK         0.0000 
     30 H30         6.3309   54.5855   22.6795 H         1 UNK         0.0000 
     31 H31         5.3162   53.1567   22.8265 H         1 UNK         0.0000 
     32 H32         4.5925   54.7372   22.4513 H         1 UNK         0.0000 
     33 H33         3.0162   53.3551   23.4185 H         1 UNK         0.0000 
     34 H34         1.0310   53.0031   27.1807 H         1 UNK         0.0000 
     35 H35         6.9619   54.4961   28.0246 H         1 UNK         0.0000 
     36 H36         5.6986   53.3170   28.3660 H         1 UNK         0.0000 
     37 H37         6.5094   53.3234   26.7904 H         1 UNK         0.0000 
     38 H38         2.0228   54.2154   30.4257 H         1 UNK         0.0000 
     39 H39         0.9561   54.4181   29.0449 H         1 UNK         0.0000 
     40 H40         1.6485   52.8224   29.4189 H         1 UNK         0.0000 
     41 H41         0.9527   53.3718   21.9239 H         1 UNK         0.0000 
     42 H42         1.9829   48.4968   22.1174 H         1 UNK         0.0000 
     43 H43        -0.7913   49.0256   26.8344 H         1 UNK         0.0000 
     44 H44         0.3980   48.0434   26.0916 H         1 UNK         0.0000 
     45 H45         2.0763   50.8932   17.9033 H         1 UNK         0.0000 
     46 H46         3.5040   51.2783   18.8637 H         1 UNK         0.0000 
@<TRIPOS>BOND
     1    1    2 1    
     2    1   30 1    
     3    1   31 1    
     4    1   32 1    
     5    2    3 1    
     6    3    8 ar   
     7    3    4 ar   
     8    4    5 ar   
     9    4   33 1    
    10    5    6 ar   
    11    5   13 1    
    12    6    7 ar   
    13    6   34 1    
    14    7    8 ar   
    15    7   11 1    
    16    8    9 1    
    17    9   10 1    
    18   10   35 1    
    19   10   36 1    
    20   10   37 1    
    21   11   12 1    
    22   12   38 1    
    23   12   39 1    
    24   12   40 1    
    25   13   14 1    
    26   13   23 1    
    27   13   15 1    
    28   15   20 ar   
    29   15   16 ar   
    30   16   17 ar   
    31   16   41 1    
    32   17   29 1    
    33   17   18 ar   
    34   18   19 ar   
    35   18   27 1    
    36   19   20 ar   
    37   19   42 1    
    38   20   21 1    
    39   21   22 1    
    40   22   23 2    
    41   22   26 1    
    42   23   24 1    
    43   24   25 3    
    44   26   43 1    
    45   26   44 1    
    46   27   28 1    
    47   28   29 1    
    48   28   45 1    
    49   28   46 1    
@<TRIPOS>SUBSTRUCTURE
     1 UNK         1 GROUP             0       ****    0 ROOT    
