@<TRIPOS>MOLECULE
ZINC13302273_768
42   44    1
SMALL
USER_CHARGES


@<TRIPOS>ATOM
      1 C1          0.1478   47.2220   19.6817 C.ar      1 UNK         0.0000 
      2 C2         -0.5214   46.0022   19.6484 C.ar      1 UNK         0.0000 
      3 C3         -0.2687   45.1030   18.6162 C.ar      1 UNK         0.0000 
      4 C4          0.6298   45.4273   17.6033 C.ar      1 UNK         0.0000 
      5 C5          1.2971   46.6495   17.6375 C.ar      1 UNK         0.0000 
      6 C6          1.0772   47.5519   18.6861 C.ar      1 UNK         0.0000 
      7 C7          1.8308   48.8092   18.7147 C.2       1 UNK         0.0000 
      8 N8          1.9192   49.5663   19.7319 N.2       1 UNK         0.0000 
      9 N9          2.7024   50.6683   19.5435 N.pl3     1 UNK         0.0000 
     10 C10         2.6479   51.7218   20.3712 C.2       1 UNK         0.0000 
     11 N11         3.1161   52.8968   19.9664 N.pl3     1 UNK         0.0000 
     12 S12         1.9697   51.5687   21.9921 S.3       1 UNK         0.0000 
     13 C13         1.9258   53.2445   22.7339 C.3       1 UNK         0.0000 
     14 H14         1.3622   53.9084   22.0808 H         1 UNK         0.0000 
     15 C15         3.2674   53.8145   23.0864 C.3       1 UNK         0.0000 
     16 C16         3.3160   53.7973   24.5997 C.2       1 UNK         0.0000 
     17 O17         4.3247   54.0977   25.2381 O.2       1 UNK         0.0000 
     18 N18         2.1043   53.3852   25.0790 N.am      1 UNK         0.0000 
     19 C19         1.2086   53.1558   24.0709 C.2       1 UNK         0.0000 
     20 O20         0.0090   52.8949   24.1736 O.2       1 UNK         0.0000 
     21 C21         1.8096   53.2027   26.4665 C.ar      1 UNK         0.0000 
     22 C22         1.0323   52.1096   26.8940 C.ar      1 UNK         0.0000 
     23 C23         0.7564   51.9151   28.2447 C.ar      1 UNK         0.0000 
     24 C24         1.2542   52.8104   29.1870 C.ar      1 UNK         0.0000 
     25 C25         2.0193   53.9021   28.7858 C.ar      1 UNK         0.0000 
     26 C26         2.2989   54.0966   27.4352 C.ar      1 UNK         0.0000 
     27 Br27        0.8927   52.5366   31.0365 Br        1 UNK         0.0000 
     28 Br28       -1.1496   43.4145   18.5984 Br        1 UNK         0.0000 
     29 H29        -0.0495   47.9038   20.4969 H         1 UNK         0.0000 
     30 H30        -1.2229   45.7516   20.4296 H         1 UNK         0.0000 
     31 H31         0.8189   44.7298   16.8009 H         1 UNK         0.0000 
     32 H32         2.0052   46.8774   16.8506 H         1 UNK         0.0000 
     33 H33         2.3046   49.0526   17.7657 H         1 UNK         0.0000 
     34 H34         3.2423   50.7189   18.6850 H         1 UNK         0.0000 
     35 H35         2.8840   53.7400   20.4782 H         1 UNK         0.0000 
     36 H36         4.1017   53.2473   22.6728 H         1 UNK         0.0000 
     37 H37         3.3656   54.8465   22.7441 H         1 UNK         0.0000 
     38 H38         0.6459   51.3916   26.1844 H         1 UNK         0.0000 
     39 H39         0.1607   51.0680   28.5572 H         1 UNK         0.0000 
     40 H40         2.3994   54.5974   29.5194 H         1 UNK         0.0000 
     41 H41         2.8962   54.9524   27.1549 H         1 UNK         0.0000 
     42 H42         3.5591   52.9799   19.0600 H         1 UNK         0.0000 
@<TRIPOS>BOND
     1    1    6 ar   
     2    1    2 ar   
     3    1   29 1    
     4    2    3 ar   
     5    2   30 1    
     6    3    4 ar   
     7    3   28 1    
     8    4    5 ar   
     9    4   31 1    
    10    5    6 ar   
    11    5   32 1    
    12    6    7 1    
    13    7    8 2    
    14    7   33 1    
    15    8    9 1    
    16    9   10 1    
    17    9   34 1    
    18   10   11 2    
    19   10   12 1    
    20   11   35 1    
    21   11   42 1    
    22   12   13 1    
    23   13   14 1    
    24   13   19 1    
    25   13   15 1    
    26   15   16 1    
    27   15   36 1    
    28   15   37 1    
    29   16   17 2    
    30   16   18 am   BACKBONE|DICT|INTERRES
    31   18   19 am   BACKBONE|DICT|INTERRES
    32   18   21 1    
    33   19   20 2    
    34   21   26 ar   
    35   21   22 ar   
    36   22   23 ar   
    37   22   38 1    
    38   23   24 ar   
    39   23   39 1    
    40   24   25 ar   
    41   24   27 1    
    42   25   26 ar   
    43   25   40 1    
    44   26   41 1    
@<TRIPOS>SUBSTRUCTURE
     1 UNK         1 GROUP             0       ****    0 ROOT    
