@<TRIPOS>MOLECULE
ZINC62826859_1818
31   32    1
SMALL
USER_CHARGES


@<TRIPOS>ATOM
      1 C1          5.1046   54.4957   26.6439 C.ar      1 UNK         0.0000 
      2 C2          4.6704   53.9784   27.8580 C.ar      1 UNK         0.0000 
      3 C3          3.3902   53.4172   27.9999 C.ar      1 UNK         0.0000 
      4 C4          2.5325   53.3776   26.8604 C.ar      1 UNK         0.0000 
      5 C5          2.9726   53.9519   25.6432 C.ar      1 UNK         0.0000 
      6 C6          4.2547   54.4886   25.5464 C.ar      1 UNK         0.0000 
      7 Br7         1.8775   54.0967   24.0822 Br        1 UNK         0.0000 
      8 N8          1.2269   52.8553   27.0047 N.am      1 UNK         0.0000 
      9 C9          0.7038   51.8113   26.3300 C.2       1 UNK         0.0000 
     10 O10         1.1042   51.3881   25.2443 O.2       1 UNK         0.0000 
     11 C11        -0.4678   51.0979   27.0452 C.3       1 UNK         0.0000 
     12 H12        -0.2587   50.9564   28.1086 H         1 UNK         0.0000 
     13 C13        -1.8538   51.7221   26.7702 C.3       1 UNK         0.0000 
     14 C14        -2.6944   50.6176   26.1403 C.3       1 UNK         0.0000 
     15 C15        -1.6730   49.6969   25.4838 C.3       1 UNK         0.0000 
     16 N16        -0.5802   49.6974   26.4814 N.4       1 UNK         0.0000 
     17 C17         3.0023   52.8956   29.3626 C.2       1 UNK         0.0000 
     18 O18         3.5030   53.4571   30.3653 O.co2     1 UNK         0.0000 
     19 O19         2.2045   51.9325   29.4320 O.co2     1 UNK         0.0000 
     20 H20         6.0942   54.9197   26.5614 H         1 UNK         0.0000 
     21 H21         5.3490   54.0162   28.7000 H         1 UNK         0.0000 
     22 H22         4.5880   54.9133   24.6107 H         1 UNK         0.0000 
     23 H23         0.8085   53.0438   27.9038 H         1 UNK         0.0000 
     24 H24        -1.7899   52.5620   26.0755 H         1 UNK         0.0000 
     25 H25        -2.3212   52.0967   27.6811 H         1 UNK         0.0000 
     26 H26        -3.4463   50.9923   25.4460 H         1 UNK         0.0000 
     27 H27        -3.2182   50.0708   26.9285 H         1 UNK         0.0000 
     28 H28        -1.2491   50.1012   24.5623 H         1 UNK         0.0000 
     29 H29        -2.0043   48.6671   25.3415 H         1 UNK         0.0000 
     30 H30        -0.8880   49.0559   27.2314 H         1 UNK         0.0000 
     31 H31         0.2917   49.3300   26.1251 H         1 UNK         0.0000 
@<TRIPOS>BOND
     1    1    6 ar   
     2    1    2 ar   
     3    1   20 1    
     4    2    3 ar   
     5    2   21 1    
     6    3    4 ar   
     7    3   17 1    
     8    4    5 ar   
     9    4    8 1    
    10    5    6 ar   
    11    5    7 1    
    12    6   22 1    
    13    8    9 am   BACKBONE|DICT|INTERRES
    14    8   23 1    
    15    9   10 2    
    16    9   11 1    
    17   11   12 1    
    18   11   16 1    
    19   11   13 1    
    20   13   14 1    
    21   13   24 1    
    22   13   25 1    
    23   14   15 1    
    24   14   26 1    
    25   14   27 1    
    26   15   16 1    
    27   15   28 1    
    28   15   29 1    
    29   16   30 1    
    30   16   31 1    
    31   17   18 2    
    32   17   19 1    
@<TRIPOS>SUBSTRUCTURE
     1 UNK         1 GROUP             0       ****    0 ROOT    
