@<TRIPOS>MOLECULE
ZINC21089612_3381
70   73    1
SMALL
USER_CHARGES


@<TRIPOS>ATOM
      1 C1         -5.8682   49.9844   30.7696 C.3       1 UNK         0.0000 
      2 C2         -5.0031   50.8007   29.8205 C.2       1 UNK         0.0000 
      3 O3         -5.5147   51.6935   29.1426 O.2       1 UNK         0.0000 
      4 N4         -3.6945   50.4967   29.8254 N.am      1 UNK         0.0000 
      5 C5         -2.6763   51.0579   29.0420 C.ar      1 UNK         0.0000 
      6 C6         -2.8281   51.2939   27.6768 C.ar      1 UNK         0.0000 
      7 C7         -1.7262   51.6896   26.9303 C.ar      1 UNK         0.0000 
      8 C8         -0.4888   51.9057   27.5450 C.ar      1 UNK         0.0000 
      9 C9         -0.3532   51.7307   28.9237 C.ar      1 UNK         0.0000 
     10 C10        -1.4457   51.2967   29.6662 C.ar      1 UNK         0.0000 
     11 N11         0.6084   52.2277   26.7363 N.am      1 UNK         0.0000 
     12 C12         1.5068   53.2080   26.9357 C.2       1 UNK         0.0000 
     13 O13         1.5808   53.8900   27.9616 O.2       1 UNK         0.0000 
     14 C14         2.4235   53.4232   25.8331 C.ar      1 UNK         0.0000 
     15 C15         3.6371   54.1008   25.9611 C.ar      1 UNK         0.0000 
     16 N16         4.2897   54.1964   24.8388 N.2       1 UNK         0.0000 
     17 N17         3.5151   53.6305   23.8938 N.pl3     1 UNK         0.0000 
     18 C18         2.3045   53.1769   24.4419 C.ar      1 UNK         0.0000 
     19 C19         1.1830   52.5420   23.6058 C.3       1 UNK         0.0000 
     20 C20         1.1367   50.9912   23.6998 C.3       1 UNK         0.0000 
     21 C21         0.0784   50.3795   22.7588 C.3       1 UNK         0.0000 
     22 N22        -1.2086   51.0374   23.0580 N.am      1 UNK         0.0000 
     23 C23        -1.2844   52.4967   22.8822 C.3       1 UNK         0.0000 
     24 C24        -0.2277   53.1385   23.8185 C.3       1 UNK         0.0000 
     25 C25        -2.3178   50.3485   23.5810 C.2       1 UNK         0.0000 
     26 O26        -3.4362   50.8430   23.7397 O.2       1 UNK         0.0000 
     27 O27        -2.0046   49.0581   23.9120 O.3       1 UNK         0.0000 
     28 C28        -2.9261   48.0734   24.4067 C.3       1 UNK         0.0000 
     29 C29        -3.9639   47.7137   23.3196 C.3       1 UNK         0.0000 
     30 C30        -3.6247   48.5031   25.7184 C.3       1 UNK         0.0000 
     31 C31        -2.0402   46.8493   24.7037 C.3       1 UNK         0.0000 
     32 C32         4.0540   53.5570   22.5584 C.ar      1 UNK         0.0000 
     33 C33         5.0114   54.4967   22.1345 C.ar      1 UNK         0.0000 
     34 C34         5.5043   54.4915   20.8347 C.ar      1 UNK         0.0000 
     35 C35         5.1038   53.4981   19.9502 C.ar      1 UNK         0.0000 
     36 C36         4.2261   52.5038   20.3660 C.ar      1 UNK         0.0000 
     37 C37         3.7095   52.5307   21.6600 C.ar      1 UNK         0.0000 
     38 F38         5.5974   53.4868   18.6919 F         1 UNK         0.0000 
     39 H39        -5.7209   48.9177   30.5986 H         1 UNK         0.0000 
     40 H40        -5.6072   50.2097   31.8046 H         1 UNK         0.0000 
     41 H41        -6.9260   50.2106   30.6239 H         1 UNK         0.0000 
     42 H42        -3.3613   49.7991   30.4815 H         1 UNK         0.0000 
     43 H43        -3.7693   51.1058   27.1852 H         1 UNK         0.0000 
     44 H44        -1.8647   51.7985   25.8712 H         1 UNK         0.0000 
     45 H45         0.5991   51.8787   29.4096 H         1 UNK         0.0000 
     46 H46        -1.3221   51.1057   30.7241 H         1 UNK         0.0000 
     47 H47         0.6175   51.8028   25.8218 H         1 UNK         0.0000 
     48 H48         4.0478   54.4948   26.8804 H         1 UNK         0.0000 
     49 H49         1.3480   52.7859   22.5585 H         1 UNK         0.0000 
     50 H50         0.9219   50.6398   24.7075 H         1 UNK         0.0000 
     51 H51         2.0875   50.5496   23.4058 H         1 UNK         0.0000 
     52 H52         0.0516   49.2909   22.8251 H         1 UNK         0.0000 
     53 H53         0.3240   50.6173   21.7220 H         1 UNK         0.0000 
     54 H54        -1.0509   52.7038   21.8374 H         1 UNK         0.0000 
     55 H55        -2.2823   52.8990   23.0718 H         1 UNK         0.0000 
     56 H56        -0.2056   54.2178   23.6817 H         1 UNK         0.0000 
     57 H57        -0.6002   53.0143   24.8179 H         1 UNK         0.0000 
     58 H58        -4.5976   46.8841   23.6336 H         1 UNK         0.0000 
     59 H59        -3.4765   47.4247   22.3880 H         1 UNK         0.0000 
     60 H60        -4.6199   48.5549   23.0927 H         1 UNK         0.0000 
     61 H61        -2.8943   48.7771   26.4806 H         1 UNK         0.0000 
     62 H62        -4.2903   49.3529   25.5789 H         1 UNK         0.0000 
     63 H63        -4.2276   47.6935   26.1304 H         1 UNK         0.0000 
     64 H64        -1.2804   47.0877   25.4499 H         1 UNK         0.0000 
     65 H65        -2.6281   46.0216   25.0957 H         1 UNK         0.0000 
     66 H66        -1.5195   46.5020   23.8104 H         1 UNK         0.0000 
     67 H67         5.3946   55.2431   22.8075 H         1 UNK         0.0000 
     68 H68         6.2181   55.2379   20.5171 H         1 UNK         0.0000 
     69 H69         3.9549   51.7127   19.6801 H         1 UNK         0.0000 
     70 H70         3.0597   51.7202   21.9339 H         1 UNK         0.0000 
@<TRIPOS>BOND
     1    1    2 1    
     2    1   39 1    
     3    1   40 1    
     4    1   41 1    
     5    2    3 2    
     6    2    4 am   BACKBONE|DICT|INTERRES
     7    4    5 1    
     8    4   42 1    
     9    5   10 ar   
    10    5    6 ar   
    11    6    7 ar   
    12    6   43 1    
    13    7    8 ar   
    14    7   44 1    
    15    8    9 ar   
    16    8   11 1    
    17    9   10 ar   
    18    9   45 1    
    19   10   46 1    
    20   11   12 am   BACKBONE|DICT|INTERRES
    21   11   47 1    
    22   12   13 2    
    23   12   14 1    
    24   14   18 ar   
    25   14   15 ar   
    26   15   16 ar   
    27   15   48 1    
    28   16   17 ar   
    29   17   18 ar   
    30   17   32 1    
    31   18   19 1    
    32   19   24 1    
    33   19   20 1    
    34   19   49 1    
    35   20   21 1    
    36   20   50 1    
    37   20   51 1    
    38   21   22 1    
    39   21   52 1    
    40   21   53 1    
    41   22   23 1    
    42   22   25 am   BACKBONE|DICT|INTERRES
    43   23   24 1    
    44   23   54 1    
    45   23   55 1    
    46   24   56 1    
    47   24   57 1    
    48   25   26 2    
    49   25   27 1    
    50   27   28 1    
    51   28   29 1    
    52   28   30 1    
    53   28   31 1    
    54   29   58 1    
    55   29   59 1    
    56   29   60 1    
    57   30   61 1    
    58   30   62 1    
    59   30   63 1    
    60   31   64 1    
    61   31   65 1    
    62   31   66 1    
    63   32   37 ar   
    64   32   33 ar   
    65   33   34 ar   
    66   33   67 1    
    67   34   35 ar   
    68   34   68 1    
    69   35   36 ar   
    70   35   38 1    
    71   36   37 ar   
    72   36   69 1    
    73   37   70 1    
@<TRIPOS>SUBSTRUCTURE
     1 UNK         1 GROUP             0       ****    0 ROOT    
