ZINC39998036_992
                    3D
 Schrodinger Suite 2024-2.
 55 59  0  0  1  0            999 V2000
    4.8258   53.1716   15.8353 C   0  0  0  0  0  0
    6.1265   53.8022   16.3524 C   0  0  0  0  0  0
    6.0835   55.3415   16.3614 C   0  0  0  0  0  0
    7.5802   56.1581   17.0088 S   0  0  0  0  0  0
    7.4738   55.8376   18.7428 C   0  0  0  0  0  0
    8.4759   56.0133   19.5644 N   0  0  0  0  0  0
    8.1702   55.7072   20.8843 N   0  0  0  0  0  0
    6.9416   55.2967   21.0726 C   0  0  0  0  0  0
    6.0314   55.3110   19.5635 S   0  0  0  0  0  0
    6.4633   54.8971   22.2820 N   0  5  0  0  0  0
    5.3989   54.1257   22.4088 C   0  0  0  0  0  0
    4.9613   53.3981   21.5110 O   0  0  0  0  0  0
    4.7415   54.0640   23.7093 C   0  0  0  0  0  0
    3.4709   53.5919   23.7924 C   0  0  0  0  0  0
    2.6315   53.3682   24.9599 C   0  0  0  0  0  0
    2.7323   53.9483   26.2128 C   0  0  0  0  0  0
    1.7050   53.4668   26.9805 N   0  0  0  0  0  0
    0.9824   52.5678   26.2967 N   0  0  0  0  0  0
    1.5196   52.4969   25.0973 C   0  0  0  0  0  0
    0.9875   51.5429   24.1186 C   0  0  0  0  0  0
   -0.1742   50.7754   24.0800 C   0  0  0  0  0  0
   -0.1135   49.9968   22.8840 C   0  0  0  0  0  0
   -0.9277   49.0477   22.2457 C   0  0  0  0  0  0
   -0.4957   48.5046   21.0291 C   0  0  0  0  0  0
    0.7205   48.8865   20.4512 C   0  0  0  0  0  0
    1.5553   49.8192   21.0670 C   0  0  0  0  0  0
    1.1117   50.3565   22.2798 C   0  0  0  0  0  0
    1.7739   51.2772   23.0336 O   0  0  0  0  0  0
    1.3712   53.8294   28.3074 C   0  0  0  0  0  0
    0.6535   52.9489   29.1327 C   0  0  0  0  0  0
    0.3086   53.3338   30.4240 C   0  0  0  0  0  0
    0.6773   54.5948   30.8827 C   0  0  0  0  0  0
    1.3948   55.4756   30.0803 C   0  0  0  0  0  0
    1.7435   55.0929   28.7909 C   0  0  0  0  0  0
    5.4864   54.4967   24.8561 C   0  0  0  0  0  0
    6.0716   54.8757   25.7831 N   0  0  0  0  0  0
    4.8945   52.0856   15.8415 H   0  0  0  0  0  0
    4.6061   53.4808   14.8127 H   0  0  0  0  0  0
    3.9760   53.4483   16.4619 H   0  0  0  0  0  0
    6.3309   53.4218   17.3535 H   0  0  0  0  0  0
    6.9594   53.4652   15.7333 H   0  0  0  0  0  0
    5.9432   55.7000   15.3411 H   0  0  0  0  0  0
    5.2096   55.6978   16.9098 H   0  0  0  0  0  0
    2.9692   53.3006   22.8801 H   0  0  0  0  0  0
    3.4293   54.6691   26.6129 H   0  0  0  0  0  0
   -0.9493   50.7793   24.8327 H   0  0  0  0  0  0
   -1.8708   48.7474   22.6822 H   0  0  0  0  0  0
   -1.1134   47.7763   20.5248 H   0  0  0  0  0  0
    1.0251   48.4448   19.5121 H   0  0  0  0  0  0
    2.4993   50.1125   20.6273 H   0  0  0  0  0  0
    0.3569   51.9708   28.7800 H   0  0  0  0  0  0
   -0.2465   52.6621   31.0662 H   0  0  0  0  0  0
    0.4016   54.8916   31.8850 H   0  0  0  0  0  0
    1.6697   56.4515   30.4534 H   0  0  0  0  0  0
    2.2831   55.7976   28.1741 H   0  0  0  0  0  0
  1  2  1  0  0  0
  1 37  1  0  0  0
  1 38  1  0  0  0
  1 39  1  0  0  0
  2  3  1  0  0  0
  2 40  1  0  0  0
  2 41  1  0  0  0
  3  4  1  0  0  0
  3 42  1  0  0  0
  3 43  1  0  0  0
  4  5  1  0  0  0
  5  9  1  0  0  0
  5  6  2  0  0  0
  6  7  1  0  0  0
  7  8  2  0  0  0
  8  9  1  0  0  0
  8 10  1  0  0  0
 10 11  1  0  0  0
 11 12  2  0  0  0
 11 13  1  0  0  0
 13 14  2  0  0  0
 13 35  1  0  0  0
 14 15  1  0  0  0
 14 44  1  0  0  0
 15 19  1  0  0  0
 15 16  2  0  0  0
 16 17  1  0  0  0
 16 45  1  0  0  0
 17 18  1  0  0  0
 17 29  1  0  0  0
 18 19  2  0  0  0
 19 20  1  0  0  0
 20 28  1  0  0  0
 20 21  2  0  0  0
 21 22  1  0  0  0
 21 46  1  0  0  0
 22 27  2  0  0  0
 22 23  1  0  0  0
 23 24  2  0  0  0
 23 47  1  0  0  0
 24 25  1  0  0  0
 24 48  1  0  0  0
 25 26  2  0  0  0
 25 49  1  0  0  0
 26 27  1  0  0  0
 26 50  1  0  0  0
 27 28  1  0  0  0
 29 34  2  0  0  0
 29 30  1  0  0  0
 30 31  2  0  0  0
 30 51  1  0  0  0
 31 32  1  0  0  0
 31 52  1  0  0  0
 32 33  2  0  0  0
 32 53  1  0  0  0
 33 34  1  0  0  0
 33 54  1  0  0  0
 34 55  1  0  0  0
 35 36  3  0  0  0
M  CHG  1  10  -1
M  END
> <i_i_glide_confnum>
9

> <i_i_glide_lignum>
993

> <i_i_glide_posenum>
99

> <i_i_glide_rotatable_bonds>
10

> <i_m_Source_File_Index>
2461

> <b_m_subgroup_collapsed>
0

> <r_i_docking_score>
-5.72977

> <r_i_glide_ecoul>
-1.53331

> <r_i_glide_eff_state_penalty>
0

> <r_i_glide_einternal>
2.18891

> <r_i_glide_emodel>
-67.7992

> <r_i_glide_energy>
-49.421

> <r_i_glide_erotb>
0.70471

> <r_i_glide_esite>
0

> <r_i_glide_evdw>
-47.8877

> <r_i_glide_gscore>
-5.72977

> <r_i_glide_hbond>
0

> <r_i_glide_ligand_efficiency>
-0.15916

> <r_i_glide_ligand_efficiency_ln>
-1.25008

> <r_i_glide_ligand_efficiency_sa>
-0.525535

> <r_i_glide_lipo>
-2.89006

> <r_i_glide_metal>
0

> <r_i_glide_rewards>
-0.920039

> <s_i_glide_gridfile>
wee1_glide-grid

> <s_m_Source_File>
wee1_decoys_glide_SP.sdf

> <s_m_Source_Path>
/Users/zhangxujun/Desktop

> <s_m_entry_id>
2736

> <s_m_entry_name>
wee1_decoys_glide_SP.2461

> <s_m_subgroup_title>
wee1_decoys_glide_SP

> <s_m_subgroupid>
wee1_decoys_glide_SP


$$$$
