@<TRIPOS>MOLECULE
ZINC21353397_1957
46   49    1
SMALL
USER_CHARGES


@<TRIPOS>ATOM
      1 C1          6.6375   54.8133   26.7028 C.3       1 UNK         0.0000 
      2 O2          6.7446   55.0440   25.2990 O.3       1 UNK         0.0000 
      3 C3          5.7158   54.6029   24.4815 C.ar      1 UNK         0.0000 
      4 C4          4.4871   54.0967   24.9406 C.ar      1 UNK         0.0000 
      5 C5          3.4691   53.6968   24.0706 C.ar      1 UNK         0.0000 
      6 C6          3.6695   53.7383   22.6837 C.ar      1 UNK         0.0000 
      7 C7          4.8794   54.2532   22.2096 C.ar      1 UNK         0.0000 
      8 C8          5.8991   54.7152   23.0838 C.ar      1 UNK         0.0000 
      9 N9          6.9467   55.3100   22.4481 N.2       1 UNK         0.0000 
     10 C10         6.8278   55.2969   21.1490 C.2       1 UNK         0.0000 
     11 S11         5.3815   54.4966   20.5536 S.3       1 UNK         0.0000 
     12 N12         7.6681   55.9377   20.3187 N.2       1 UNK         0.0000 
     13 S13         7.9363   55.6030   18.8055 S.o2      1 UNK         0.0000 
     14 O14         9.1041   56.3146   18.2769 O.2       1 UNK         0.0000 
     15 O15         7.8193   54.1767   18.4821 O.2       1 UNK         0.0000 
     16 C16         6.5427   56.3887   17.9750 C.ar      1 UNK         0.0000 
     17 C17         6.5478   57.7708   17.7710 C.ar      1 UNK         0.0000 
     18 C18         5.5001   58.3710   17.0772 C.ar      1 UNK         0.0000 
     19 C19         4.4341   57.5996   16.6222 C.ar      1 UNK         0.0000 
     20 C20         4.4173   56.2232   16.8299 C.ar      1 UNK         0.0000 
     21 C21         5.4792   55.6160   17.4934 C.ar      1 UNK         0.0000 
     22 N22         2.2845   53.2426   24.6856 N.am      1 UNK         0.0000 
     23 C23         1.1073   52.8586   24.1392 C.2       1 UNK         0.0000 
     24 O24         0.8418   52.8969   22.9368 O.2       1 UNK         0.0000 
     25 C25         0.0583   52.3854   25.1216 C.ar      1 UNK         0.0000 
     26 C26         0.4118   51.8151   26.3568 C.ar      1 UNK         0.0000 
     27 C27        -0.5718   51.3599   27.2306 C.ar      1 UNK         0.0000 
     28 C28        -1.9136   51.4761   26.8820 C.ar      1 UNK         0.0000 
     29 C29        -2.2827   52.0443   25.6660 C.ar      1 UNK         0.0000 
     30 C30        -1.3002   52.4924   24.7871 C.ar      1 UNK         0.0000 
     31 H31         7.5043   55.2196   27.2191 H         1 UNK         0.0000 
     32 H32         5.7596   55.2975   27.1311 H         1 UNK         0.0000 
     33 H33         6.5947   53.7453   26.9230 H         1 UNK         0.0000 
     34 H34         4.3064   54.0209   26.0022 H         1 UNK         0.0000 
     35 H35         2.9195   53.4215   21.9748 H         1 UNK         0.0000 
     36 H36         7.3734   58.3722   18.1237 H         1 UNK         0.0000 
     37 H37         5.5096   59.4327   16.8848 H         1 UNK         0.0000 
     38 H38         3.6190   58.0747   16.0959 H         1 UNK         0.0000 
     39 H39         3.5931   55.6274   16.4660 H         1 UNK         0.0000 
     40 H40         5.4736   54.5440   17.6296 H         1 UNK         0.0000 
     41 H41         2.3257   53.2037   25.6914 H         1 UNK         0.0000 
     42 H42         1.4451   51.6965   26.6482 H         1 UNK         0.0000 
     43 H43        -0.3000   50.8999   28.1701 H         1 UNK         0.0000 
     44 H44        -2.6706   51.1065   27.5590 H         1 UNK         0.0000 
     45 H45        -3.3265   52.1253   25.4009 H         1 UNK         0.0000 
     46 H46        -1.6026   52.9224   23.8422 H         1 UNK         0.0000 
@<TRIPOS>BOND
     1    1    2 1    
     2    1   31 1    
     3    1   32 1    
     4    1   33 1    
     5    2    3 1    
     6    3    8 ar   
     7    3    4 ar   
     8    4    5 ar   
     9    4   34 1    
    10    5    6 ar   
    11    5   22 1    
    12    6    7 ar   
    13    6   35 1    
    14    7   11 1    
    15    7    8 ar   
    16    8    9 1    
    17    9   10 2    
    18   10   11 1    
    19   10   12 1    
    20   12   13 1    
    21   13   14 2    
    22   13   15 2    
    23   13   16 1    
    24   16   21 ar   
    25   16   17 ar   
    26   17   18 ar   
    27   17   36 1    
    28   18   19 ar   
    29   18   37 1    
    30   19   20 ar   
    31   19   38 1    
    32   20   21 ar   
    33   20   39 1    
    34   21   40 1    
    35   22   23 am   BACKBONE|DICT|INTERRES
    36   22   41 1    
    37   23   24 2    
    38   23   25 1    
    39   25   30 ar   
    40   25   26 ar   
    41   26   27 ar   
    42   26   42 1    
    43   27   28 ar   
    44   27   43 1    
    45   28   29 ar   
    46   28   44 1    
    47   29   30 ar   
    48   29   45 1    
    49   30   46 1    
@<TRIPOS>SUBSTRUCTURE
     1 UNK         1 GROUP             0       ****    0 ROOT    
