@<TRIPOS>MOLECULE
ZINC03011885_577
45   48    1
SMALL
USER_CHARGES


@<TRIPOS>ATOM
      1 C1          6.0037   53.3792   17.6487 C.ar      1 UNK         0.0000 
      2 C2          5.5272   53.3471   18.9562 C.ar      1 UNK         0.0000 
      3 C3          5.6774   54.4567   19.7927 C.ar      1 UNK         0.0000 
      4 C4          6.2465   55.6445   19.2836 C.ar      1 UNK         0.0000 
      5 C5          6.7269   55.6641   17.9645 C.ar      1 UNK         0.0000 
      6 C6          6.6115   54.5313   17.1580 C.ar      1 UNK         0.0000 
      7 Cl7         7.4589   57.0808   17.2924 Cl        1 UNK         0.0000 
      8 Cl8         6.3128   57.0976   20.2323 Cl        1 UNK         0.0000 
      9 N9          5.1745   54.3254   21.0960 N.am      1 UNK         0.0000 
     10 C10         5.8732   54.5242   22.2360 C.2       1 UNK         0.0000 
     11 O11         7.0483   54.8967   22.2725 O.2       1 UNK         0.0000 
     12 C12         5.1155   54.3195   23.4523 C.ar      1 UNK         0.0000 
     13 C13         3.7337   54.0563   23.5498 C.ar      1 UNK         0.0000 
     14 C14         3.4483   53.9858   24.8936 C.ar      1 UNK         0.0000 
     15 N15         4.6471   54.1907   25.5410 N.pl3     1 UNK         0.0000 
     16 N16         5.6347   54.4317   24.6609 N.2       1 UNK         0.0000 
     17 C17         4.8031   54.3422   26.9903 C.3       1 UNK         0.0000 
     18 H18         4.5705   55.3781   27.2075 H         1 UNK         0.0000 
     19 C19         3.6845   53.5056   27.6519 C.3       1 UNK         0.0000 
     20 C20         2.2888   53.8105   27.0575 C.3       1 UNK         0.0000 
     21 H21         2.0389   54.8492   27.2814 H         1 UNK         0.0000 
     22 N22         2.2938   53.6968   25.5886 N.pl3     1 UNK         0.0000 
     23 C23         1.1797   53.0127   27.7468 C.ar      1 UNK         0.0000 
     24 C24         0.7839   53.3690   29.0416 C.ar      1 UNK         0.0000 
     25 C25        -0.2641   52.6957   29.6647 C.ar      1 UNK         0.0000 
     26 C26        -0.9388   51.6900   28.9759 C.ar      1 UNK         0.0000 
     27 C27        -0.5260   51.2998   27.7066 C.ar      1 UNK         0.0000 
     28 C28         0.5410   51.9472   27.0985 C.ar      1 UNK         0.0000 
     29 Cl29       -2.3034   50.8968   29.6814 Cl        1 UNK         0.0000 
     30 C30         6.2160   54.1030   27.5609 C.3       1 UNK         0.0000 
     31 F31         6.1866   54.2031   28.8814 F         1 UNK         0.0000 
     32 F32         6.6839   52.8968   27.3013 F         1 UNK         0.0000 
     33 F33         7.1042   54.9814   27.1019 F         1 UNK         0.0000 
     34 H34         5.9012   52.5030   17.0232 H         1 UNK         0.0000 
     35 H35         5.0668   52.4368   19.3147 H         1 UNK         0.0000 
     36 H36         6.9812   54.5495   16.1431 H         1 UNK         0.0000 
     37 H37         4.2657   53.8981   21.1802 H         1 UNK         0.0000 
     38 H38         3.0218   53.9300   22.7471 H         1 UNK         0.0000 
     39 H39         3.9194   52.4463   27.5745 H         1 UNK         0.0000 
     40 H40         3.6783   53.6973   28.7258 H         1 UNK         0.0000 
     41 H41         1.4068   53.9715   25.1928 H         1 UNK         0.0000 
     42 H42         1.2776   54.1767   29.5621 H         1 UNK         0.0000 
     43 H43        -0.5689   52.9652   30.6660 H         1 UNK         0.0000 
     44 H44        -1.0375   50.4942   27.1996 H         1 UNK         0.0000 
     45 H45         0.8434   51.6300   26.1114 H         1 UNK         0.0000 
@<TRIPOS>BOND
     1    1    6 ar   
     2    1    2 ar   
     3    1   34 1    
     4    2    3 ar   
     5    2   35 1    
     6    3    4 ar   
     7    3    9 1    
     8    4    5 ar   
     9    4    8 1    
    10    5    6 ar   
    11    5    7 1    
    12    6   36 1    
    13    9   10 am   BACKBONE|DICT|INTERRES
    14    9   37 1    
    15   10   11 2    
    16   10   12 1    
    17   12   16 ar   
    18   12   13 ar   
    19   13   14 ar   
    20   13   38 1    
    21   14   22 1    
    22   14   15 ar   
    23   15   16 ar   
    24   15   17 1    
    25   17   18 1    
    26   17   19 1    
    27   17   30 1    
    28   19   20 1    
    29   19   39 1    
    30   19   40 1    
    31   20   21 1    
    32   20   22 1    
    33   20   23 1    
    34   22   41 1    
    35   23   28 ar   
    36   23   24 ar   
    37   24   25 ar   
    38   24   42 1    
    39   25   26 ar   
    40   25   43 1    
    41   26   27 ar   
    42   26   29 1    
    43   27   28 ar   
    44   27   44 1    
    45   28   45 1    
    46   30   31 1    
    47   30   32 1    
    48   30   33 1    
@<TRIPOS>SUBSTRUCTURE
     1 UNK         1 GROUP             0       ****    0 ROOT    
