@<TRIPOS>MOLECULE
ZINC50274040_96
55   58    1
SMALL
USER_CHARGES


@<TRIPOS>ATOM
      1 C1          6.4404   56.0955   25.2182 C.3       1 UNK         0.0000 
      2 C2          6.1840   54.5954   25.1605 C.3       1 UNK         0.0000 
      3 H3          7.1422   54.0868   25.0403 H         1 UNK         0.0000 
      4 C4          5.7138   54.0965   26.5468 C.2       1 UNK         0.0000 
      5 O5          6.5795   53.6803   27.3154 O.2       1 UNK         0.0000 
      6 N6          4.3984   54.1822   26.8468 N.am      1 UNK         0.0000 
      7 C7          3.7034   53.7341   27.9847 C.ar      1 UNK         0.0000 
      8 C8          2.3190   53.9361   27.9709 C.ar      1 UNK         0.0000 
      9 C9          1.5331   53.5036   29.0366 C.ar      1 UNK         0.0000 
     10 C10         2.1311   52.8685   30.1192 C.ar      1 UNK         0.0000 
     11 C11         3.5063   52.6601   30.1476 C.ar      1 UNK         0.0000 
     12 C12         4.2961   53.0917   29.0861 C.ar      1 UNK         0.0000 
     13 F13         1.3722   52.4564   31.1593 F         1 UNK         0.0000 
     14 N14         5.3572   54.1617   23.9964 N.am      1 UNK         0.0000 
     15 C15         3.9638   53.7466   23.9454 C.3       1 UNK         0.0000 
     16 C16         3.7756   53.3698   22.5065 C.2       1 UNK         0.0000 
     17 C17         4.9265   53.5767   21.8602 C.2       1 UNK         0.0000 
     18 C18         5.9132   54.1328   22.7637 C.2       1 UNK         0.0000 
     19 O19         7.0530   54.4978   22.4818 O.2       1 UNK         0.0000 
     20 C20         5.0504   53.2103   20.3702 C.3       1 UNK         0.0000 
     21 H21         5.9025   52.5566   20.1845 H         1 UNK         0.0000 
     22 N22         3.8831   52.3620   20.0024 N.am      1 UNK         0.0000 
     23 C23         2.6801   52.3114   20.6386 C.2       1 UNK         0.0000 
     24 O24         1.6917   51.8941   20.0333 O.2       1 UNK         0.0000 
     25 N25         2.6688   52.8162   21.9175 N.am      1 UNK         0.0000 
     26 C26         1.4277   52.7006   22.7112 C.3       1 UNK         0.0000 
     27 C27         1.1381   51.3625   23.3837 C.2       1 UNK         0.0000 
     28 C28         1.8554   50.2302   23.2811 C.2       1 UNK         0.0000 
     29 C29         5.3183   54.4224   19.4667 C.ar      1 UNK         0.0000 
     30 C30         6.6177   54.9328   19.3518 C.ar      1 UNK         0.0000 
     31 C31         6.8762   56.0286   18.5325 C.ar      1 UNK         0.0000 
     32 C32         5.8406   56.6078   17.8069 C.ar      1 UNK         0.0000 
     33 C33         4.5489   56.0937   17.8872 C.ar      1 UNK         0.0000 
     34 C34         4.2912   54.9988   18.7095 C.ar      1 UNK         0.0000 
     35 F35         6.0927   57.6714   17.0115 F         1 UNK         0.0000 
     36 H36         7.0612   56.3501   26.0782 H         1 UNK         0.0000 
     37 H37         6.9653   56.4092   24.3181 H         1 UNK         0.0000 
     38 H38         5.5047   56.6435   25.2817 H         1 UNK         0.0000 
     39 H39         3.8198   54.6125   26.1428 H         1 UNK         0.0000 
     40 H40         1.8405   54.4208   27.1321 H         1 UNK         0.0000 
     41 H41         0.4625   53.6527   29.0204 H         1 UNK         0.0000 
     42 H42         3.9597   52.1685   30.9971 H         1 UNK         0.0000 
     43 H43         5.3579   52.9044   29.1469 H         1 UNK         0.0000 
     44 H44         3.2945   54.5459   24.2622 H         1 UNK         0.0000 
     45 H45         3.7711   52.8986   24.6064 H         1 UNK         0.0000 
     46 H46         3.9076   51.9285   19.0874 H         1 UNK         0.0000 
     47 H47         1.3616   53.5051   23.4446 H         1 UNK         0.0000 
     48 H48         0.5727   52.8894   22.0605 H         1 UNK         0.0000 
     49 H49         0.2517   51.3441   24.0008 H         1 UNK         0.0000 
     50 H50         1.5575   49.3352   23.8065 H         1 UNK         0.0000 
     51 H51         2.7471   50.1685   22.6770 H         1 UNK         0.0000 
     52 H52         7.4363   54.4969   19.9019 H         1 UNK         0.0000 
     53 H53         7.8781   56.4279   18.4523 H         1 UNK         0.0000 
     54 H54         3.7528   56.5472   17.3160 H         1 UNK         0.0000 
     55 H55         3.2830   54.6135   18.7662 H         1 UNK         0.0000 
@<TRIPOS>BOND
     1    1    2 1    
     2    1   36 1    
     3    1   37 1    
     4    1   38 1    
     5    2    3 1    
     6    2    4 1    
     7    2   14 1    
     8    4    5 2    
     9    4    6 am   BACKBONE|DICT|INTERRES
    10    6    7 1    
    11    6   39 1    
    12    7   12 ar   
    13    7    8 ar   
    14    8    9 ar   
    15    8   40 1    
    16    9   10 ar   
    17    9   41 1    
    18   10   11 ar   
    19   10   13 1    
    20   11   12 ar   
    21   11   42 1    
    22   12   43 1    
    23   14   18 am   BACKBONE|DICT|INTERRES
    24   14   15 1    
    25   15   16 1    
    26   15   44 1    
    27   15   45 1    
    28   16   25 1    
    29   16   17 2    
    30   17   18 1    
    31   17   20 1    
    32   18   19 2    
    33   20   21 1    
    34   20   22 1    
    35   20   29 1    
    36   22   23 am   BACKBONE|DICT|INTERRES
    37   22   46 1    
    38   23   24 2    
    39   23   25 am   BACKBONE|DICT|INTERRES
    40   25   26 1    
    41   26   27 1    
    42   26   47 1    
    43   26   48 1    
    44   27   28 2    
    45   27   49 1    
    46   28   50 1    
    47   28   51 1    
    48   29   34 ar   
    49   29   30 ar   
    50   30   31 ar   
    51   30   52 1    
    52   31   32 ar   
    53   31   53 1    
    54   32   33 ar   
    55   32   35 1    
    56   33   34 ar   
    57   33   54 1    
    58   34   55 1    
@<TRIPOS>SUBSTRUCTURE
     1 UNK         1 GROUP             0       ****    0 ROOT    
