ZINC63010006_3856
                    3D
 Schrodinger Suite 2024-2.
 29 31  0  0  1  0            999 V2000
    4.0653   54.0919   22.4827 C   0  0  0  0  0  0
    5.0492   54.4969   21.5818 C   0  0  0  0  0  0
    6.2819   54.9384   22.0576 C   0  0  0  0  0  0
    6.5585   54.9088   23.4201 C   0  0  0  0  0  0
    5.5824   54.4965   24.3183 C   0  0  0  0  0  0
    4.3137   54.1116   23.8630 C   0  0  0  0  0  0
    3.2370   53.7755   24.8571 C   0  0  0  0  0  0
    3.4881   53.6963   26.1522 N   0  0  0  0  0  0
    2.3285   53.3688   26.6527 C   0  0  0  0  0  0
    1.3536   53.2774   25.7155 O   0  0  0  0  0  0
    1.9848   53.5575   24.5053 N   0  0  0  0  0  0
    2.0069   53.0634   28.0776 C   0  0  0  0  0  0
    0.6793   53.0199   28.5186 C   0  0  0  0  0  0
    0.3869   52.7343   29.8530 C   0  0  0  0  0  0
    1.4182   52.4834   30.7576 C   0  0  0  0  0  0
    2.7479   52.4969   30.3203 C   0  0  0  0  0  0
    3.0369   52.7986   28.9899 C   0  0  0  0  0  0
    3.7618   52.2129   31.1729 F   0  0  0  0  0  0
    1.1043   52.1790   32.0817 N   0  0  0  0  0  0
    7.5518   55.6960   20.8580 Br  0  0  0  0  0  0
    3.0984   53.7966   22.1012 H   0  0  0  0  0  0
    4.8345   54.5187   20.5230 H   0  0  0  0  0  0
    7.5044   55.2636   23.7901 H   0  0  0  0  0  0
    5.8079   54.5201   25.3742 H   0  0  0  0  0  0
   -0.1313   53.2070   27.8293 H   0  0  0  0  0  0
   -0.6421   52.6970   30.1802 H   0  0  0  0  0  0
    4.0680   52.8070   28.6652 H   0  0  0  0  0  0
    0.1269   52.0969   32.3686 H   0  0  0  0  0  0
    1.8367   52.0967   32.7760 H   0  0  0  0  0  0
  1  6  2  0  0  0
  1  2  1  0  0  0
  1 21  1  0  0  0
  2  3  2  0  0  0
  2 22  1  0  0  0
  3  4  1  0  0  0
  3 20  1  0  0  0
  4  5  2  0  0  0
  4 23  1  0  0  0
  5  6  1  0  0  0
  5 24  1  0  0  0
  6  7  1  0  0  0
  7 11  2  0  0  0
  7  8  1  0  0  0
  8  9  2  0  0  0
  9 10  1  0  0  0
  9 12  1  0  0  0
 10 11  1  0  0  0
 12 17  2  0  0  0
 12 13  1  0  0  0
 13 14  2  0  0  0
 13 25  1  0  0  0
 14 15  1  0  0  0
 14 26  1  0  0  0
 15 16  2  0  0  0
 15 19  1  0  0  0
 16 17  1  0  0  0
 16 18  1  0  0  0
 17 27  1  0  0  0
 19 28  1  0  0  0
 19 29  1  0  0  0
M  END
> <i_i_glide_confnum>
4

> <i_i_glide_lignum>
3857

> <i_i_glide_posenum>
377

> <i_i_glide_rotatable_bonds>
2

> <i_m_Source_File_Index>
1316

> <b_m_subgroup_collapsed>
0

> <r_i_docking_score>
-6.89734

> <r_i_glide_ecoul>
-6.04568

> <r_i_glide_eff_state_penalty>
0

> <r_i_glide_einternal>
0.567815

> <r_i_glide_emodel>
-56.7472

> <r_i_glide_energy>
-40.4817

> <r_i_glide_erotb>
0.337777

> <r_i_glide_esite>
-0.1

> <r_i_glide_evdw>
-34.4361

> <r_i_glide_gscore>
-6.89734

> <r_i_glide_hbond>
-0.426018

> <r_i_glide_ligand_efficiency>
-0.344867

> <r_i_glide_ligand_efficiency_ln>
-1.72618

> <r_i_glide_ligand_efficiency_sa>
-0.936113

> <r_i_glide_lipo>
-2.38703

> <r_i_glide_metal>
0

> <r_i_glide_rewards>
-1.69341

> <s_i_glide_gridfile>
wee1_glide-grid

> <s_m_Source_File>
wee1_decoys_glide_SP.sdf

> <s_m_Source_Path>
/Users/zhangxujun/Desktop

> <s_m_entry_id>
1591

> <s_m_entry_name>
wee1_decoys_glide_SP.1316

> <s_m_subgroup_title>
wee1_decoys_glide_SP

> <s_m_subgroupid>
wee1_decoys_glide_SP


$$$$
