ZINC39869557_4044
                    3D
 Schrodinger Suite 2024-2.
 63 67  0  0  1  0            999 V2000
    8.5058   55.6559   15.3832 C   0  0  0  0  0  0
    7.5904   55.2451   16.5243 C   0  0  0  0  0  0
    6.7551   56.1898   17.1254 C   0  0  0  0  0  0
    5.9085   55.8093   18.1647 C   0  0  0  0  0  0
    5.9057   54.4780   18.6056 C   0  0  0  0  0  0
    6.7327   53.5316   17.9928 C   0  0  0  0  0  0
    7.5760   53.9159   16.9517 C   0  0  0  0  0  0
    5.0732   54.0796   19.6799 N   0  0  0  0  0  0
    5.4991   54.4966   20.9463 C   0  0  0  0  0  0
    6.4980   55.2015   21.1461 O   0  0  0  0  0  0
    4.6087   54.0032   21.9948 C   0  0  0  0  0  0
    4.7159   54.1534   23.3917 C   0  0  0  0  0  0
    3.5743   53.6968   24.0480 C   0  0  0  0  0  0
    2.4280   52.9623   22.9660 S   0  0  0  0  0  0
    3.4760   53.2850   21.6276 C   0  0  0  0  0  0
    3.1604   52.9104   20.3633 N   0  0  0  0  0  0
    3.9345   53.2956   19.4072 C   0  0  0  0  0  0
    3.4951   52.8056   17.7010 S   0  0  0  0  0  0
    1.9016   51.9176   17.8531 C   0  0  0  0  0  0
    0.7446   52.6908   17.2132 C   0  0  0  0  0  0
    0.0934   52.1703   16.3068 O   0  0  0  0  0  0
    0.5250   53.9362   17.6816 N   0  0  0  0  0  0
   -0.3812   54.8707   17.1621 C   0  0  0  0  0  0
    0.1126   56.1493   16.8822 C   0  0  0  0  0  0
   -0.7404   57.1463   16.4115 C   0  0  0  0  0  0
   -2.0922   56.8713   16.2103 C   0  0  0  0  0  0
   -2.5950   55.6028   16.4996 C   0  0  0  0  0  0
   -1.7535   54.6060   16.9974 C   0  0  0  0  0  0
   -2.2910   53.4145   17.3502 F   0  0  0  0  0  0
    3.3473   53.8724   25.5397 C   0  0  0  0  0  0
    4.6182   54.0803   26.2665 N   0  0  0  0  0  0
    5.3750   55.1703   25.6205 C   0  0  0  0  0  0
    5.8409   54.8129   24.1849 C   0  0  0  0  0  0
    4.3903   54.3080   27.7146 C   0  0  0  0  0  0
    3.5517   53.1831   28.3693 C   0  0  0  0  0  0
    5.7163   54.4363   28.4909 C   0  0  0  0  0  0
    8.1459   56.5531   14.8812 H   0  0  0  0  0  0
    9.5171   55.8332   15.7485 H   0  0  0  0  0  0
    8.5515   54.8732   14.6251 H   0  0  0  0  0  0
    6.7605   57.2179   16.7920 H   0  0  0  0  0  0
    5.2692   56.5471   18.6276 H   0  0  0  0  0  0
    6.7075   52.4972   18.3068 H   0  0  0  0  0  0
    8.2090   53.1788   16.4811 H   0  0  0  0  0  0
    1.6427   51.6296   18.8692 H   0  0  0  0  0  0
    2.0234   50.9850   17.2985 H   0  0  0  0  0  0
    1.1890   54.2926   18.3562 H   0  0  0  0  0  0
    1.1587   56.3781   17.0301 H   0  0  0  0  0  0
   -0.3486   58.1291   16.1947 H   0  0  0  0  0  0
   -2.7508   57.6416   15.8369 H   0  0  0  0  0  0
   -3.6462   55.3944   16.3582 H   0  0  0  0  0  0
    2.7042   54.7325   25.6969 H   0  0  0  0  0  0
    2.8452   52.9788   25.9050 H   0  0  0  0  0  0
    4.8048   56.0971   25.6605 H   0  0  0  0  0  0
    6.2941   55.3899   26.1552 H   0  0  0  0  0  0
    6.6923   54.1345   24.2492 H   0  0  0  0  0  0
    6.2649   55.6957   23.7060 H   0  0  0  0  0  0
    3.8419   55.2446   27.8238 H   0  0  0  0  0  0
    3.5001   53.3087   29.4512 H   0  0  0  0  0  0
    2.5193   53.1750   28.0200 H   0  0  0  0  0  0
    3.9835   52.2020   28.1774 H   0  0  0  0  0  0
    5.5262   54.5798   29.5551 H   0  0  0  0  0  0
    6.3341   53.5458   28.3782 H   0  0  0  0  0  0
    6.3029   55.2969   28.1841 H   0  0  0  0  0  0
  1  2  1  0  0  0
  1 37  1  0  0  0
  1 38  1  0  0  0
  1 39  1  0  0  0
  2  7  2  0  0  0
  2  3  1  0  0  0
  3  4  2  0  0  0
  3 40  1  0  0  0
  4  5  1  0  0  0
  4 41  1  0  0  0
  5  6  2  0  0  0
  5  8  1  0  0  0
  6  7  1  0  0  0
  6 42  1  0  0  0
  7 43  1  0  0  0
  8 17  1  0  0  0
  8  9  1  0  0  0
  9 10  2  0  0  0
  9 11  1  0  0  0
 11 15  2  0  0  0
 11 12  1  0  0  0
 12 33  1  0  0  0
 12 13  2  0  0  0
 13 14  1  0  0  0
 13 30  1  0  0  0
 14 15  1  0  0  0
 15 16  1  0  0  0
 16 17  2  0  0  0
 17 18  1  0  0  0
 18 19  1  0  0  0
 19 20  1  0  0  0
 19 44  1  0  0  0
 19 45  1  0  0  0
 20 21  2  0  0  0
 20 22  1  0  0  0
 22 23  1  0  0  0
 22 46  1  0  0  0
 23 28  2  0  0  0
 23 24  1  0  0  0
 24 25  2  0  0  0
 24 47  1  0  0  0
 25 26  1  0  0  0
 25 48  1  0  0  0
 26 27  2  0  0  0
 26 49  1  0  0  0
 27 28  1  0  0  0
 27 50  1  0  0  0
 28 29  1  0  0  0
 30 31  1  0  0  0
 30 51  1  0  0  0
 30 52  1  0  0  0
 31 32  1  0  0  0
 31 34  1  0  0  0
 32 33  1  0  0  0
 32 53  1  0  0  0
 32 54  1  0  0  0
 33 55  1  0  0  0
 33 56  1  0  0  0
 34 35  1  0  0  0
 34 36  1  0  0  0
 34 57  1  0  0  0
 35 58  1  0  0  0
 35 59  1  0  0  0
 35 60  1  0  0  0
 36 61  1  0  0  0
 36 62  1  0  0  0
 36 63  1  0  0  0
M  END
> <i_i_glide_confnum>
21

> <i_i_glide_lignum>
4045

> <i_i_glide_posenum>
374

> <i_i_glide_rotatable_bonds>
7

> <i_m_Source_File_Index>
31

> <b_m_subgroup_collapsed>
0

> <r_i_docking_score>
-4.95474

> <r_i_glide_ecoul>
-2.80818

> <r_i_glide_eff_state_penalty>
0

> <r_i_glide_einternal>
5.06476

> <r_i_glide_emodel>
-55.4515

> <r_i_glide_energy>
-43.7089

> <r_i_glide_erotb>
0.376415

> <r_i_glide_esite>
-0.087242

> <r_i_glide_evdw>
-40.9007

> <r_i_glide_gscore>
-4.95474

> <r_i_glide_hbond>
-0.279318

> <r_i_glide_ligand_efficiency>
-0.137632

> <r_i_glide_ligand_efficiency_ln>
-1.08099

> <r_i_glide_ligand_efficiency_sa>
-0.45445

> <r_i_glide_lipo>
-2.49875

> <r_i_glide_metal>
0

> <r_i_glide_rewards>
0.000421112

> <s_i_glide_gridfile>
wee1_glide-grid

> <s_m_Source_File>
wee1_decoys_glide_SP.sdf

> <s_m_Source_Path>
/Users/zhangxujun/Desktop

> <s_m_entry_id>
306

> <s_m_entry_name>
wee1_decoys_glide_SP.31

> <s_m_subgroup_title>
wee1_decoys_glide_SP

> <s_m_subgroupid>
wee1_decoys_glide_SP


$$$$
