@<TRIPOS>MOLECULE
ZINC01380905_5480
61   66    1
SMALL
USER_CHARGES


@<TRIPOS>ATOM
      1 C1          7.0313   55.5384   22.0797 C.ar      1 UNK         0.0000 
      2 C2          6.1930   54.5627   22.6060 C.ar      1 UNK         0.0000 
      3 C3          5.3618   53.8440   21.7557 C.ar      1 UNK         0.0000 
      4 C4          5.3701   54.0970   20.3763 C.ar      1 UNK         0.0000 
      5 C5          6.2140   55.0854   19.8635 C.ar      1 UNK         0.0000 
      6 C6          7.0525   55.7999   20.7124 C.ar      1 UNK         0.0000 
      7 C7          4.4786   53.3232   19.4028 C.3       1 UNK         0.0000 
      8 N8          3.1993   52.8567   19.9371 N.am      1 UNK         0.0000 
      9 C9          3.0025   51.7186   20.6268 C.2       1 UNK         0.0000 
     10 O10         3.9009   50.9133   20.8801 O.2       1 UNK         0.0000 
     11 C11         1.5578   51.4966   21.1270 C.3       1 UNK         0.0000 
     12 H12         0.8958   51.8402   20.3318 H         1 UNK         0.0000 
     13 C13         1.2743   52.2432   22.4264 C.3       1 UNK         0.0000 
     14 C14         1.8262   53.6214   22.7391 C.2       1 UNK         0.0000 
     15 C15         1.0072   54.0965   23.6814 C.2       1 UNK         0.0000 
     16 C16        -0.0840   53.0414   23.8692 C.3       1 UNK         0.0000 
     17 H17        -1.0596   53.4084   24.1918 H         1 UNK         0.0000 
     18 O18        -0.1130   52.4970   22.5662 O.3       1 UNK         0.0000 
     19 C19         0.4296   51.7617   24.5900 C.3       1 UNK         0.0000 
     20 H20        -0.3918   51.0629   24.7673 H         1 UNK         0.0000 
     21 C21         1.4284   51.2203   23.5285 C.3       1 UNK         0.0000 
     22 H22         2.4414   51.1254   23.9042 H         1 UNK         0.0000 
     23 C23         1.0560   49.9031   22.8409 C.2       1 UNK         0.0000 
     24 O24         0.6948   48.8865   23.4207 O.2       1 UNK         0.0000 
     25 N25         1.2494   50.1029   21.5096 N.am      1 UNK         0.0000 
     26 C26         1.2866   48.9868   20.5552 C.3       1 UNK         0.0000 
     27 C27         0.6321   49.3339   19.2353 C.2       1 UNK         0.0000 
     28 C28         1.2133   49.4114   17.9705 C.2       1 UNK         0.0000 
     29 C29         0.3251   49.7538   16.9492 C.2       1 UNK         0.0000 
     30 C30        -0.9668   49.9290   17.4110 C.2       1 UNK         0.0000 
     31 S31        -1.0745   49.6696   19.1188 S.3       1 UNK         0.0000 
     32 C32         1.0847   52.1067   25.9535 C.2       1 UNK         0.0000 
     33 O33         2.0531   52.8706   26.0097 O.2       1 UNK         0.0000 
     34 N34         0.4912   51.5805   27.0418 N.am      1 UNK         0.0000 
     35 C35         0.7977   51.8645   28.3816 C.ar      1 UNK         0.0000 
     36 C36         2.1032   52.1043   28.8440 C.ar      1 UNK         0.0000 
     37 C37         2.3253   52.4257   30.1835 C.ar      1 UNK         0.0000 
     38 C38         1.2476   52.5161   31.0640 C.ar      1 UNK         0.0000 
     39 C39        -0.0483   52.2959   30.6021 C.ar      1 UNK         0.0000 
     40 C40        -0.2746   51.9465   29.2745 C.ar      1 UNK         0.0000 
     41 F41        -1.5394   51.6968   28.8606 F         1 UNK         0.0000 
     42 H42         7.6653   56.0950   22.7496 H         1 UNK         0.0000 
     43 H43         6.1896   54.3592   23.6667 H         1 UNK         0.0000 
     44 H44         4.7430   53.0725   22.1830 H         1 UNK         0.0000 
     45 H45         6.2363   55.2900   18.8030 H         1 UNK         0.0000 
     46 H46         7.7215   56.5402   20.3031 H         1 UNK         0.0000 
     47 H47         5.0628   52.4968   18.9966 H         1 UNK         0.0000 
     48 H48         4.2384   53.9681   18.5565 H         1 UNK         0.0000 
     49 H49         2.4287   53.5090   19.8544 H         1 UNK         0.0000 
     50 H50         2.7310   54.0580   22.3514 H         1 UNK         0.0000 
     51 H51         1.1048   54.9993   24.2516 H         1 UNK         0.0000 
     52 H52         2.3355   48.7381   20.3783 H         1 UNK         0.0000 
     53 H53         0.8247   48.0969   20.9799 H         1 UNK         0.0000 
     54 H54         2.2674   49.2387   17.7954 H         1 UNK         0.0000 
     55 H55         0.6224   49.8672   15.9161 H         1 UNK         0.0000 
     56 H56        -1.8432   50.1928   16.8383 H         1 UNK         0.0000 
     57 H57        -0.3484   51.0356   26.9017 H         1 UNK         0.0000 
     58 H58         2.9502   52.0398   28.1757 H         1 UNK         0.0000 
     59 H59         3.3314   52.5969   30.5371 H         1 UNK         0.0000 
     60 H60         1.4079   52.7554   32.1057 H         1 UNK         0.0000 
     61 H61        -0.8831   52.3644   31.2811 H         1 UNK         0.0000 
@<TRIPOS>BOND
     1    1    6 ar   
     2    1    2 ar   
     3    1   42 1    
     4    2    3 ar   
     5    2   43 1    
     6    3    4 ar   
     7    3   44 1    
     8    4    5 ar   
     9    4    7 1    
    10    5    6 ar   
    11    5   45 1    
    12    6   46 1    
    13    7    8 1    
    14    7   47 1    
    15    7   48 1    
    16    8    9 am   BACKBONE|DICT|INTERRES
    17    8   49 1    
    18    9   10 2    
    19    9   11 1    
    20   11   12 1    
    21   11   25 1    
    22   11   13 1    
    23   13   18 1    
    24   13   21 1    
    25   13   14 1    
    26   14   15 2    
    27   14   50 1    
    28   15   16 1    
    29   15   51 1    
    30   16   17 1    
    31   16   18 1    
    32   16   19 1    
    33   19   20 1    
    34   19   21 1    
    35   19   32 1    
    36   21   22 1    
    37   21   23 1    
    38   23   24 2    
    39   23   25 am   BACKBONE|DICT|INTERRES
    40   25   26 1    
    41   26   27 1    
    42   26   52 1    
    43   26   53 1    
    44   27   31 1    
    45   27   28 2    
    46   28   29 1    
    47   28   54 1    
    48   29   30 2    
    49   29   55 1    
    50   30   31 1    
    51   30   56 1    
    52   32   33 2    
    53   32   34 am   BACKBONE|DICT|INTERRES
    54   34   35 1    
    55   34   57 1    
    56   35   40 ar   
    57   35   36 ar   
    58   36   37 ar   
    59   36   58 1    
    60   37   38 ar   
    61   37   59 1    
    62   38   39 ar   
    63   38   60 1    
    64   39   40 ar   
    65   39   61 1    
    66   40   41 1    
@<TRIPOS>SUBSTRUCTURE
     1 UNK         1 GROUP             0       ****    0 ROOT    
