ZINC14169230_15
                    3D
 Schrodinger Suite 2024-2.
 47 50  0  0  1  0            999 V2000
    1.7659   56.5389   16.5053 C   0  0  0  0  0  0
    2.9053   57.5300   16.3168 C   0  0  0  0  0  0
    2.8959   58.7202   15.6812 C   0  0  0  0  0  0
    4.1434   59.2967   15.7237 N   0  0  0  0  0  0
    4.3035   60.2685   16.0806 H   0  0  0  0  0  0
    4.9535   58.4299   16.4932 O   0  0  0  0  0  0
    4.2232   57.3347   16.8697 C   0  0  0  0  0  0
    4.6670   56.3546   17.5575 N   0  0  0  0  0  0
    6.3576   56.3102   18.0737 S   0  0  0  0  0  0
    7.0026   57.5923   18.3863 O   0  0  0  0  0  0
    7.2090   55.3201   17.4065 O   0  0  0  0  0  0
    6.1447   55.5585   19.7077 C   0  0  0  0  0  0
    5.1043   54.6660   19.9923 C   0  0  0  0  0  0
    4.9402   54.1726   21.2887 C   0  0  0  0  0  0
    5.8195   54.5489   22.3095 C   0  0  0  0  0  0
    6.9146   55.3678   21.9942 C   0  0  0  0  0  0
    7.0760   55.8598   20.7033 C   0  0  0  0  0  0
    5.4805   54.1460   23.6202 N   0  0  0  0  0  0
    6.0359   54.5096   24.8015 C   0  0  0  0  0  0
    7.1042   55.1033   24.9438 O   0  0  0  0  0  0
    5.2306   54.1936   25.9537 C   0  0  0  0  0  0
    3.8333   54.0964   26.0444 C   0  0  0  0  0  0
    3.3988   53.9157   27.3605 C   0  0  0  0  0  0
    4.4277   53.9043   28.2715 C   0  0  0  0  0  0
    5.9808   54.0966   27.5358 S   0  0  0  0  0  0
    3.9478   53.7635   29.6889 C   0  0  0  0  0  0
    2.4385   54.0218   29.5211 C   0  0  0  0  0  0
    2.0792   53.7073   28.0569 C   0  0  0  0  0  0
    1.7982   59.4739   14.9617 C   0  0  0  0  0  0
    0.8072   56.9683   16.2133 H   0  0  0  0  0  0
    1.9414   55.6510   15.8961 H   0  0  0  0  0  0
    1.6880   56.2163   17.5449 H   0  0  0  0  0  0
    4.3951   54.3819   19.2279 H   0  0  0  0  0  0
    4.0950   53.5317   21.4956 H   0  0  0  0  0  0
    7.6365   55.6744   22.7322 H   0  0  0  0  0  0
    7.9222   56.4944   20.4821 H   0  0  0  0  0  0
    4.6329   53.6057   23.6842 H   0  0  0  0  0  0
    3.1563   54.1616   25.2044 H   0  0  0  0  0  0
    4.3956   54.4960   30.3607 H   0  0  0  0  0  0
    4.1526   52.7708   30.0913 H   0  0  0  0  0  0
    2.2288   55.0752   29.7190 H   0  0  0  0  0  0
    1.8363   53.4457   30.2257 H   0  0  0  0  0  0
    1.7427   52.6733   27.9652 H   0  0  0  0  0  0
    1.2792   54.3499   27.6869 H   0  0  0  0  0  0
    0.8602   58.9215   14.9762 H   0  0  0  0  0  0
    1.6316   60.4383   15.4440 H   0  0  0  0  0  0
    2.0767   59.6496   13.9223 H   0  0  0  0  0  0
  1  2  1  0  0  0
  1 30  1  0  0  0
  1 31  1  0  0  0
  1 32  1  0  0  0
  2  7  1  0  0  0
  2  3  2  0  0  0
  3  4  1  0  0  0
  3 29  1  0  0  0
  4  5  1  0  0  0
  4  6  1  0  0  0
  6  7  1  0  0  0
  7  8  2  0  0  0
  8  9  1  0  0  0
  9 10  2  0  0  0
  9 11  2  0  0  0
  9 12  1  0  0  0
 12 17  2  0  0  0
 12 13  1  0  0  0
 13 14  2  0  0  0
 13 33  1  0  0  0
 14 15  1  0  0  0
 14 34  1  0  0  0
 15 16  2  0  0  0
 15 18  1  0  0  0
 16 17  1  0  0  0
 16 35  1  0  0  0
 17 36  1  0  0  0
 18 19  1  0  0  0
 18 37  1  0  0  0
 19 20  2  0  0  0
 19 21  1  0  0  0
 21 25  1  0  0  0
 21 22  2  0  0  0
 22 23  1  0  0  0
 22 38  1  0  0  0
 23 28  1  0  0  0
 23 24  2  0  0  0
 24 25  1  0  0  0
 24 26  1  0  0  0
 26 27  1  0  0  0
 26 39  1  0  0  0
 26 40  1  0  0  0
 27 28  1  0  0  0
 27 41  1  0  0  0
 27 42  1  0  0  0
 28 43  1  0  0  0
 28 44  1  0  0  0
 29 45  1  0  0  0
 29 46  1  0  0  0
 29 47  1  0  0  0
M  END
> <i_i_glide_confnum>
6

> <i_i_glide_lignum>
16

> <i_i_glide_posenum>
80

> <i_i_glide_rotatable_bonds>
5

> <i_m_Source_File_Index>
3394

> <b_m_subgroup_collapsed>
0

> <r_i_docking_score>
-6.43767

> <r_i_glide_ecoul>
-10.7625

> <r_i_glide_eff_state_penalty>
0

> <r_i_glide_einternal>
7.44979

> <r_i_glide_emodel>
-63.9412

> <r_i_glide_energy>
-49.5407

> <r_i_glide_erotb>
0.566973

> <r_i_glide_esite>
-0.108167

> <r_i_glide_evdw>
-38.7783

> <r_i_glide_gscore>
-6.43767

> <r_i_glide_hbond>
-0.406168

> <r_i_glide_ligand_efficiency>
-0.229917

> <r_i_glide_ligand_efficiency_ln>
-1.486

> <r_i_glide_ligand_efficiency_sa>
-0.698162

> <r_i_glide_lipo>
-2.34548

> <r_i_glide_metal>
0

> <r_i_glide_rewards>
-0.591544

> <s_i_glide_gridfile>
wee1_glide-grid

> <s_m_Source_File>
wee1_decoys_glide_SP.sdf

> <s_m_Source_Path>
/Users/zhangxujun/Desktop

> <s_m_entry_id>
3669

> <s_m_entry_name>
wee1_decoys_glide_SP.3394

> <s_m_subgroup_title>
wee1_decoys_glide_SP

> <s_m_subgroupid>
wee1_decoys_glide_SP


$$$$
