@<TRIPOS>MOLECULE
ZINC35684919_2023
50   53    1
SMALL
USER_CHARGES


@<TRIPOS>ATOM
      1 C1          5.3043   54.6667   27.1885 C.3       1 UNK         0.0000 
      2 C2          4.0382   53.9944   26.7059 C.ar      1 UNK         0.0000 
      3 C3          3.5429   53.8177   25.3846 C.ar      1 UNK         0.0000 
      4 N4          2.3293   53.2973   25.3863 N.2       1 UNK         0.0000 
      5 N5          2.0385   53.0233   26.6656 N.pl3     1 UNK         0.0000 
      6 C6          3.0392   53.4493   27.4955 C.ar      1 UNK         0.0000 
      7 N7          2.9319   53.2144   28.8494 N.am      1 UNK         0.0000 
      8 C8          2.1089   52.3118   29.4239 C.2       1 UNK         0.0000 
      9 O9          2.1451   52.0970   30.6308 O.2       1 UNK         0.0000 
     10 C10         1.1974   51.5429   28.4203 C.3       1 UNK         0.0000 
     11 C11         0.7934   52.4265   27.1832 C.3       1 UNK         0.0000 
     12 H12         0.1403   53.2168   27.5564 H         1 UNK         0.0000 
     13 C13        -0.0462   51.6871   26.1103 C.2       1 UNK         0.0000 
     14 O14        -0.7944   52.3610   25.3996 O.2       1 UNK         0.0000 
     15 N15         0.1335   50.3565   25.9425 N.am      1 UNK         0.0000 
     16 C16        -0.3268   49.6253   24.8324 C.ar      1 UNK         0.0000 
     17 C17        -1.1118   48.4900   25.0623 C.ar      1 UNK         0.0000 
     18 C18        -1.6032   47.7262   23.9888 C.ar      1 UNK         0.0000 
     19 C19        -1.2955   48.1310   22.6816 C.ar      1 UNK         0.0000 
     20 C20        -0.4874   49.2393   22.4503 C.ar      1 UNK         0.0000 
     21 C21         0.0266   49.9777   23.5153 C.ar      1 UNK         0.0000 
     22 O22         0.8621   51.0424   23.2615 O.3       1 UNK         0.0000 
     23 C23         2.1096   50.6940   22.6789 C.3       1 UNK         0.0000 
     24 C24        -2.4262   46.4958   24.2167 C.2       1 UNK         0.0000 
     25 O25        -2.6091   46.0995   25.3876 O.co2     1 UNK         0.0000 
     26 O26        -2.8466   45.8622   23.2182 O.co2     1 UNK         0.0000 
     27 C27         4.2332   54.0970   24.0780 C.ar      1 UNK         0.0000 
     28 C28         3.4888   54.2283   22.8962 C.ar      1 UNK         0.0000 
     29 C29         4.1268   54.4713   21.6826 C.ar      1 UNK         0.0000 
     30 C30         5.5136   54.5809   21.6386 C.ar      1 UNK         0.0000 
     31 C31         6.2674   54.4428   22.8007 C.ar      1 UNK         0.0000 
     32 C32         5.6299   54.1876   24.0114 C.ar      1 UNK         0.0000 
     33 Cl33        6.2989   54.9022   20.1343 Cl        1 UNK         0.0000 
     34 H34         6.1307   53.9597   27.2820 H         1 UNK         0.0000 
     35 H35         5.6208   55.4675   26.5164 H         1 UNK         0.0000 
     36 H36         5.1682   55.1359   28.1646 H         1 UNK         0.0000 
     37 H37         3.5482   53.6826   29.4952 H         1 UNK         0.0000 
     38 H38         1.7742   50.6726   28.1083 H         1 UNK         0.0000 
     39 H39         0.3149   51.2077   28.9688 H         1 UNK         0.0000 
     40 H40         0.5643   49.8230   26.6822 H         1 UNK         0.0000 
     41 H41        -1.3405   48.1990   26.0814 H         1 UNK         0.0000 
     42 H42        -1.6609   47.5714   21.8330 H         1 UNK         0.0000 
     43 H43        -0.2477   49.5155   21.4336 H         1 UNK         0.0000 
     44 H44         1.9949   50.2683   21.6808 H         1 UNK         0.0000 
     45 H45         2.7217   51.5887   22.5795 H         1 UNK         0.0000 
     46 H46         2.6566   49.9841   23.3007 H         1 UNK         0.0000 
     47 H47         2.4104   54.1486   22.9092 H         1 UNK         0.0000 
     48 H48         3.5482   54.5660   20.7758 H         1 UNK         0.0000 
     49 H49         7.3454   54.5192   22.7649 H         1 UNK         0.0000 
     50 H50         6.2425   54.0429   24.8870 H         1 UNK         0.0000 
@<TRIPOS>BOND
     1    1    2 1    
     2    1   34 1    
     3    1   35 1    
     4    1   36 1    
     5    2    6 ar   
     6    2    3 ar   
     7    3    4 ar   
     8    3   27 1    
     9    4    5 ar   
    10    5   11 1    
    11    5    6 ar   
    12    6    7 1    
    13    7    8 am   BACKBONE|DICT|INTERRES
    14    7   37 1    
    15    8    9 2    
    16    8   10 1    
    17   10   11 1    
    18   10   38 1    
    19   10   39 1    
    20   11   12 1    
    21   11   13 1    
    22   13   14 2    
    23   13   15 am   BACKBONE|DICT|INTERRES
    24   15   16 1    
    25   15   40 1    
    26   16   21 ar   
    27   16   17 ar   
    28   17   18 ar   
    29   17   41 1    
    30   18   19 ar   
    31   18   24 1    
    32   19   20 ar   
    33   19   42 1    
    34   20   21 ar   
    35   20   43 1    
    36   21   22 1    
    37   22   23 1    
    38   23   44 1    
    39   23   45 1    
    40   23   46 1    
    41   24   25 2    
    42   24   26 1    
    43   27   32 ar   
    44   27   28 ar   
    45   28   29 ar   
    46   28   47 1    
    47   29   30 ar   
    48   29   48 1    
    49   30   31 ar   
    50   30   33 1    
    51   31   32 ar   
    52   31   49 1    
    53   32   50 1    
@<TRIPOS>SUBSTRUCTURE
     1 UNK         1 GROUP             0       ****    0 ROOT    
