@<TRIPOS>MOLECULE
ZINC04191355_2662
43   45    1
SMALL
USER_CHARGES


@<TRIPOS>ATOM
      1 C1          0.0046   52.5183   30.3761 C.3       1 UNK         0.0000 
      2 C2          1.5230   52.4967   30.5485 C.2       1 UNK         0.0000 
      3 O3          1.9865   52.0967   31.6157 O.2       1 UNK         0.0000 
      4 C4          2.3752   52.9716   29.4144 C.ar      1 UNK         0.0000 
      5 C5          3.7609   53.0849   29.5887 C.ar      1 UNK         0.0000 
      6 C6          4.5738   53.5095   28.5407 C.ar      1 UNK         0.0000 
      7 C7          4.0211   53.8130   27.2902 C.ar      1 UNK         0.0000 
      8 C8          2.6323   53.6959   27.1197 C.ar      1 UNK         0.0000 
      9 C9          1.8194   53.2808   28.1679 C.ar      1 UNK         0.0000 
     10 C10         4.9208   54.2649   26.1580 C.2       1 UNK         0.0000 
     11 O11         6.0239   54.7702   26.3962 O.2       1 UNK         0.0000 
     12 N12         4.3583   54.0969   24.8948 N.am      1 UNK         0.0000 
     13 C13         4.9680   54.2467   23.7788 C.2       1 UNK         0.0000 
     14 N14         4.3957   54.0907   22.5144 N.pl3     1 UNK         0.0000 
     15 C15         5.1682   54.4828   21.4098 C.ar      1 UNK         0.0000 
     16 C16         4.8042   54.4965   20.0563 C.ar      1 UNK         0.0000 
     17 C17         5.7061   54.9546   19.0964 C.ar      1 UNK         0.0000 
     18 C18         6.9728   55.3983   19.4869 C.ar      1 UNK         0.0000 
     19 C19         7.3409   55.3748   20.8337 C.ar      1 UNK         0.0000 
     20 C20         6.4375   54.9006   21.7800 C.ar      1 UNK         0.0000 
     21 S21         6.7033   54.6935   23.4895 S.3       1 UNK         0.0000 
     22 S22         8.1538   55.9693   18.2829 S.o2      1 UNK         0.0000 
     23 O23         7.5922   55.7337   16.9499 O.2       1 UNK         0.0000 
     24 O24         8.5843   57.2984   18.7203 O.2       1 UNK         0.0000 
     25 N25         9.5049   54.8965   18.4814 N.pl3     1 UNK         0.0000 
     26 C26         3.0701   53.4766   22.3133 C.3       1 UNK         0.0000 
     27 C27         3.0995   52.1354   21.6929 C.1       1 UNK         0.0000 
     28 C28         3.1037   51.0443   21.1451 C.1       1 UNK         0.0000 
     29 H29        -0.2931   51.8670   29.5547 H         1 UNK         0.0000 
     30 H30        -0.4950   52.1744   31.2817 H         1 UNK         0.0000 
     31 H31        -0.3365   53.5274   30.1495 H         1 UNK         0.0000 
     32 H32         4.2230   52.8445   30.5360 H         1 UNK         0.0000 
     33 H33         5.6396   53.5913   28.7053 H         1 UNK         0.0000 
     34 H34         2.1643   53.9252   26.1725 H         1 UNK         0.0000 
     35 H35         0.7575   53.2013   27.9827 H         1 UNK         0.0000 
     36 H36         3.8260   54.1718   19.7328 H         1 UNK         0.0000 
     37 H37         5.4167   54.9618   18.0547 H         1 UNK         0.0000 
     38 H38         8.3303   55.6966   21.1308 H         1 UNK         0.0000 
     39 H39         9.6969   54.2928   17.6779 H         1 UNK         0.0000 
     40 H40        10.3287   55.2966   18.9485 H         1 UNK         0.0000 
     41 H41         2.5135   53.3993   23.2486 H         1 UNK         0.0000 
     42 H42         2.4608   54.1187   21.6824 H         1 UNK         0.0000 
     43 H43         3.1055   50.1012   20.6448 H         1 UNK         0.0000 
@<TRIPOS>BOND
     1    1    2 1    
     2    1   29 1    
     3    1   30 1    
     4    1   31 1    
     5    2    3 2    
     6    2    4 1    
     7    4    9 ar   
     8    4    5 ar   
     9    5    6 ar   
    10    5   32 1    
    11    6    7 ar   
    12    6   33 1    
    13    7    8 ar   
    14    7   10 1    
    15    8    9 ar   
    16    8   34 1    
    17    9   35 1    
    18   10   11 2    
    19   10   12 am   BACKBONE|DICT|INTERRES
    20   12   13 2    BACKBONE|DICT|INTERRES
    21   13   21 1    
    22   13   14 1    
    23   14   15 1    
    24   14   26 1    
    25   15   20 ar   
    26   15   16 ar   
    27   16   17 ar   
    28   16   36 1    
    29   17   18 ar   
    30   17   37 1    
    31   18   19 ar   
    32   18   22 1    
    33   19   20 ar   
    34   19   38 1    
    35   20   21 1    
    36   22   23 2    
    37   22   24 2    
    38   22   25 1    
    39   25   39 1    
    40   25   40 1    
    41   26   27 1    
    42   26   41 1    
    43   26   42 1    
    44   27   28 3    
    45   28   43 1    
@<TRIPOS>SUBSTRUCTURE
     1 UNK         1 GROUP             0       ****    0 ROOT    
