@<TRIPOS>MOLECULE
ZINC00747466_4565
56   58    1
SMALL
USER_CHARGES


@<TRIPOS>ATOM
      1 C1         10.5581   53.2297   14.5030 C.3       1 UNK         0.0000 
      2 C2          9.3997   53.2981   15.4810 C.ar      1 UNK         0.0000 
      3 C3          8.3001   52.4561   15.3120 C.ar      1 UNK         0.0000 
      4 C4          7.2478   52.4979   16.2218 C.ar      1 UNK         0.0000 
      5 C5          7.2857   53.3794   17.3045 C.ar      1 UNK         0.0000 
      6 C6          8.3970   54.2214   17.4743 C.ar      1 UNK         0.0000 
      7 C7          9.4493   54.1778   16.5638 C.ar      1 UNK         0.0000 
      8 N8          6.2055   53.2963   18.2023 N.am      1 UNK         0.0000 
      9 C9          5.9080   54.0882   19.2506 C.2       1 UNK         0.0000 
     10 O10         6.4322   55.1758   19.4965 O.2       1 UNK         0.0000 
     11 N11         5.0298   53.4701   20.0604 N.am      1 UNK         0.0000 
     12 C12         4.7818   53.7467   21.4161 C.ar      1 UNK         0.0000 
     13 C13         5.7225   54.3265   22.2701 C.ar      1 UNK         0.0000 
     14 C14         5.4306   54.4944   23.6178 C.ar      1 UNK         0.0000 
     15 C15         4.2025   54.0972   24.1814 C.ar      1 UNK         0.0000 
     16 C16         3.2329   53.5506   23.2890 C.ar      1 UNK         0.0000 
     17 C17         3.5508   53.3635   21.9339 C.ar      1 UNK         0.0000 
     18 C18         1.8207   53.2206   23.6771 C.2       1 UNK         0.0000 
     19 O19         1.0566   54.0922   24.0799 O.2       1 UNK         0.0000 
     20 N20         1.4779   51.9290   23.5188 N.am      1 UNK         0.0000 
     21 C21         0.1816   51.3167   23.8243 C.3       1 UNK         0.0000 
     22 C22        -0.1831   51.3811   25.3202 C.3       1 UNK         0.0000 
     23 C23        -0.9540   51.8194   22.9105 C.3       1 UNK         0.0000 
     24 N24         4.0633   54.2532   25.5887 N.pl3     1 UNK         0.0000 
     25 C25         5.1592   54.6557   26.4893 C.3       1 UNK         0.0000 
     26 C26         4.7734   54.4041   27.9453 C.3       1 UNK         0.0000 
     27 C27         3.2679   54.3462   27.8787 C.3       1 UNK         0.0000 
     28 C28         3.0193   53.7596   26.4957 C.3       1 UNK         0.0000 
     29 H29        10.7321   52.2010   14.1837 H         1 UNK         0.0000 
     30 H30        10.3487   53.8330   13.6188 H         1 UNK         0.0000 
     31 H31        11.4857   53.5755   14.9607 H         1 UNK         0.0000 
     32 H32         8.2627   51.7639   14.4823 H         1 UNK         0.0000 
     33 H33         6.4095   51.8284   16.0882 H         1 UNK         0.0000 
     34 H34         8.4834   54.8944   18.3131 H         1 UNK         0.0000 
     35 H35        10.3047   54.8212   16.7107 H         1 UNK         0.0000 
     36 H36         5.6514   52.4535   18.0905 H         1 UNK         0.0000 
     37 H37         4.4897   52.7175   19.6591 H         1 UNK         0.0000 
     38 H38         6.6959   54.6256   21.9111 H         1 UNK         0.0000 
     39 H39         6.2074   54.9342   24.2226 H         1 UNK         0.0000 
     40 H40         2.8148   52.9473   21.2570 H         1 UNK         0.0000 
     41 H41         2.1925   51.3009   23.1847 H         1 UNK         0.0000 
     42 H42         0.3117   50.2577   23.5919 H         1 UNK         0.0000 
     43 H43        -1.1491   50.9097   25.5029 H         1 UNK         0.0000 
     44 H44        -0.2711   52.4087   25.6751 H         1 UNK         0.0000 
     45 H45         0.5478   50.8538   25.9352 H         1 UNK         0.0000 
     46 H46        -1.9008   51.3513   23.1811 H         1 UNK         0.0000 
     47 H47        -1.1043   52.8953   22.9987 H         1 UNK         0.0000 
     48 H48        -0.7649   51.5707   21.8660 H         1 UNK         0.0000 
     49 H49         6.0270   54.0261   26.2834 H         1 UNK         0.0000 
     50 H50         5.4428   55.6961   26.3395 H         1 UNK         0.0000 
     51 H51         5.1884   53.4570   28.2955 H         1 UNK         0.0000 
     52 H52         5.1286   55.1960   28.6079 H         1 UNK         0.0000 
     53 H53         2.8125   55.3351   27.9503 H         1 UNK         0.0000 
     54 H54         2.8357   53.7315   28.6689 H         1 UNK         0.0000 
     55 H55         2.0402   54.0996   26.1795 H         1 UNK         0.0000 
     56 H56         2.9871   52.6701   26.5022 H         1 UNK         0.0000 
@<TRIPOS>BOND
     1    1    2 1    
     2    1   29 1    
     3    1   30 1    
     4    1   31 1    
     5    2    7 ar   
     6    2    3 ar   
     7    3    4 ar   
     8    3   32 1    
     9    4    5 ar   
    10    4   33 1    
    11    5    6 ar   
    12    5    8 1    
    13    6    7 ar   
    14    6   34 1    
    15    7   35 1    
    16    8    9 am   BACKBONE|DICT|INTERRES
    17    8   36 1    
    18    9   10 2    
    19    9   11 am   BACKBONE|DICT|INTERRES
    20   11   12 1    
    21   11   37 1    
    22   12   17 ar   
    23   12   13 ar   
    24   13   14 ar   
    25   13   38 1    
    26   14   15 ar   
    27   14   39 1    
    28   15   16 ar   
    29   15   24 1    
    30   16   17 ar   
    31   16   18 1    
    32   17   40 1    
    33   18   19 2    
    34   18   20 am   BACKBONE|DICT|INTERRES
    35   20   21 1    
    36   20   41 1    
    37   21   22 1    
    38   21   23 1    
    39   21   42 1    
    40   22   43 1    
    41   22   44 1    
    42   22   45 1    
    43   23   46 1    
    44   23   47 1    
    45   23   48 1    
    46   24   28 1    
    47   24   25 1    
    48   25   26 1    
    49   25   49 1    
    50   25   50 1    
    51   26   27 1    
    52   26   51 1    
    53   26   52 1    
    54   27   28 1    
    55   27   53 1    
    56   27   54 1    
    57   28   55 1    
    58   28   56 1    
@<TRIPOS>SUBSTRUCTURE
     1 UNK         1 GROUP             0       ****    0 ROOT    
