@<TRIPOS>MOLECULE
ZINC35646635_5687
77   80    1
SMALL
USER_CHARGES


@<TRIPOS>ATOM
      1 C1          1.6340   52.7851   18.4769 C.3       1 UNK         0.0000 
      2 C2          3.1605   52.6941   18.2854 C.3       1 UNK         0.0000 
      3 N3          3.9320   53.8266   18.8739 N.am      1 UNK         0.0000 
      4 C4          4.6348   53.7899   20.0927 C.2       1 UNK         0.0000 
      5 C5          5.5033   54.7998   20.4239 C.2       1 UNK         0.0000 
      6 C6          5.8077   55.8909   19.3676 C.3       1 UNK         0.0000 
      7 H7          5.9488   56.8449   19.8797 H         1 UNK         0.0000 
      8 N8          4.6437   55.9996   18.4799 N.am      1 UNK         0.0000 
      9 C9          3.9157   54.9425   18.0603 C.2       1 UNK         0.0000 
     10 O10         3.3063   55.0849   16.9990 O.2       1 UNK         0.0000 
     11 C11         7.1256   55.7321   18.5853 C.ar      1 UNK         0.0000 
     12 C12         7.6423   54.4496   18.3573 C.ar      1 UNK         0.0000 
     13 C13         8.8716   54.2701   17.7287 C.ar      1 UNK         0.0000 
     14 C14         9.6108   55.3754   17.3153 C.ar      1 UNK         0.0000 
     15 C15         9.0950   56.6587   17.5013 C.ar      1 UNK         0.0000 
     16 C16         7.8586   56.8491   18.1293 C.ar      1 UNK         0.0000 
     17 C17         7.3331   58.2743   18.2623 C.3       1 UNK         0.0000 
     18 C18        10.9603   55.1809   16.6501 C.3       1 UNK         0.0000 
     19 C19         6.3058   54.9472   21.6774 C.2       1 UNK         0.0000 
     20 O20         7.2173   55.7740   21.7682 O.2       1 UNK         0.0000 
     21 O21         5.9519   54.1546   22.7145 O.3       1 UNK         0.0000 
     22 C22         6.6228   54.1840   23.9728 C.3       1 UNK         0.0000 
     23 C23         6.2575   55.4184   24.8118 C.3       1 UNK         0.0000 
     24 C24         4.2820   52.5753   20.9933 C.3       1 UNK         0.0000 
     25 N25         2.9047   52.7406   21.6878 N.4       1 UNK         0.0000 
     26 C26         2.9456   53.7548   22.8573 C.3       1 UNK         0.0000 
     27 C27         1.5663   54.3232   23.1999 C.3       1 UNK         0.0000 
     28 C28         0.5996   53.4953   24.0615 C.3       1 UNK         0.0000 
     29 N29         0.6636   52.0371   23.8957 N.am      1 UNK         0.0000 
     30 C30         0.7746   51.5474   22.5076 C.3       1 UNK         0.0000 
     31 C31         2.2192   51.3885   21.9989 C.3       1 UNK         0.0000 
     32 C32         0.6253   51.1566   24.9391 C.2       1 UNK         0.0000 
     33 O33         0.6505   49.9368   24.7691 O.2       1 UNK         0.0000 
     34 C34         0.5157   51.6728   26.3610 C.ar      1 UNK         0.0000 
     35 C35        -0.5540   51.2654   27.1699 C.ar      1 UNK         0.0000 
     36 C36        -0.6474   51.6951   28.4951 C.ar      1 UNK         0.0000 
     37 C37         0.3309   52.5299   29.0296 C.ar      1 UNK         0.0000 
     38 C38         1.4088   52.9310   28.2432 C.ar      1 UNK         0.0000 
     39 C39         1.5058   52.4972   26.9205 C.ar      1 UNK         0.0000 
     40 F40         2.3671   53.7288   28.7672 F         1 UNK         0.0000 
     41 H41         1.1533   51.8869   18.0892 H         1 UNK         0.0000 
     42 H42         1.3444   52.8900   19.5206 H         1 UNK         0.0000 
     43 H43         1.2148   53.6287   17.9283 H         1 UNK         0.0000 
     44 H44         3.3446   52.6543   17.2086 H         1 UNK         0.0000 
     45 H45         3.5166   51.7191   18.5997 H         1 UNK         0.0000 
     46 H46         4.6600   56.7559   17.8120 H         1 UNK         0.0000 
     47 H47         7.0963   53.5732   18.6716 H         1 UNK         0.0000 
     48 H48         9.2509   53.2685   17.5832 H         1 UNK         0.0000 
     49 H49         9.6622   57.5110   17.1571 H         1 UNK         0.0000 
     50 H50         7.8476   58.9690   17.5930 H         1 UNK         0.0000 
     51 H51         6.2761   58.3305   17.9951 H         1 UNK         0.0000 
     52 H52         7.4413   58.6395   19.2816 H         1 UNK         0.0000 
     53 H53        11.1225   55.9318   15.8753 H         1 UNK         0.0000 
     54 H54        11.7624   55.2601   17.3870 H         1 UNK         0.0000 
     55 H55        11.0235   54.2072   16.1610 H         1 UNK         0.0000 
     56 H56         6.3189   53.2973   24.5235 H         1 UNK         0.0000 
     57 H57         7.7005   54.0968   23.8345 H         1 UNK         0.0000 
     58 H58         6.7050   55.3613   25.8038 H         1 UNK         0.0000 
     59 H59         6.6114   56.3352   24.3431 H         1 UNK         0.0000 
     60 H60         5.1775   55.5010   24.9357 H         1 UNK         0.0000 
     61 H61         4.9886   52.3199   21.7760 H         1 UNK         0.0000 
     62 H62         4.2443   51.6619   20.4077 H         1 UNK         0.0000 
     63 H63         3.5310   54.5902   22.4750 H         1 UNK         0.0000 
     64 H64         3.4705   53.2962   23.6953 H         1 UNK         0.0000 
     65 H65         1.1046   54.5215   22.2413 H         1 UNK         0.0000 
     66 H66         1.6809   55.2965   23.6802 H         1 UNK         0.0000 
     67 H67        -0.4040   53.7950   23.7579 H         1 UNK         0.0000 
     68 H68         0.7038   53.8193   25.0883 H         1 UNK         0.0000 
     69 H69         0.3185   50.5551   22.4586 H         1 UNK         0.0000 
     70 H70         0.1524   52.1238   21.8227 H         1 UNK         0.0000 
     71 H71         2.8535   50.8287   22.6848 H         1 UNK         0.0000 
     72 H72         2.2091   50.8522   21.0479 H         1 UNK         0.0000 
     73 H73        -1.3069   50.5898   26.7910 H         1 UNK         0.0000 
     74 H74        -1.4672   51.3522   29.1124 H         1 UNK         0.0000 
     75 H75         0.2644   52.8464   30.0615 H         1 UNK         0.0000 
     76 H76         2.3627   52.8043   26.3372 H         1 UNK         0.0000 
     77 H77         2.3254   53.1699   20.9755 H         1 UNK         0.0000 
@<TRIPOS>BOND
     1    1    2 1    
     2    1   41 1    
     3    1   42 1    
     4    1   43 1    
     5    2    3 1    
     6    2   44 1    
     7    2   45 1    
     8    3    9 am   BACKBONE|DICT|INTERRES
     9    3    4 1    
    10    4    5 2    
    11    4   24 1    
    12    5    6 1    
    13    5   19 1    
    14    6    7 1    
    15    6    8 1    
    16    6   11 1    
    17    8    9 am   BACKBONE|DICT|INTERRES
    18    8   46 1    
    19    9   10 2    
    20   11   16 ar   
    21   11   12 ar   
    22   12   13 ar   
    23   12   47 1    
    24   13   14 ar   
    25   13   48 1    
    26   14   15 ar   
    27   14   18 1    
    28   15   16 ar   
    29   15   49 1    
    30   16   17 1    
    31   17   50 1    
    32   17   51 1    
    33   17   52 1    
    34   18   53 1    
    35   18   54 1    
    36   18   55 1    
    37   19   20 2    
    38   19   21 1    
    39   21   22 1    
    40   22   23 1    
    41   22   56 1    
    42   22   57 1    
    43   23   58 1    
    44   23   59 1    
    45   23   60 1    
    46   24   25 1    
    47   24   61 1    
    48   24   62 1    
    49   25   31 1    
    50   25   26 1    
    51   25   77 1    
    52   26   27 1    
    53   26   63 1    
    54   26   64 1    
    55   27   28 1    
    56   27   65 1    
    57   27   66 1    
    58   28   29 1    
    59   28   67 1    
    60   28   68 1    
    61   29   30 1    
    62   29   32 am   BACKBONE|DICT|INTERRES
    63   30   31 1    
    64   30   69 1    
    65   30   70 1    
    66   31   71 1    
    67   31   72 1    
    68   32   33 2    
    69   32   34 1    
    70   34   39 ar   
    71   34   35 ar   
    72   35   36 ar   
    73   35   73 1    
    74   36   37 ar   
    75   36   74 1    
    76   37   38 ar   
    77   37   75 1    
    78   38   39 ar   
    79   38   40 1    
    80   39   76 1    
@<TRIPOS>SUBSTRUCTURE
     1 UNK         1 GROUP             0       ****    0 ROOT    
