@<TRIPOS>MOLECULE
ZINC56527888_1490
39   41    1
SMALL
USER_CHARGES


@<TRIPOS>ATOM
      1 C1          8.7315   54.5479   16.8922 C.ar      1 UNK         0.0000 
      2 C2          7.7512   54.2977   17.8540 C.ar      1 UNK         0.0000 
      3 C3          6.8261   53.2603   17.6315 C.ar      1 UNK         0.0000 
      4 N4          6.8702   52.4968   16.5088 N.ar      1 UNK         0.0000 
      5 C5          7.8262   52.7558   15.5815 C.ar      1 UNK         0.0000 
      6 C6          8.7727   53.7681   15.7370 C.ar      1 UNK         0.0000 
      7 Cl7         9.9707   54.0485   14.5274 Cl        1 UNK         0.0000 
      8 N8          5.8394   52.8987   18.5677 N.am      1 UNK         0.0000 
      9 C9          5.2432   53.7107   19.4688 C.2       1 UNK         0.0000 
     10 O10         5.3835   54.9363   19.4641 O.2       1 UNK         0.0000 
     11 C11         4.3802   53.0443   20.5658 C.3       1 UNK         0.0000 
     12 H12         5.0464   52.3152   21.0308 H         1 UNK         0.0000 
     13 C13         3.1790   52.2820   19.9659 C.3       1 UNK         0.0000 
     14 C14         2.3386   51.6887   21.1167 C.3       1 UNK         0.0000 
     15 C15         1.9130   52.7421   22.1716 C.3       1 UNK         0.0000 
     16 N16         3.1404   53.4055   22.6610 N.am      1 UNK         0.0000 
     17 C17         3.9311   54.0971   21.6180 C.3       1 UNK         0.0000 
     18 C18         3.2771   53.7013   23.9863 C.2       1 UNK         0.0000 
     19 O19         2.3726   53.5084   24.8034 O.2       1 UNK         0.0000 
     20 N20         4.5151   54.1252   24.3302 N.am      1 UNK         0.0000 
     21 C21         5.0596   54.3081   25.5908 C.2       1 UNK         0.0000 
     22 N22         6.3183   54.6502   25.7242 N.2       1 UNK         0.0000 
     23 N23         6.7041   54.7530   27.0532 N.2       1 UNK         0.0000 
     24 C24         5.7246   54.4965   27.8828 C.2       1 UNK         0.0000 
     25 S25         4.2211   54.0967   27.1142 S.3       1 UNK         0.0000 
     26 H26         9.4553   55.3341   17.0488 H         1 UNK         0.0000 
     27 H27         7.7355   54.8881   18.7562 H         1 UNK         0.0000 
     28 H28         7.8284   52.1278   14.7035 H         1 UNK         0.0000 
     29 H29         5.5056   51.9304   18.4816 H         1 UNK         0.0000 
     30 H30         2.5122   52.9574   19.4236 H         1 UNK         0.0000 
     31 H31         3.5004   51.4498   19.3366 H         1 UNK         0.0000 
     32 H32         1.4448   51.2175   20.7025 H         1 UNK         0.0000 
     33 H33         2.8883   50.8830   21.6078 H         1 UNK         0.0000 
     34 H34         1.2633   53.4916   21.7170 H         1 UNK         0.0000 
     35 H35         1.3762   52.2255   22.9689 H         1 UNK         0.0000 
     36 H36         4.8169   54.5989   22.0069 H         1 UNK         0.0000 
     37 H37         3.2926   54.8467   21.1523 H         1 UNK         0.0000 
     38 H38         5.1648   54.2616   23.5700 H         1 UNK         0.0000 
     39 H39         5.8307   54.5385   28.9586 H         1 UNK         0.0000 
@<TRIPOS>BOND
     1    1    6 ar   
     2    1    2 ar   
     3    1   26 1    
     4    2    3 ar   
     5    2   27 1    
     6    3    4 ar   
     7    3    8 1    
     8    4    5 ar   
     9    5    6 ar   
    10    5   28 1    
    11    6    7 1    
    12    8    9 am   BACKBONE|DICT|INTERRES
    13    8   29 1    
    14    9   10 2    
    15    9   11 1    
    16   11   12 1    
    17   11   17 1    
    18   11   13 1    
    19   13   14 1    
    20   13   30 1    
    21   13   31 1    
    22   14   15 1    
    23   14   32 1    
    24   14   33 1    
    25   15   16 1    
    26   15   34 1    
    27   15   35 1    
    28   16   17 1    
    29   16   18 am   BACKBONE|DICT|INTERRES
    30   17   36 1    
    31   17   37 1    
    32   18   19 2    
    33   18   20 am   BACKBONE|DICT|INTERRES
    34   20   21 am   BACKBONE|DICT|INTERRES
    35   20   38 1    
    36   21   25 1    
    37   21   22 2    
    38   22   23 1    
    39   23   24 2    
    40   24   25 1    
    41   24   39 1    
@<TRIPOS>SUBSTRUCTURE
     1 UNK         1 GROUP             0       ****    0 ROOT    
