ZINC02717791_4662
                    3D
 Schrodinger Suite 2024-2.
 57 61  0  0  1  0            999 V2000
    3.4431   53.6634   14.8836 C   0  0  0  0  0  0
    2.0279   53.0638   14.9093 C   0  0  0  0  0  0
    1.9024   52.0096   15.8637 O   0  0  0  0  0  0
    1.7739   52.2567   17.1914 C   0  0  0  0  0  0
    1.7340   53.3893   17.6785 O   0  0  0  0  0  0
    1.7151   51.0224   18.0045 C   0  0  0  0  0  0
    1.3704   49.7116   17.5465 C   0  0  0  0  0  0
    1.4202   48.7382   18.5552 C   0  0  0  0  0  0
    1.9027   49.3920   20.0666 S   0  0  0  0  0  0
    2.0208   50.9934   19.3850 C   0  0  0  0  0  0
    2.4160   52.1005   20.1453 N   0  0  0  0  0  0
    2.7562   52.1548   21.4514 C   0  0  0  0  0  0
    2.7034   51.2031   22.2283 O   0  0  0  0  0  0
    3.2364   53.5140   21.9789 C   0  0  0  0  0  0
    2.2999   54.0219   23.4704 S   0  0  0  0  0  0
    3.5579   54.1525   24.7680 C   0  0  0  0  0  0
    4.7846   54.3928   24.4084 N   0  5  0  0  0  0
    5.7977   54.5265   25.2905 C   0  0  0  0  0  0
    6.9599   54.8153   25.0055 O   0  0  0  0  0  0
    5.4078   54.3046   26.6831 C   0  0  0  0  0  0
    6.0366   54.2490   27.9228 C   0  0  0  0  0  0
    5.1799   53.9767   28.8806 N   0  0  0  0  0  0
    3.9657   53.8384   28.3004 N   0  0  0  0  0  0
    4.0644   54.0658   26.9418 C   0  0  0  0  0  0
    3.0995   54.0095   25.9721 N   0  0  0  0  0  0
    2.8274   53.5326   29.0972 C   0  0  0  0  0  0
    2.9749   52.7773   30.2712 C   0  0  0  0  0  0
    1.8653   52.4955   31.0651 C   0  0  0  0  0  0
    0.6054   52.9498   30.6837 C   0  0  0  0  0  0
    0.4484   53.6909   29.5152 C   0  0  0  0  0  0
    1.5554   53.9842   28.7237 C   0  0  0  0  0  0
    1.0473   47.2684   18.4002 C   0  0  0  0  0  0
    1.0537   46.8977   16.9062 C   0  0  0  0  0  0
    0.2747   47.9321   16.0807 C   0  0  0  0  0  0
    0.9416   49.3266   16.1213 C   0  0  0  0  0  0
    3.5276   54.4143   14.0986 H   0  0  0  0  0  0
    3.6908   54.1454   15.8298 H   0  0  0  0  0  0
    4.1944   52.8974   14.6898 H   0  0  0  0  0  0
    1.8059   52.6490   13.9263 H   0  0  0  0  0  0
    1.2831   53.8402   15.0916 H   0  0  0  0  0  0
    2.4380   52.9699   19.6293 H   0  0  0  0  0  0
    4.3078   53.4303   22.1491 H   0  0  0  0  0  0
    3.1034   54.2847   21.2226 H   0  0  0  0  0  0
    7.0900   54.3941   28.1193 H   0  0  0  0  0  0
    3.9451   52.4114   30.5757 H   0  0  0  0  0  0
    1.9755   51.9249   31.9764 H   0  0  0  0  0  0
   -0.2543   52.7190   31.3009 H   0  0  0  0  0  0
   -0.5290   54.0395   29.2257 H   0  0  0  0  0  0
    1.4103   54.5694   27.8274 H   0  0  0  0  0  0
    0.0510   47.0972   18.8070 H   0  0  0  0  0  0
    1.7277   46.6230   18.9536 H   0  0  0  0  0  0
    0.6249   45.9032   16.7690 H   0  0  0  0  0  0
    2.0817   46.8368   16.5434 H   0  0  0  0  0  0
   -0.7452   48.0012   16.4624 H   0  0  0  0  0  0
    0.1845   47.5985   15.0454 H   0  0  0  0  0  0
    1.8277   49.3180   15.4853 H   0  0  0  0  0  0
    0.2589   50.0592   15.6924 H   0  0  0  0  0  0
  1  2  1  0  0  0
  1 36  1  0  0  0
  1 37  1  0  0  0
  1 38  1  0  0  0
  2  3  1  0  0  0
  2 39  1  0  0  0
  2 40  1  0  0  0
  3  4  1  0  0  0
  4  5  2  0  0  0
  4  6  1  0  0  0
  6 10  2  0  0  0
  6  7  1  0  0  0
  7 35  1  0  0  0
  7  8  2  0  0  0
  8  9  1  0  0  0
  8 32  1  0  0  0
  9 10  1  0  0  0
 10 11  1  0  0  0
 11 12  1  0  0  0
 11 41  1  0  0  0
 12 13  2  0  0  0
 12 14  1  0  0  0
 14 15  1  0  0  0
 14 42  1  0  0  0
 14 43  1  0  0  0
 15 16  1  0  0  0
 16 25  2  0  0  0
 16 17  1  0  0  0
 17 18  1  0  0  0
 18 19  2  0  0  0
 18 20  1  0  0  0
 20 24  2  0  0  0
 20 21  1  0  0  0
 21 22  2  0  0  0
 21 44  1  0  0  0
 22 23  1  0  0  0
 23 24  1  0  0  0
 23 26  1  0  0  0
 24 25  1  0  0  0
 26 31  2  0  0  0
 26 27  1  0  0  0
 27 28  2  0  0  0
 27 45  1  0  0  0
 28 29  1  0  0  0
 28 46  1  0  0  0
 29 30  2  0  0  0
 29 47  1  0  0  0
 30 31  1  0  0  0
 30 48  1  0  0  0
 31 49  1  0  0  0
 32 33  1  0  0  0
 32 50  1  0  0  0
 32 51  1  0  0  0
 33 34  1  0  0  0
 33 52  1  0  0  0
 33 53  1  0  0  0
 34 35  1  0  0  0
 34 54  1  0  0  0
 34 55  1  0  0  0
 35 56  1  0  0  0
 35 57  1  0  0  0
M  CHG  1  17  -1
M  END
> <i_i_glide_confnum>
185

> <i_i_glide_lignum>
4663

> <i_i_glide_posenum>
275

> <i_i_glide_rotatable_bonds>
9

> <i_m_Source_File_Index>
778

> <b_m_subgroup_collapsed>
0

> <r_i_docking_score>
-5.6061

> <r_i_glide_ecoul>
-3.87542

> <r_i_glide_eff_state_penalty>
0

> <r_i_glide_einternal>
4.6493

> <r_i_glide_emodel>
-74.3174

> <r_i_glide_energy>
-53.6312

> <r_i_glide_erotb>
0.633222

> <r_i_glide_esite>
-0.0483608

> <r_i_glide_evdw>
-49.7558

> <r_i_glide_gscore>
-5.6061

> <r_i_glide_hbond>
-0.154061

> <r_i_glide_ligand_efficiency>
-0.160174

> <r_i_glide_ligand_efficiency_ln>
-1.23066

> <r_i_glide_ligand_efficiency_sa>
-0.523941

> <r_i_glide_lipo>
-1.92843

> <r_i_glide_metal>
0

> <r_i_glide_rewards>
-1.03937

> <s_i_glide_gridfile>
wee1_glide-grid

> <s_m_Source_File>
wee1_decoys_glide_SP.sdf

> <s_m_Source_Path>
/Users/zhangxujun/Desktop

> <s_m_entry_id>
1053

> <s_m_entry_name>
wee1_decoys_glide_SP.778

> <s_m_subgroup_title>
wee1_decoys_glide_SP

> <s_m_subgroupid>
wee1_decoys_glide_SP


$$$$
