@<TRIPOS>MOLECULE
ZINC01063542_3144
52   54    1
SMALL
USER_CHARGES


@<TRIPOS>ATOM
      1 C1          1.5039   56.2143   30.3617 C.2       1 UNK         0.0000 
      2 C2          1.6766   56.1464   29.0329 C.2       1 UNK         0.0000 
      3 C3          1.9506   54.9036   28.1965 C.3       1 UNK         0.0000 
      4 N4          2.5704   53.7905   28.9182 N.pl3     1 UNK         0.0000 
      5 C5          1.9842   52.7534   29.6189 C.ar      1 UNK         0.0000 
      6 N6          2.8935   52.0916   30.2822 N.2       1 UNK         0.0000 
      7 N7          4.1325   52.5724   29.9093 N.2       1 UNK         0.0000 
      8 C8          3.9227   53.5689   29.0950 C.ar      1 UNK         0.0000 
      9 S9          5.2223   54.4965   28.3794 S.3       1 UNK         0.0000 
     10 C10         5.0333   53.8524   26.6775 C.3       1 UNK         0.0000 
     11 C11         5.8270   54.7134   25.6775 C.2       1 UNK         0.0000 
     12 O12         6.7051   55.4769   26.0810 O.2       1 UNK         0.0000 
     13 C13         5.5610   54.5320   24.2158 C.ar      1 UNK         0.0000 
     14 C14         4.3193   54.0947   23.7301 C.ar      1 UNK         0.0000 
     15 C15         4.0799   54.0490   22.3582 C.ar      1 UNK         0.0000 
     16 C16         5.0714   54.4525   21.4670 C.ar      1 UNK         0.0000 
     17 C17         6.3049   54.8967   21.9341 C.ar      1 UNK         0.0000 
     18 C18         6.5492   54.9258   23.3023 C.ar      1 UNK         0.0000 
     19 Br19        4.7302   54.4175   19.5963 Br        1 UNK         0.0000 
     20 C20         0.5067   52.3571   29.6678 C.3       1 UNK         0.0000 
     21 H21         0.4573   51.2998   29.9372 H         1 UNK         0.0000 
     22 C22        -0.2691   53.0855   30.7684 C.3       1 UNK         0.0000 
     23 O23         0.3044   52.9178   32.0480 O.3       1 UNK         0.0000 
     24 N24        -0.1851   52.4360   28.3749 N.am      1 UNK         0.0000 
     25 C25         0.1521   51.7173   27.2887 C.2       1 UNK         0.0000 
     26 O26         1.1043   50.9418   27.2795 O.2       1 UNK         0.0000 
     27 C27        -0.6518   51.9842   26.0414 C.ar      1 UNK         0.0000 
     28 C28        -0.0108   51.9784   24.7958 C.ar      1 UNK         0.0000 
     29 C29        -0.7298   52.2457   23.6341 C.ar      1 UNK         0.0000 
     30 C30        -2.0953   52.5059   23.7120 C.ar      1 UNK         0.0000 
     31 C31        -2.7497   52.4977   24.9405 C.ar      1 UNK         0.0000 
     32 C32        -2.0309   52.2350   26.1039 C.ar      1 UNK         0.0000 
     33 H33         1.3295   57.1633   30.8497 H         1 UNK         0.0000 
     34 H34         1.5209   55.3341   30.9831 H         1 UNK         0.0000 
     35 H35         1.6158   57.0728   28.4820 H         1 UNK         0.0000 
     36 H36         2.6170   55.1951   27.3881 H         1 UNK         0.0000 
     37 H37         1.0378   54.5723   27.7092 H         1 UNK         0.0000 
     38 H38         5.3699   52.8180   26.6312 H         1 UNK         0.0000 
     39 H39         3.9783   53.8460   26.4190 H         1 UNK         0.0000 
     40 H40         3.5159   53.8023   24.3907 H         1 UNK         0.0000 
     41 H41         3.1214   53.7192   21.9828 H         1 UNK         0.0000 
     42 H42         7.0671   55.2157   21.2382 H         1 UNK         0.0000 
     43 H43         7.5042   55.2961   23.6436 H         1 UNK         0.0000 
     44 H44        -0.3956   54.1419   30.5382 H         1 UNK         0.0000 
     45 H45        -1.2657   52.6518   30.8043 H         1 UNK         0.0000 
     46 H46        -0.3532   52.4243   32.5812 H         1 UNK         0.0000 
     47 H47        -1.1213   52.8054   28.3851 H         1 UNK         0.0000 
     48 H48         1.0477   51.7725   24.7212 H         1 UNK         0.0000 
     49 H49        -0.2291   52.2439   22.6772 H         1 UNK         0.0000 
     50 H50        -2.6532   52.7083   22.8111 H         1 UNK         0.0000 
     51 H51        -3.8124   52.6863   24.9907 H         1 UNK         0.0000 
     52 H52        -2.5592   52.2151   27.0453 H         1 UNK         0.0000 
@<TRIPOS>BOND
     1    1    2 2    
     2    1   33 1    
     3    1   34 1    
     4    2    3 1    
     5    2   35 1    
     6    3    4 1    
     7    3   36 1    
     8    3   37 1    
     9    4    8 ar   
    10    4    5 ar   
    11    5    6 ar   
    12    5   20 1    
    13    6    7 ar   
    14    7    8 ar   
    15    8    9 1    
    16    9   10 1    
    17   10   11 1    
    18   10   38 1    
    19   10   39 1    
    20   11   12 2    
    21   11   13 1    
    22   13   18 ar   
    23   13   14 ar   
    24   14   15 ar   
    25   14   40 1    
    26   15   16 ar   
    27   15   41 1    
    28   16   17 ar   
    29   16   19 1    
    30   17   18 ar   
    31   17   42 1    
    32   18   43 1    
    33   20   21 1    
    34   20   22 1    
    35   20   24 1    
    36   22   23 1    
    37   22   44 1    
    38   22   45 1    
    39   23   46 1    
    40   24   25 am   BACKBONE|DICT|INTERRES
    41   24   47 1    
    42   25   26 2    
    43   25   27 1    
    44   27   32 ar   
    45   27   28 ar   
    46   28   29 ar   
    47   28   48 1    
    48   29   30 ar   
    49   29   49 1    
    50   30   31 ar   
    51   30   50 1    
    52   31   32 ar   
    53   31   51 1    
    54   32   52 1    
@<TRIPOS>SUBSTRUCTURE
     1 UNK         1 GROUP             0       ****    0 ROOT    
