@<TRIPOS>MOLECULE
ZINC67547936_1513
53   55    1
SMALL
USER_CHARGES


@<TRIPOS>ATOM
      1 C1          7.3416   56.5044   15.4942 C.3       1 UNK         0.0000 
      2 C2          6.3029   56.1677   16.5834 C.3       1 UNK         0.0000 
      3 H3          6.5749   55.1800   16.9496 H         1 UNK         0.0000 
      4 C4          4.8648   56.0188   16.0186 C.3       1 UNK         0.0000 
      5 C5          4.1748   57.3529   15.6840 C.3       1 UNK         0.0000 
      6 C6          4.2621   58.3193   16.8715 C.3       1 UNK         0.0000 
      7 C7          5.7125   58.4930   17.3664 C.3       1 UNK         0.0000 
      8 N8          6.2508   57.1496   17.6981 N.am      1 UNK         0.0000 
      9 C9          6.7101   56.9056   18.9617 C.2       1 UNK         0.0000 
     10 O10         6.7044   57.7678   19.8452 O.2       1 UNK         0.0000 
     11 C11         7.2912   55.5129   19.3454 C.3       1 UNK         0.0000 
     12 H12         6.6373   54.7303   18.9599 H         1 UNK         0.0000 
     13 C13         8.7234   55.3250   18.8098 C.3       1 UNK         0.0000 
     14 N14         7.3502   55.2973   20.7989 N.am      1 UNK         0.0000 
     15 C15         6.3044   55.0237   21.5938 C.2       1 UNK         0.0000 
     16 O16         5.1539   54.8906   21.1820 O.2       1 UNK         0.0000 
     17 N17         6.7073   54.8969   22.8709 N.am      1 UNK         0.0000 
     18 C18         5.9635   54.6164   24.0295 C.ar      1 UNK         0.0000 
     19 C19         4.5741   54.4378   24.0760 C.ar      1 UNK         0.0000 
     20 C20         3.9436   54.1889   25.2920 C.ar      1 UNK         0.0000 
     21 C21         4.6896   54.0970   26.4786 C.ar      1 UNK         0.0000 
     22 C22         6.0780   54.2831   26.4187 C.ar      1 UNK         0.0000 
     23 C23         6.7043   54.5379   25.2050 C.ar      1 UNK         0.0000 
     24 N24         4.0883   53.8373   27.7363 N.am      1 UNK         0.0000 
     25 C25         4.7890   53.9156   29.0060 C.3       1 UNK         0.0000 
     26 C26         3.7275   53.6929   30.0450 C.3       1 UNK         0.0000 
     27 O27         2.6667   53.1510   29.3044 O.3       1 UNK         0.0000 
     28 C28         2.8109   53.2976   27.9701 C.2       1 UNK         0.0000 
     29 O29         1.9082   52.9863   27.1950 O.2       1 UNK         0.0000 
     30 H30         7.3629   55.7270   14.7301 H         1 UNK         0.0000 
     31 H31         8.3482   56.5956   15.9005 H         1 UNK         0.0000 
     32 H32         7.0983   57.4335   14.9784 H         1 UNK         0.0000 
     33 H33         4.8627   55.3583   15.1509 H         1 UNK         0.0000 
     34 H34         4.2585   55.5047   16.7671 H         1 UNK         0.0000 
     35 H35         4.6489   57.8052   14.8119 H         1 UNK         0.0000 
     36 H36         3.1322   57.1823   15.4123 H         1 UNK         0.0000 
     37 H37         3.8595   59.2945   16.5887 H         1 UNK         0.0000 
     38 H38         3.6276   57.9623   17.6817 H         1 UNK         0.0000 
     39 H39         6.3190   58.9106   16.5627 H         1 UNK         0.0000 
     40 H40         5.7736   59.2126   18.1851 H         1 UNK         0.0000 
     41 H41         8.7582   55.3182   17.7230 H         1 UNK         0.0000 
     42 H42         9.3880   56.1179   19.1561 H         1 UNK         0.0000 
     43 H43         9.1460   54.3763   19.1399 H         1 UNK         0.0000 
     44 H44         8.2470   55.4791   21.2193 H         1 UNK         0.0000 
     45 H45         7.6961   55.0172   23.0390 H         1 UNK         0.0000 
     46 H46         3.9593   54.4981   23.1917 H         1 UNK         0.0000 
     47 H47         2.8711   54.0753   25.2835 H         1 UNK         0.0000 
     48 H48         6.6920   54.2254   27.3052 H         1 UNK         0.0000 
     49 H49         7.7735   54.6746   25.1774 H         1 UNK         0.0000 
     50 H50         5.5834   53.1725   29.0863 H         1 UNK         0.0000 
     51 H51         5.2459   54.8976   29.1407 H         1 UNK         0.0000 
     52 H52         3.4206   54.6425   30.4817 H         1 UNK         0.0000 
     53 H53         4.0722   53.0105   30.8225 H         1 UNK         0.0000 
@<TRIPOS>BOND
     1    1    2 1    
     2    1   30 1    
     3    1   31 1    
     4    1   32 1    
     5    2    3 1    
     6    2    8 1    
     7    2    4 1    
     8    4    5 1    
     9    4   33 1    
    10    4   34 1    
    11    5    6 1    
    12    5   35 1    
    13    5   36 1    
    14    6    7 1    
    15    6   37 1    
    16    6   38 1    
    17    7    8 1    
    18    7   39 1    
    19    7   40 1    
    20    8    9 am   BACKBONE|DICT|INTERRES
    21    9   10 2    
    22    9   11 1    
    23   11   12 1    
    24   11   13 1    
    25   11   14 1    
    26   13   41 1    
    27   13   42 1    
    28   13   43 1    
    29   14   15 am   BACKBONE|DICT|INTERRES
    30   14   44 1    
    31   15   16 2    
    32   15   17 am   BACKBONE|DICT|INTERRES
    33   17   18 1    
    34   17   45 1    
    35   18   23 ar   
    36   18   19 ar   
    37   19   20 ar   
    38   19   46 1    
    39   20   21 ar   
    40   20   47 1    
    41   21   22 ar   
    42   21   24 1    
    43   22   23 ar   
    44   22   48 1    
    45   23   49 1    
    46   24   28 am   BACKBONE|DICT|INTERRES
    47   24   25 1    
    48   25   26 1    
    49   25   50 1    
    50   25   51 1    
    51   26   27 1    
    52   26   52 1    
    53   26   53 1    
    54   27   28 1    
    55   28   29 2    
@<TRIPOS>SUBSTRUCTURE
     1 UNK         1 GROUP             0       ****    0 ROOT    
