@<TRIPOS>MOLECULE
ZINC51330058_3842
48   50    1
SMALL
USER_CHARGES


@<TRIPOS>ATOM
      1 C1          0.6270   52.5006   28.7716 C.3       1 UNK         0.0000 
      2 C2          0.2492   52.1530   27.3438 C.ar      1 UNK         0.0000 
      3 C3         -0.9375   51.4653   27.0911 C.ar      1 UNK         0.0000 
      4 C4         -1.2810   51.1256   25.7858 C.ar      1 UNK         0.0000 
      5 C5         -0.4270   51.4434   24.7211 C.ar      1 UNK         0.0000 
      6 C6          0.7548   52.1473   24.9842 C.ar      1 UNK         0.0000 
      7 C7          1.0953   52.4965   26.2886 C.ar      1 UNK         0.0000 
      8 C8         -0.7769   51.0413   23.2701 C.3       1 UNK         0.0000 
      9 H9         -0.3128   51.8407   22.6834 H         1 UNK         0.0000 
     10 C10        -2.2901   51.1373   22.9554 C.3       1 UNK         0.0000 
     11 C11        -2.5117   50.8453   21.4793 C.2       1 UNK         0.0000 
     12 O12        -2.8966   51.6965   20.6886 O.2       1 UNK         0.0000 
     13 C13        -2.0599   49.4604   21.0292 C.3       1 UNK         0.0000 
     14 C14        -0.5325   49.3026   21.2677 C.3       1 UNK         0.0000 
     15 H15        -0.2914   48.2406   21.1706 H         1 UNK         0.0000 
     16 C16        -0.1065   49.7003   22.7594 C.3       1 UNK         0.0000 
     17 C17         1.3511   49.9155   22.8303 C.1       1 UNK         0.0000 
     18 N18         2.4900   50.0949   22.8817 N.1       1 UNK         0.0000 
     19 C19        -0.4886   48.5466   23.7542 C.2       1 UNK         0.0000 
     20 O20        -1.5148   47.8889   23.6066 O.2       1 UNK         0.0000 
     21 N21         0.3007   48.2929   24.8006 N.am      1 UNK         0.0000 
     22 C22         0.3323   49.9220   20.1296 C.ar      1 UNK         0.0000 
     23 C23        -0.1869   50.8458   19.2054 C.ar      1 UNK         0.0000 
     24 C24         0.6057   51.4160   18.2206 C.ar      1 UNK         0.0000 
     25 C25         1.9377   51.0471   18.1133 C.ar      1 UNK         0.0000 
     26 C26         2.4634   50.0855   18.9781 C.ar      1 UNK         0.0000 
     27 C27         1.6584   49.5056   19.9540 C.ar      1 UNK         0.0000 
     28 C28         2.7999   51.6973   17.0472 C.3       1 UNK         0.0000 
     29 H29         1.7048   52.6292   28.8801 H         1 UNK         0.0000 
     30 H30         0.3356   51.6973   29.4500 H         1 UNK         0.0000 
     31 H31         0.1237   53.4136   29.0883 H         1 UNK         0.0000 
     32 H32        -1.5889   51.1738   27.9033 H         1 UNK         0.0000 
     33 H33        -2.1942   50.5741   25.6210 H         1 UNK         0.0000 
     34 H34         1.4245   52.4146   24.1799 H         1 UNK         0.0000 
     35 H35         2.0195   53.0242   26.4760 H         1 UNK         0.0000 
     36 H36        -2.8773   50.4323   23.5424 H         1 UNK         0.0000 
     37 H37        -2.6660   52.1401   23.1588 H         1 UNK         0.0000 
     38 H38        -2.6248   48.7369   21.6147 H         1 UNK         0.0000 
     39 H39        -2.3332   49.2810   19.9894 H         1 UNK         0.0000 
     40 H40         1.2189   48.7097   24.8741 H         1 UNK         0.0000 
     41 H41         0.0300   47.6033   25.4923 H         1 UNK         0.0000 
     42 H42        -1.2122   51.1528   19.1977 H         1 UNK         0.0000 
     43 H43         0.1812   52.1383   17.5390 H         1 UNK         0.0000 
     44 H44         3.5013   49.7812   18.8924 H         1 UNK         0.0000 
     45 H45         2.0918   48.7496   20.5915 H         1 UNK         0.0000 
     46 H46         2.7054   51.1584   16.1051 H         1 UNK         0.0000 
     47 H47         2.5092   52.7346   16.8862 H         1 UNK         0.0000 
     48 H48         3.8501   51.7063   17.3343 H         1 UNK         0.0000 
@<TRIPOS>BOND
     1    1    2 1    
     2    1   29 1    
     3    1   30 1    
     4    1   31 1    
     5    2    7 ar   
     6    2    3 ar   
     7    3    4 ar   
     8    3   32 1    
     9    4    5 ar   
    10    4   33 1    
    11    5    6 ar   
    12    5    8 1    
    13    6    7 ar   
    14    6   34 1    
    15    7   35 1    
    16    8    9 1    
    17    8   16 1    
    18    8   10 1    
    19   10   11 1    
    20   10   36 1    
    21   10   37 1    
    22   11   12 2    
    23   11   13 1    
    24   13   14 1    
    25   13   38 1    
    26   13   39 1    
    27   14   15 1    
    28   14   16 1    
    29   14   22 1    
    30   16   17 1    
    31   16   19 1    
    32   17   18 3    
    33   19   20 2    
    34   19   21 am   BACKBONE|DICT|INTERRES
    35   21   40 1    
    36   21   41 1    
    37   22   27 ar   
    38   22   23 ar   
    39   23   24 ar   
    40   23   42 1    
    41   24   25 ar   
    42   24   43 1    
    43   25   26 ar   
    44   25   28 1    
    45   26   27 ar   
    46   26   44 1    
    47   27   45 1    
    48   28   46 1    
    49   28   47 1    
    50   28   48 1    
@<TRIPOS>SUBSTRUCTURE
     1 UNK         1 GROUP             0       ****    0 ROOT    
