@<TRIPOS>MOLECULE
ZINC34681190_165
60   63    1
SMALL
USER_CHARGES


@<TRIPOS>ATOM
      1 C1         -2.9289   48.5709   17.3621 C.3       1 UNK         0.0000 
      2 C2         -1.4536   48.4234   17.0312 C.ar      1 UNK         0.0000 
      3 C3         -1.0409   47.5392   16.0311 C.ar      1 UNK         0.0000 
      4 C4          0.3134   47.4110   15.7306 C.ar      1 UNK         0.0000 
      5 C5          1.2594   48.1616   16.4301 C.ar      1 UNK         0.0000 
      6 C6          0.8697   49.0396   17.4448 C.ar      1 UNK         0.0000 
      7 C7         -0.5024   49.1671   17.7352 C.ar      1 UNK         0.0000 
      8 N8          1.8982   49.7674   18.0846 N.am      1 UNK         0.0000 
      9 C9          1.8333   50.4791   19.2320 C.2       1 UNK         0.0000 
     10 O10         0.8366   50.5577   19.9502 O.2       1 UNK         0.0000 
     11 N11         3.0011   51.1037   19.4861 N.am      1 UNK         0.0000 
     12 C12         3.3153   51.9890   20.5422 C.ar      1 UNK         0.0000 
     13 C13         4.5720   52.6008   20.5092 C.ar      1 UNK         0.0000 
     14 C14         4.9604   53.4566   21.5454 C.ar      1 UNK         0.0000 
     15 C15         4.1077   53.6938   22.6394 C.ar      1 UNK         0.0000 
     16 N16         2.8838   53.1189   22.5928 N.pl3     1 UNK         0.0000 
     17 C17         2.4620   52.2917   21.6167 C.ar      1 UNK         0.0000 
     18 N18         4.5134   54.4711   23.8002 N.pl3     1 UNK         0.0000 
     19 C19         5.9639   54.6938   23.9965 C.3       1 UNK         0.0000 
     20 C20         6.4089   55.0518   25.4256 C.3       1 UNK         0.0000 
     21 C21         6.1034   53.9722   26.4859 C.3       1 UNK         0.0000 
     22 N22         4.7192   53.9465   27.0022 N.am      1 UNK         0.0000 
     23 C23         3.6233   53.6971   26.0453 C.3       1 UNK         0.0000 
     24 C24         3.5314   54.6938   24.8859 C.3       1 UNK         0.0000 
     25 C25         4.4833   54.3613   28.2792 C.2       1 UNK         0.0000 
     26 O26         5.3552   54.8437   29.0008 O.2       1 UNK         0.0000 
     27 C27         3.1015   54.2165   28.8654 C.ar      1 UNK         0.0000 
     28 C28         2.4207   52.9883   28.8483 C.ar      1 UNK         0.0000 
     29 C29         1.1590   52.8756   29.4308 C.ar      1 UNK         0.0000 
     30 C30         0.5752   53.9744   30.0534 C.ar      1 UNK         0.0000 
     31 C31         1.2478   55.1948   30.0814 C.ar      1 UNK         0.0000 
     32 C32         2.5008   55.3138   29.4911 C.ar      1 UNK         0.0000 
     33 F33         0.7045   56.2596   30.7013 F         1 UNK         0.0000 
     34 F34         0.5049   51.6967   29.3852 F         1 UNK         0.0000 
     35 H35        -3.4932   47.6837   17.0760 H         1 UNK         0.0000 
     36 H36        -3.0704   48.7037   18.4361 H         1 UNK         0.0000 
     37 H37        -3.3525   49.4393   16.8537 H         1 UNK         0.0000 
     38 H38        -1.7669   46.9598   15.4807 H         1 UNK         0.0000 
     39 H39         0.6325   46.7378   14.9500 H         1 UNK         0.0000 
     40 H40         2.3040   48.0595   16.1738 H         1 UNK         0.0000 
     41 H41        -0.8582   49.8489   18.4921 H         1 UNK         0.0000 
     42 H42         2.8064   49.6933   17.6270 H         1 UNK         0.0000 
     43 H43         3.7561   50.9074   18.8356 H         1 UNK         0.0000 
     44 H44         5.2476   52.4097   19.6845 H         1 UNK         0.0000 
     45 H45         5.9259   53.9287   21.4893 H         1 UNK         0.0000 
     46 H46         1.4671   51.8957   21.7578 H         1 UNK         0.0000 
     47 H47         6.2517   55.4989   23.3187 H         1 UNK         0.0000 
     48 H48         6.4916   53.7922   23.6756 H         1 UNK         0.0000 
     49 H49         6.0150   56.0274   25.7207 H         1 UNK         0.0000 
     50 H50         7.4910   55.1704   25.3741 H         1 UNK         0.0000 
     51 H51         6.8270   54.0581   27.3024 H         1 UNK         0.0000 
     52 H52         6.3147   52.9828   26.0769 H         1 UNK         0.0000 
     53 H53         3.7840   52.7189   25.6079 H         1 UNK         0.0000 
     54 H54         2.6458   53.6216   26.5090 H         1 UNK         0.0000 
     55 H55         2.5214   54.7283   24.4820 H         1 UNK         0.0000 
     56 H56         3.6848   55.6961   25.2810 H         1 UNK         0.0000 
     57 H57         2.8658   52.1181   28.3833 H         1 UNK         0.0000 
     58 H58        -0.3932   53.8796   30.5207 H         1 UNK         0.0000 
     59 H59         3.0103   56.2680   29.5295 H         1 UNK         0.0000 
     60 H60         2.2590   53.2865   23.3666 H         1 UNK         0.0000 
@<TRIPOS>BOND
     1    1    2 1    
     2    1   35 1    
     3    1   36 1    
     4    1   37 1    
     5    2    7 ar   
     6    2    3 ar   
     7    3    4 ar   
     8    3   38 1    
     9    4    5 ar   
    10    4   39 1    
    11    5    6 ar   
    12    5   40 1    
    13    6    7 ar   
    14    6    8 1    
    15    7   41 1    
    16    8    9 am   BACKBONE|DICT|INTERRES
    17    8   42 1    
    18    9   10 2    
    19    9   11 am   BACKBONE|DICT|INTERRES
    20   11   12 1    
    21   11   43 1    
    22   12   17 ar   
    23   12   13 ar   
    24   13   14 ar   
    25   13   44 1    
    26   14   15 ar   
    27   14   45 1    
    28   15   16 ar   
    29   15   18 1    
    30   16   17 ar   
    31   16   60 1    
    32   17   46 1    
    33   18   24 1    
    34   18   19 1    
    35   19   20 1    
    36   19   47 1    
    37   19   48 1    
    38   20   21 1    
    39   20   49 1    
    40   20   50 1    
    41   21   22 1    
    42   21   51 1    
    43   21   52 1    
    44   22   23 1    
    45   22   25 am   BACKBONE|DICT|INTERRES
    46   23   24 1    
    47   23   53 1    
    48   23   54 1    
    49   24   55 1    
    50   24   56 1    
    51   25   26 2    
    52   25   27 1    
    53   27   32 ar   
    54   27   28 ar   
    55   28   29 ar   
    56   28   57 1    
    57   29   30 ar   
    58   29   34 1    
    59   30   31 ar   
    60   30   58 1    
    61   31   32 ar   
    62   31   33 1    
    63   32   59 1    
@<TRIPOS>SUBSTRUCTURE
     1 UNK         1 GROUP             0       ****    0 ROOT    
