@<TRIPOS>MOLECULE
ZINC39665806_3069
70   74    1
SMALL
USER_CHARGES


@<TRIPOS>ATOM
      1 C1          1.0461   55.0195   28.7198 C.3       1 UNK         0.0000 
      2 C2          1.7148   53.7465   29.2847 C.3       1 UNK         0.0000 
      3 H3          1.3699   53.6804   30.3181 H         1 UNK         0.0000 
      4 C4          1.3067   52.3897   28.6347 C.3       1 UNK         0.0000 
      5 N5          0.4360   52.5106   27.4586 N.am      1 UNK         0.0000 
      6 C6          0.1871   51.5317   26.5790 C.2       1 UNK         0.0000 
      7 O7          0.7043   50.4224   26.6733 O.2       1 UNK         0.0000 
      8 C8         -0.7095   51.8972   25.3665 C.3       1 UNK         0.0000 
      9 H9         -0.7916   52.9817   25.2896 H         1 UNK         0.0000 
     10 C10        -0.0344   51.3743   24.0839 C.3       1 UNK         0.0000 
     11 N11        -1.1475   51.2640   23.1360 N.am      1 UNK         0.0000 
     12 C12        -2.4404   51.3397   23.8350 C.3       1 UNK         0.0000 
     13 C13        -2.1191   51.2481   25.3480 C.3       1 UNK         0.0000 
     14 C14        -2.1317   49.7662   25.8417 C.3       1 UNK         0.0000 
     15 C15        -3.5042   49.0865   25.6870 C.3       1 UNK         0.0000 
     16 N16        -4.5304   49.9131   26.4895 N.4       1 UNK         0.0000 
     17 C17        -4.5575   51.4152   26.1159 C.3       1 UNK         0.0000 
     18 C18        -3.1296   51.9793   26.2703 C.3       1 UNK         0.0000 
     19 C19        -1.0758   51.4222   21.7817 C.2       1 UNK         0.0000 
     20 O20        -2.0825   51.7015   21.1307 O.2       1 UNK         0.0000 
     21 C21         0.2100   51.2501   21.0936 C.2       1 UNK         0.0000 
     22 C22         1.3106   50.5496   21.5860 C.2       1 UNK         0.0000 
     23 S23         2.7042   50.4954   20.5591 S.3       1 UNK         0.0000 
     24 C24         1.8022   51.3057   19.3069 C.ar      1 UNK         0.0000 
     25 C25         0.4746   51.6515   19.7263 C.ar      1 UNK         0.0000 
     26 C26        -0.3393   52.3079   18.7748 C.ar      1 UNK         0.0000 
     27 C27         0.1484   52.5997   17.5021 C.ar      1 UNK         0.0000 
     28 C28         1.4374   52.2440   17.1329 C.ar      1 UNK         0.0000 
     29 C29         2.2826   51.5913   18.0210 C.ar      1 UNK         0.0000 
     30 O30         3.1289   53.9282   29.4254 O.3       1 UNK         0.0000 
     31 C31         3.9802   54.0688   28.3398 C.ar      1 UNK         0.0000 
     32 C32         3.6122   53.9333   26.9956 C.ar      1 UNK         0.0000 
     33 C33         4.5555   54.0961   25.9846 C.ar      1 UNK         0.0000 
     34 C34         5.8938   54.3730   26.3007 C.ar      1 UNK         0.0000 
     35 C35         6.2573   54.4968   27.6391 C.ar      1 UNK         0.0000 
     36 C36         5.3069   54.3627   28.6449 C.ar      1 UNK         0.0000 
     37 O37         6.8997   54.5364   25.3692 O.3       1 UNK         0.0000 
     38 C38         6.6028   54.3306   23.9917 C.3       1 UNK         0.0000 
     39 H39        -0.0216   54.8610   28.5677 H         1 UNK         0.0000 
     40 H40         1.1600   55.8586   29.4049 H         1 UNK         0.0000 
     41 H41         1.4602   55.3284   27.7632 H         1 UNK         0.0000 
     42 H42         2.2061   51.8277   28.3735 H         1 UNK         0.0000 
     43 H43         0.7893   51.7697   29.3716 H         1 UNK         0.0000 
     44 H44        -0.0212   53.3994   27.3325 H         1 UNK         0.0000 
     45 H45         0.7610   52.0603   23.7860 H         1 UNK         0.0000 
     46 H46         0.3070   50.3581   24.2813 H         1 UNK         0.0000 
     47 H47        -3.2177   50.6700   23.4682 H         1 UNK         0.0000 
     48 H48        -2.8254   52.3442   23.6501 H         1 UNK         0.0000 
     49 H49        -1.4059   49.1746   25.2841 H         1 UNK         0.0000 
     50 H50        -1.8114   49.6970   26.8816 H         1 UNK         0.0000 
     51 H51        -3.8610   49.0209   24.6597 H         1 UNK         0.0000 
     52 H52        -3.5042   48.0885   26.1292 H         1 UNK         0.0000 
     53 H53        -5.4515   49.5085   26.3888 H         1 UNK         0.0000 
     54 H54        -4.9436   51.4830   25.0969 H         1 UNK         0.0000 
     55 H55        -5.2661   51.8880   26.7985 H         1 UNK         0.0000 
     56 H56        -2.7972   51.9526   27.3110 H         1 UNK         0.0000 
     57 H57        -3.1592   53.0382   26.0052 H         1 UNK         0.0000 
     58 H58         1.4102   50.0290   22.5263 H         1 UNK         0.0000 
     59 H59        -1.3503   52.5920   19.0143 H         1 UNK         0.0000 
     60 H60        -0.4858   53.1046   16.7880 H         1 UNK         0.0000 
     61 H61         1.7886   52.4687   16.1364 H         1 UNK         0.0000 
     62 H62         3.2818   51.2987   17.7212 H         1 UNK         0.0000 
     63 H63         2.6018   53.7018   26.7059 H         1 UNK         0.0000 
     64 H64         4.2314   53.9869   24.9610 H         1 UNK         0.0000 
     65 H65         7.2815   54.7187   27.9002 H         1 UNK         0.0000 
     66 H66         5.5984   54.4988   29.6770 H         1 UNK         0.0000 
     67 H67         7.5044   54.4736   23.3972 H         1 UNK         0.0000 
     68 H68         5.8623   55.0451   23.6320 H         1 UNK         0.0000 
     69 H69         6.2437   53.3174   23.8033 H         1 UNK         0.0000 
     70 H70        -4.2884   49.8248   27.4696 H         1 UNK         0.0000 
@<TRIPOS>BOND
     1    1    2 1    
     2    1   39 1    
     3    1   40 1    
     4    1   41 1    
     5    2    3 1    
     6    2    4 1    
     7    2   30 1    
     8    4    5 1    
     9    4   42 1    
    10    4   43 1    
    11    5    6 am   BACKBONE|DICT|INTERRES
    12    5   44 1    
    13    6    7 2    
    14    6    8 1    
    15    8    9 1    
    16    8   13 1    
    17    8   10 1    
    18   10   11 1    
    19   10   45 1    
    20   10   46 1    
    21   11   12 1    
    22   11   19 am   BACKBONE|DICT|INTERRES
    23   12   13 1    
    24   12   47 1    
    25   12   48 1    
    26   13   18 1    
    27   13   14 1    
    28   14   15 1    
    29   14   49 1    
    30   14   50 1    
    31   15   16 1    
    32   15   51 1    
    33   15   52 1    
    34   16   17 1    
    35   16   53 1    
    36   16   70 1    
    37   17   18 1    
    38   17   54 1    
    39   17   55 1    
    40   18   56 1    
    41   18   57 1    
    42   19   20 2    
    43   19   21 1    
    44   21   25 1    
    45   21   22 2    
    46   22   23 1    
    47   22   58 1    
    48   23   24 1    
    49   24   29 ar   
    50   24   25 ar   
    51   25   26 ar   
    52   26   27 ar   
    53   26   59 1    
    54   27   28 ar   
    55   27   60 1    
    56   28   29 ar   
    57   28   61 1    
    58   29   62 1    
    59   30   31 1    
    60   31   36 ar   
    61   31   32 ar   
    62   32   33 ar   
    63   32   63 1    
    64   33   34 ar   
    65   33   64 1    
    66   34   35 ar   
    67   34   37 1    
    68   35   36 ar   
    69   35   65 1    
    70   36   66 1    
    71   37   38 1    
    72   38   67 1    
    73   38   68 1    
    74   38   69 1    
@<TRIPOS>SUBSTRUCTURE
     1 UNK         1 GROUP             0       ****    0 ROOT    
