@<TRIPOS>MOLECULE
ZINC14358358_3376
60   64    1
SMALL
USER_CHARGES


@<TRIPOS>ATOM
      1 C1          4.7957   54.5483   28.4184 C.3       1 UNK         0.0000 
      2 C2          5.9539   54.6941   27.4272 C.3       1 UNK         0.0000 
      3 O3          5.4740   54.4417   26.1110 O.3       1 UNK         0.0000 
      4 C4          6.1214   54.9224   25.0212 C.2       1 UNK         0.0000 
      5 O5          7.1044   55.6622   25.0778 O.2       1 UNK         0.0000 
      6 C6          5.4930   54.4968   23.7533 C.2       1 UNK         0.0000 
      7 C7          6.0914   54.6733   22.4848 C.2       1 UNK         0.0000 
      8 C8          5.3258   54.2538   21.4205 C.2       1 UNK         0.0000 
      9 S9          3.8374   53.5504   21.8986 S.3       1 UNK         0.0000 
     10 C10         4.2138   53.9144   23.5730 C.2       1 UNK         0.0000 
     11 N11         3.2973   53.7029   24.5924 N.am      1 UNK         0.0000 
     12 C12         2.1756   52.9633   24.6017 C.2       1 UNK         0.0000 
     13 O13         1.7869   52.2406   23.6846 O.2       1 UNK         0.0000 
     14 C14         1.4342   53.0705   25.9432 C.3       1 UNK         0.0000 
     15 N15         0.2749   52.1651   26.1078 N.am      1 UNK         0.0000 
     16 C16        -0.8329   52.1256   25.3267 C.2       1 UNK         0.0000 
     17 O17        -1.0967   52.8367   24.3522 O.2       1 UNK         0.0000 
     18 C18        -1.6565   50.9387   25.8232 C.3       1 UNK         0.0000 
     19 N19        -0.7909   50.4967   26.8818 N.am      1 UNK         0.0000 
     20 C20         0.2757   51.2611   27.1131 C.2       1 UNK         0.0000 
     21 O21         0.9240   51.2968   28.1588 O.2       1 UNK         0.0000 
     22 C22        -1.7217   49.8608   24.7137 C.3       1 UNK         0.0000 
     23 C23        -3.0740   51.3189   26.3201 C.ar      1 UNK         0.0000 
     24 C24        -3.9496   52.0273   25.4774 C.ar      1 UNK         0.0000 
     25 C25        -5.2335   52.3781   25.8963 C.ar      1 UNK         0.0000 
     26 C26        -5.6624   52.0243   27.1724 C.ar      1 UNK         0.0000 
     27 C27        -4.8140   51.2967   28.0211 C.ar      1 UNK         0.0000 
     28 C28        -3.5302   50.9527   27.6015 C.ar      1 UNK         0.0000 
     29 O29        -5.1751   50.9778   29.3147 O.3       1 UNK         0.0000 
     30 C30        -6.5873   50.9987   29.5428 C.3       1 UNK         0.0000 
     31 C31        -7.2099   52.2805   28.9380 C.3       1 UNK         0.0000 
     32 O32        -6.9537   52.3578   27.5310 O.3       1 UNK         0.0000 
     33 C33         5.9536   54.5308   20.0831 C.3       1 UNK         0.0000 
     34 C34         7.1075   55.4656   20.4821 C.3       1 UNK         0.0000 
     35 C35         7.4022   55.2206   21.9714 C.3       1 UNK         0.0000 
     36 H36         5.1460   54.6990   29.4395 H         1 UNK         0.0000 
     37 H37         4.3457   53.5563   28.3609 H         1 UNK         0.0000 
     38 H38         4.0191   55.2907   28.2254 H         1 UNK         0.0000 
     39 H39         6.3754   55.6967   27.5142 H         1 UNK         0.0000 
     40 H40         6.7500   53.9864   27.6634 H         1 UNK         0.0000 
     41 H41         3.5967   54.0685   25.4856 H         1 UNK         0.0000 
     42 H42         2.1633   52.9118   26.7408 H         1 UNK         0.0000 
     43 H43         1.1046   54.0968   26.0522 H         1 UNK         0.0000 
     44 H44        -0.8965   49.5680   27.2961 H         1 UNK         0.0000 
     45 H45        -2.2574   50.2166   23.8323 H         1 UNK         0.0000 
     46 H46        -0.7302   49.5429   24.3839 H         1 UNK         0.0000 
     47 H47        -2.2396   48.9693   25.0702 H         1 UNK         0.0000 
     48 H48        -3.6379   52.3065   24.4816 H         1 UNK         0.0000 
     49 H49        -5.8945   52.9148   25.2313 H         1 UNK         0.0000 
     50 H50        -2.9006   50.3964   28.2836 H         1 UNK         0.0000 
     51 H51        -6.7812   50.9397   30.6141 H         1 UNK         0.0000 
     52 H52        -7.0402   50.1232   29.0740 H         1 UNK         0.0000 
     53 H53        -6.7786   53.1548   29.4281 H         1 UNK         0.0000 
     54 H54        -8.2864   52.3009   29.1093 H         1 UNK         0.0000 
     55 H55         6.3030   53.6206   19.5945 H         1 UNK         0.0000 
     56 H56         5.2752   55.0313   19.3908 H         1 UNK         0.0000 
     57 H57         7.9910   55.3207   19.8581 H         1 UNK         0.0000 
     58 H58         6.7920   56.5013   20.3440 H         1 UNK         0.0000 
     59 H59         7.7304   56.1249   22.4791 H         1 UNK         0.0000 
     60 H60         8.2071   54.4967   22.0815 H         1 UNK         0.0000 
@<TRIPOS>BOND
     1    1    2 1    
     2    1   36 1    
     3    1   37 1    
     4    1   38 1    
     5    2    3 1    
     6    2   39 1    
     7    2   40 1    
     8    3    4 1    
     9    4    5 2    
    10    4    6 1    
    11    6   10 2    
    12    6    7 1    
    13    7   35 1    
    14    7    8 2    
    15    8    9 1    
    16    8   33 1    
    17    9   10 1    
    18   10   11 am   BACKBONE|DICT|INTERRES
    19   11   12 am   BACKBONE|DICT|INTERRES
    20   11   41 1    
    21   12   13 2    
    22   12   14 1    
    23   14   15 1    
    24   14   42 1    
    25   14   43 1    
    26   15   20 am   BACKBONE|DICT|INTERRES
    27   15   16 am   BACKBONE|DICT|INTERRES
    28   16   17 2    
    29   16   18 1    
    30   18   19 1    
    31   18   22 1    
    32   18   23 1    
    33   19   20 am   BACKBONE|DICT|INTERRES
    34   19   44 1    
    35   20   21 2    
    36   22   45 1    
    37   22   46 1    
    38   22   47 1    
    39   23   28 ar   
    40   23   24 ar   
    41   24   25 ar   
    42   24   48 1    
    43   25   26 ar   
    44   25   49 1    
    45   26   32 1    
    46   26   27 ar   
    47   27   28 ar   
    48   27   29 1    
    49   28   50 1    
    50   29   30 1    
    51   30   31 1    
    52   30   51 1    
    53   30   52 1    
    54   31   32 1    
    55   31   53 1    
    56   31   54 1    
    57   33   34 1    
    58   33   55 1    
    59   33   56 1    
    60   34   35 1    
    61   34   57 1    
    62   34   58 1    
    63   35   59 1    
    64   35   60 1    
@<TRIPOS>SUBSTRUCTURE
     1 UNK         1 GROUP             0       ****    0 ROOT    
