@<TRIPOS>MOLECULE
ZINC38076220_1838
33   35    1
SMALL
USER_CHARGES


@<TRIPOS>ATOM
      1 C1          5.1114   54.1479   19.9496 C.ar      1 UNK         0.0000 
      2 C2          5.0210   53.9354   21.3249 C.ar      1 UNK         0.0000 
      3 C3          5.9006   54.5906   22.2037 C.ar      1 UNK         0.0000 
      4 C4          6.8912   55.4258   21.6788 C.ar      1 UNK         0.0000 
      5 C5          6.9718   55.6443   20.3031 C.ar      1 UNK         0.0000 
      6 C6          6.0835   55.0058   19.4396 C.ar      1 UNK         0.0000 
      7 F7          7.9012   56.4878   19.8053 F         1 UNK         0.0000 
      8 N8          5.8437   54.4632   23.6031 N.am      1 UNK         0.0000 
      9 C9          4.7476   54.2277   24.3563 C.2       1 UNK         0.0000 
     10 O10         3.6099   54.0993   23.9068 O.2       1 UNK         0.0000 
     11 N11         5.0738   54.1538   25.6626 N.am      1 UNK         0.0000 
     12 C12         4.2744   53.8292   26.7879 C.ar      1 UNK         0.0000 
     13 C13         2.8635   53.7357   26.7349 C.ar      1 UNK         0.0000 
     14 C14         2.1823   53.3547   27.8854 C.ar      1 UNK         0.0000 
     15 C15         2.8324   53.0780   29.0492 C.ar      1 UNK         0.0000 
     16 C16         4.2094   53.1822   29.1526 C.ar      1 UNK         0.0000 
     17 C17         4.9368   53.5726   28.0195 C.ar      1 UNK         0.0000 
     18 N18         6.3233   53.6965   28.1636 N.pl3     1 UNK         0.0000 
     19 O19         1.9313   52.7513   30.0121 O.3       1 UNK         0.0000 
     20 C20         0.6992   52.6320   29.3479 C.3       1 UNK         0.0000 
     21 O21         0.8434   53.2254   28.0824 O.3       1 UNK         0.0000 
     22 H22         4.4256   53.6462   19.2806 H         1 UNK         0.0000 
     23 H23         4.2597   53.2645   21.6923 H         1 UNK         0.0000 
     24 H24         7.5921   55.9251   22.3317 H         1 UNK         0.0000 
     25 H25         6.1441   55.1774   18.3752 H         1 UNK         0.0000 
     26 H26         6.7059   54.6749   24.0821 H         1 UNK         0.0000 
     27 H27         6.0535   54.2294   25.8729 H         1 UNK         0.0000 
     28 H28         2.2968   53.9460   25.8439 H         1 UNK         0.0000 
     29 H29         4.7004   52.9620   30.0821 H         1 UNK         0.0000 
     30 H30         6.7137   53.6327   29.0940 H         1 UNK         0.0000 
     31 H31         6.8538   54.1615   27.4454 H         1 UNK         0.0000 
     32 H32         0.4551   51.5731   29.2222 H         1 UNK         0.0000 
     33 H33        -0.0968   53.1209   29.9168 H         1 UNK         0.0000 
@<TRIPOS>BOND
     1    1    6 ar   
     2    1    2 ar   
     3    1   22 1    
     4    2    3 ar   
     5    2   23 1    
     6    3    4 ar   
     7    3    8 1    
     8    4    5 ar   
     9    4   24 1    
    10    5    6 ar   
    11    5    7 1    
    12    6   25 1    
    13    8    9 am   BACKBONE|DICT|INTERRES
    14    8   26 1    
    15    9   10 2    
    16    9   11 am   BACKBONE|DICT|INTERRES
    17   11   12 1    
    18   11   27 1    
    19   12   17 ar   
    20   12   13 ar   
    21   13   14 ar   
    22   13   28 1    
    23   14   21 1    
    24   14   15 ar   
    25   15   16 ar   
    26   15   19 1    
    27   16   17 ar   
    28   16   29 1    
    29   17   18 1    
    30   18   30 1    
    31   18   31 1    
    32   19   20 1    
    33   20   21 1    
    34   20   32 1    
    35   20   33 1    
@<TRIPOS>SUBSTRUCTURE
     1 UNK         1 GROUP             0       ****    0 ROOT    
