@<TRIPOS>MOLECULE
ZINC17020887_4778
45   48    1
SMALL
USER_CHARGES


@<TRIPOS>ATOM
      1 C1          0.9505   50.3661   23.4964 C.3       1 UNK         0.0000 
      2 C2          0.3080   51.7614   23.2006 C.3       1 UNK         0.0000 
      3 C3         -0.0497   52.4957   24.5160 C.3       1 UNK         0.0000 
      4 C4          1.2143   52.8414   25.3368 C.3       1 UNK         0.0000 
      5 C5          2.2626   53.6513   24.5084 C.3       1 UNK         0.0000 
      6 H6          1.7981   54.6243   24.3361 H         1 UNK         0.0000 
      7 C7          3.5725   53.9868   25.2491 C.ar      1 UNK         0.0000 
      8 C8          3.6033   54.0991   26.6496 C.ar      1 UNK         0.0000 
      9 C9          4.7735   54.4062   27.3342 C.ar      1 UNK         0.0000 
     10 C10         5.9458   54.6062   26.6233 C.ar      1 UNK         0.0000 
     11 C11         5.9459   54.5108   25.2364 C.ar      1 UNK         0.0000 
     12 C12         4.7788   54.2004   24.5297 C.ar      1 UNK         0.0000 
     13 C13         4.8578   54.0302   23.0079 C.3       1 UNK         0.0000 
     14 C14         3.4766   53.9818   22.3340 C.3       1 UNK         0.0000 
     15 C15         2.5490   53.0284   23.1047 C.3       1 UNK         0.0000 
     16 H16         3.0934   52.0967   23.2207 H         1 UNK         0.0000 
     17 C17         1.2065   52.7191   22.3962 C.3       1 UNK         0.0000 
     18 H18         0.7143   53.6949   22.3401 H         1 UNK         0.0000 
     19 C19         1.1870   52.1543   20.9752 C.3       1 UNK         0.0000 
     20 C20        -0.2623   51.6974   20.7908 C.2       1 UNK         0.0000 
     21 N21        -0.7968   51.4723   19.6567 N.2       1 UNK         0.0000 
     22 O22        -2.1317   51.0358   19.7488 O.3       1 UNK         0.0000 
     23 C23        -0.8837   51.6337   22.2157 C.3       1 UNK         0.0000 
     24 H24        -1.5056   52.5264   22.3134 H         1 UNK         0.0000 
     25 O25        -1.7490   50.5248   22.4153 O.3       1 UNK         0.0000 
     26 O26         7.1044   54.8966   27.2815 O.3       1 UNK         0.0000 
     27 H27         1.8806   50.4272   24.0591 H         1 UNK         0.0000 
     28 H28         0.2779   49.7465   24.0924 H         1 UNK         0.0000 
     29 H29         1.1700   49.8086   22.5846 H         1 UNK         0.0000 
     30 H30        -0.5917   53.4201   24.3037 H         1 UNK         0.0000 
     31 H31        -0.7325   51.8908   25.1140 H         1 UNK         0.0000 
     32 H32         0.8729   53.4194   26.1925 H         1 UNK         0.0000 
     33 H33         1.6581   51.9335   25.7371 H         1 UNK         0.0000 
     34 H34         2.7094   53.9521   27.2370 H         1 UNK         0.0000 
     35 H35         4.7622   54.4836   28.4122 H         1 UNK         0.0000 
     36 H36         6.8721   54.6568   24.7003 H         1 UNK         0.0000 
     37 H37         5.4621   54.8214   22.5644 H         1 UNK         0.0000 
     38 H38         5.3833   53.0950   22.8065 H         1 UNK         0.0000 
     39 H39         3.0221   54.9660   22.2278 H         1 UNK         0.0000 
     40 H40         3.5998   53.6306   21.3089 H         1 UNK         0.0000 
     41 H41         1.4749   52.8964   20.2295 H         1 UNK         0.0000 
     42 H42         1.8686   51.3087   20.8771 H         1 UNK         0.0000 
     43 H43        -2.2185   50.8487   20.6964 H         1 UNK         0.0000 
     44 H44        -1.9460   50.4557   23.3563 H         1 UNK         0.0000 
     45 H45         6.9977   55.1086   28.2169 H         1 UNK         0.0000 
@<TRIPOS>BOND
     1    1    2 1    
     2    1   27 1    
     3    1   28 1    
     4    1   29 1    
     5    2   17 1    
     6    2   23 1    
     7    2    3 1    
     8    3    4 1    
     9    3   30 1    
    10    3   31 1    
    11    4    5 1    
    12    4   32 1    
    13    4   33 1    
    14    5    6 1    
    15    5   15 1    
    16    5    7 1    
    17    7   12 ar   
    18    7    8 ar   
    19    8    9 ar   
    20    8   34 1    
    21    9   10 ar   
    22    9   35 1    
    23   10   11 ar   
    24   10   26 1    
    25   11   12 ar   
    26   11   36 1    
    27   12   13 1    
    28   13   14 1    
    29   13   37 1    
    30   13   38 1    
    31   14   15 1    
    32   14   39 1    
    33   14   40 1    
    34   15   16 1    
    35   15   17 1    
    36   17   18 1    
    37   17   19 1    
    38   19   20 1    
    39   19   41 1    
    40   19   42 1    
    41   20   21 2    
    42   20   23 1    
    43   21   22 1    
    44   22   43 1    
    45   23   24 1    
    46   23   25 1    
    47   25   44 1    
    48   26   45 1    
@<TRIPOS>SUBSTRUCTURE
     1 UNK         1 GROUP             0       ****    0 ROOT    
