ZINC04366898_4258
                    3D
 Schrodinger Suite 2024-2.
 56 58  0  0  1  0            999 V2000
    5.8772   54.6554   28.0838 C   0  0  0  0  0  0
    4.9866   53.7351   27.2216 C   0  0  2  0  0  0
    5.3740   52.7190   27.3366 H   0  0  0  0  0  0
    5.1077   54.0176   25.7083 C   0  0  0  0  0  0
    6.3797   54.0979   25.1273 C   0  0  0  0  0  0
    6.5249   54.2140   23.7474 C   0  0  0  0  0  0
    5.3988   54.2339   22.9321 C   0  0  0  0  0  0
    4.1254   54.1729   23.4880 C   0  0  0  0  0  0
    3.9793   54.0862   24.8694 C   0  0  0  0  0  0
    3.5916   53.6435   27.6680 N   0  0  0  0  0  0
    3.1097   53.1746   28.8321 C   0  0  0  0  0  0
    3.7692   53.0669   29.8665 O   0  0  0  0  0  0
    1.6756   52.6955   28.7533 C   0  0  0  0  0  0
    1.3161   51.9004   27.6556 C   0  0  0  0  0  0
    0.0639   51.2937   27.5567 C   0  0  0  0  0  0
   -0.8298   51.4226   28.6109 C   0  0  0  0  0  0
   -0.4915   52.1910   29.7191 C   0  0  0  0  0  0
    0.7342   52.8775   29.7960 C   0  0  0  0  0  0
    0.9740   53.7538   30.8821 N   0  0  0  0  0  0
    0.3048   53.5076   32.1598 C   0  0  0  0  0  0
    1.1250   55.1625   30.5176 C   0  0  0  0  0  0
   -0.2890   50.4633   26.4811 N   0  0  0  0  0  0
    0.0901   50.6185   25.1969 C   0  0  0  0  0  0
    0.7114   51.5966   24.7710 O   0  0  0  0  0  0
   -0.2813   49.5689   24.4398 N   0  0  0  0  0  0
    0.0584   49.3556   23.0930 C   0  0  0  0  0  0
    1.3129   49.6969   22.5595 C   0  0  0  0  0  0
    1.5986   49.4467   21.2169 C   0  0  0  0  0  0
    0.6364   48.8526   20.4003 C   0  0  0  0  0  0
   -0.6051   48.4983   20.9283 C   0  0  0  0  0  0
   -0.8916   48.7411   22.2721 C   0  0  0  0  0  0
   -1.5314   47.9097   20.1390 F   0  0  0  0  0  0
    6.9360   54.4437   27.9344 H   0  0  0  0  0  0
    5.7210   55.6967   27.8303 H   0  0  0  0  0  0
    5.6978   54.5433   29.1519 H   0  0  0  0  0  0
    7.2648   54.0367   25.7396 H   0  0  0  0  0  0
    7.5065   54.2674   23.3045 H   0  0  0  0  0  0
    5.5115   54.3064   21.8603 H   0  0  0  0  0  0
    3.2540   54.1950   22.8494 H   0  0  0  0  0  0
    2.9743   54.0183   25.2564 H   0  0  0  0  0  0
    2.9131   53.7214   26.9257 H   0  0  0  0  0  0
    2.0381   51.7011   26.8817 H   0  0  0  0  0  0
   -1.7798   50.9061   28.5901 H   0  0  0  0  0  0
   -1.2140   52.2482   30.5176 H   0  0  0  0  0  0
    0.4362   52.4680   32.4611 H   0  0  0  0  0  0
    0.7042   54.1334   32.9571 H   0  0  0  0  0  0
   -0.7649   53.6964   32.0986 H   0  0  0  0  0  0
    2.0415   55.3525   29.9607 H   0  0  0  0  0  0
    0.3046   55.4689   29.8772 H   0  0  0  0  0  0
    1.1086   55.8146   31.3915 H   0  0  0  0  0  0
   -0.8958   49.6885   26.7203 H   0  0  0  0  0  0
   -0.9179   48.9026   24.8489 H   0  0  0  0  0  0
    2.0742   50.1437   23.1825 H   0  0  0  0  0  0
    2.5648   49.7096   20.8094 H   0  0  0  0  0  0
    0.8565   48.6598   19.3604 H   0  0  0  0  0  0
   -1.8581   48.4603   22.6637 H   0  0  0  0  0  0
  1  2  1  0  0  0
  1 33  1  0  0  0
  1 34  1  0  0  0
  1 35  1  0  0  0
  2  3  1  0  0  0
  2  4  1  0  0  0
  2 10  1  0  0  0
  4  9  2  0  0  0
  4  5  1  0  0  0
  5  6  2  0  0  0
  5 36  1  0  0  0
  6  7  1  0  0  0
  6 37  1  0  0  0
  7  8  2  0  0  0
  7 38  1  0  0  0
  8  9  1  0  0  0
  8 39  1  0  0  0
  9 40  1  0  0  0
 10 11  1  0  0  0
 10 41  1  0  0  0
 11 12  2  0  0  0
 11 13  1  0  0  0
 13 18  2  0  0  0
 13 14  1  0  0  0
 14 15  2  0  0  0
 14 42  1  0  0  0
 15 16  1  0  0  0
 15 22  1  0  0  0
 16 17  2  0  0  0
 16 43  1  0  0  0
 17 18  1  0  0  0
 17 44  1  0  0  0
 18 19  1  0  0  0
 19 20  1  0  0  0
 19 21  1  0  0  0
 20 45  1  0  0  0
 20 46  1  0  0  0
 20 47  1  0  0  0
 21 48  1  0  0  0
 21 49  1  0  0  0
 21 50  1  0  0  0
 22 23  1  0  0  0
 22 51  1  0  0  0
 23 24  2  0  0  0
 23 25  1  0  0  0
 25 26  1  0  0  0
 25 52  1  0  0  0
 26 31  2  0  0  0
 26 27  1  0  0  0
 27 28  2  0  0  0
 27 53  1  0  0  0
 28 29  1  0  0  0
 28 54  1  0  0  0
 29 30  2  0  0  0
 29 55  1  0  0  0
 30 31  1  0  0  0
 30 32  1  0  0  0
 31 56  1  0  0  0
M  END
> <i_i_glide_confnum>
16

> <i_i_glide_lignum>
4259

> <i_i_glide_posenum>
98

> <i_i_glide_rotatable_bonds>
9

> <i_m_Source_File_Index>
2097

> <b_m_subgroup_collapsed>
0

> <r_i_docking_score>
-6.17687

> <r_i_glide_ecoul>
-6.39526

> <r_i_glide_eff_state_penalty>
0

> <r_i_glide_einternal>
12.0592

> <r_i_glide_emodel>
-62.1716

> <r_i_glide_energy>
-49.8336

> <r_i_glide_erotb>
0.671691

> <r_i_glide_esite>
-0.103385

> <r_i_glide_evdw>
-43.4384

> <r_i_glide_gscore>
-6.17687

> <r_i_glide_hbond>
-0.0773516

> <r_i_glide_ligand_efficiency>
-0.199254

> <r_i_glide_ligand_efficiency_ln>
-1.39307

> <r_i_glide_ligand_efficiency_sa>
-0.625932

> <r_i_glide_lipo>
-2.83738

> <r_i_glide_metal>
0

> <r_i_glide_rewards>
-0.699238

> <s_i_glide_gridfile>
wee1_glide-grid

> <s_m_Source_File>
wee1_decoys_glide_SP.sdf

> <s_m_Source_Path>
/Users/zhangxujun/Desktop

> <s_m_entry_id>
2372

> <s_m_entry_name>
wee1_decoys_glide_SP.2097

> <s_m_subgroup_title>
wee1_decoys_glide_SP

> <s_m_subgroupid>
wee1_decoys_glide_SP


$$$$
