ZINC20654129_6141
                    3D
 Schrodinger Suite 2024-2.
 37 39  0  0  1  0            999 V2000
   -0.5135   49.9696   24.5167 C   0  0  0  0  0  0
   -0.2372   51.2341   25.3584 C   0  0  0  0  0  0
    0.3150   50.7806   26.7356 C   0  0  0  0  0  0
    0.9626   51.9322   27.5118 C   0  0  0  0  0  0
    1.5097   53.0316   26.9224 C   0  0  0  0  0  0
    2.2353   54.1207   27.7507 C   0  0  1  0  0  0
    2.2294   55.0787   27.2476 H   0  0  0  0  0  0
    1.5345   54.3677   29.0884 C   0  0  0  0  0  0
    1.0282   53.3712   29.8360 C   0  0  0  0  0  0
    0.9571   51.6968   29.2806 S   0  0  0  0  0  0
    0.4342   53.5110   31.0657 N   0  0  0  0  0  0
    1.5044   55.7025   29.5911 C   0  0  0  0  0  0
    1.5043   56.7602   30.0541 N   0  0  0  0  0  0
    3.7281   53.8733   27.8693 C   0  0  0  0  0  0
    4.6286   53.8347   28.9203 C   0  0  0  0  0  0
    5.9068   53.7264   28.3641 C   0  0  0  0  0  0
    5.7325   53.6969   26.9960 C   0  0  0  0  0  0
    4.4143   53.7829   26.6976 O   0  0  0  0  0  0
    1.5038   53.1787   25.4465 C   0  0  0  0  0  0
    2.0871   54.0960   24.8712 O   0  0  0  0  0  0
    0.8536   52.0552   24.6203 C   0  0  0  0  0  0
   -1.5061   52.0938   25.5692 C   0  0  0  0  0  0
   -0.8989   50.2262   23.5283 H   0  0  0  0  0  0
    0.3875   49.3682   24.3710 H   0  0  0  0  0  0
   -1.2551   49.3289   24.9976 H   0  0  0  0  0  0
    1.1042   50.0400   26.6038 H   0  0  0  0  0  0
   -0.4712   50.2896   27.3139 H   0  0  0  0  0  0
    0.3543   54.4133   31.5115 H   0  0  0  0  0  0
    0.0033   52.7222   31.5345 H   0  0  0  0  0  0
    4.3695   53.9174   29.9652 H   0  0  0  0  0  0
    6.8535   53.6970   28.8816 H   0  0  0  0  0  0
    6.4089   53.6325   26.1564 H   0  0  0  0  0  0
    1.6777   51.3829   24.3828 H   0  0  0  0  0  0
    0.5041   52.4624   23.6715 H   0  0  0  0  0  0
   -1.8541   52.5299   24.6318 H   0  0  0  0  0  0
   -2.3230   51.4916   25.9689 H   0  0  0  0  0  0
   -1.3449   52.9080   26.2734 H   0  0  0  0  0  0
  1  2  1  0  0  0
  1 23  1  0  0  0
  1 24  1  0  0  0
  1 25  1  0  0  0
  2 21  1  0  0  0
  2  3  1  0  0  0
  2 22  1  0  0  0
  3  4  1  0  0  0
  3 26  1  0  0  0
  3 27  1  0  0  0
  4 10  1  0  0  0
  4  5  2  0  0  0
  5  6  1  0  0  0
  5 19  1  0  0  0
  6  7  1  0  0  0
  6  8  1  0  0  0
  6 14  1  0  0  0
  8  9  2  0  0  0
  8 12  1  0  0  0
  9 10  1  0  0  0
  9 11  1  0  0  0
 11 28  1  0  0  0
 11 29  1  0  0  0
 12 13  3  0  0  0
 14 18  1  0  0  0
 14 15  2  0  0  0
 15 16  1  0  0  0
 15 30  1  0  0  0
 16 17  2  0  0  0
 16 31  1  0  0  0
 17 18  1  0  0  0
 17 32  1  0  0  0
 19 20  2  0  0  0
 19 21  1  0  0  0
 21 33  1  0  0  0
 21 34  1  0  0  0
 22 35  1  0  0  0
 22 36  1  0  0  0
 22 37  1  0  0  0
M  END
> <i_i_glide_confnum>
2

> <i_i_glide_lignum>
6142

> <i_i_glide_posenum>
296

> <i_i_glide_rotatable_bonds>
2

> <i_m_Source_File_Index>
3454

> <b_m_subgroup_collapsed>
0

> <r_i_docking_score>
-5.87572

> <r_i_glide_ecoul>
-0.447567

> <r_i_glide_eff_state_penalty>
0

> <r_i_glide_einternal>
2.04491

> <r_i_glide_emodel>
-47.9725

> <r_i_glide_energy>
-36.3976

> <r_i_glide_erotb>
0.203719

> <r_i_glide_esite>
0

> <r_i_glide_evdw>
-35.95

> <r_i_glide_gscore>
-5.87572

> <r_i_glide_hbond>
0

> <r_i_glide_ligand_efficiency>
-0.279796

> <r_i_glide_ligand_efficiency_ln>
-1.45276

> <r_i_glide_ligand_efficiency_sa>
-0.771936

> <r_i_glide_lipo>
-2.15085

> <r_i_glide_metal>
0

> <r_i_glide_rewards>
-2.06396

> <s_i_glide_gridfile>
wee1_glide-grid

> <s_m_Source_File>
wee1_decoys_glide_SP.sdf

> <s_m_Source_Path>
/Users/zhangxujun/Desktop

> <s_m_entry_id>
3729

> <s_m_entry_name>
wee1_decoys_glide_SP.3454

> <s_m_subgroup_title>
wee1_decoys_glide_SP

> <s_m_subgroupid>
wee1_decoys_glide_SP


$$$$
