@<TRIPOS>MOLECULE
ZINC09463383_986
60   65    1
SMALL
USER_CHARGES


@<TRIPOS>ATOM
      1 C1          1.2965   49.5398   19.2039 C.3       1 UNK         0.0000 
      2 C2          1.8308   50.5953   20.1539 C.ar      1 UNK         0.0000 
      3 C3          0.9751   51.5362   20.7170 C.ar      1 UNK         0.0000 
      4 C4          1.4964   52.5353   21.5302 C.ar      1 UNK         0.0000 
      5 C5          2.8645   52.5935   21.8224 C.ar      1 UNK         0.0000 
      6 C6          3.7095   51.6220   21.2800 C.ar      1 UNK         0.0000 
      7 C7          3.1942   50.6496   20.4298 C.ar      1 UNK         0.0000 
      8 C8          3.4220   53.8117   22.5942 C.3       1 UNK         0.0000 
      9 H9          2.7573   54.6370   22.3295 H         1 UNK         0.0000 
     10 C10         3.5037   53.6977   24.1087 C.2       1 UNK         0.0000 
     11 C11         2.3338   53.2971   24.9471 C.2       1 UNK         0.0000 
     12 C12         2.2920   53.4220   26.4473 C.ar      1 UNK         0.0000 
     13 C13         2.8900   54.4982   27.1116 C.ar      1 UNK         0.0000 
     14 C14         2.6597   54.7559   28.4594 C.ar      1 UNK         0.0000 
     15 C15         1.8044   53.9279   29.1676 C.ar      1 UNK         0.0000 
     16 C16         1.2371   52.8017   28.5528 C.ar      1 UNK         0.0000 
     17 C17         1.4694   52.5588   27.1982 C.ar      1 UNK         0.0000 
     18 O18         0.3557   51.9752   29.2216 O.3       1 UNK         0.0000 
     19 C19         0.3565   52.1491   30.6448 C.3       1 UNK         0.0000 
     20 C20         0.3783   53.6487   31.0151 C.3       1 UNK         0.0000 
     21 O21         1.5611   54.2535   30.4818 O.3       1 UNK         0.0000 
     22 O22         1.3592   52.7866   24.4002 O.2       1 UNK         0.0000 
     23 C23         4.7660   54.0414   24.4343 C.2       1 UNK         0.0000 
     24 O24         5.3506   54.0959   25.5813 O.co2     1 UNK         0.0000 
     25 C25         5.5999   54.3160   23.2788 C.2       1 UNK         0.0000 
     26 O26         6.8064   54.5809   23.2750 O.2       1 UNK         0.0000 
     27 N27         4.7780   54.2462   22.1972 N.am      1 UNK         0.0000 
     28 C28         5.1208   54.5758   20.8686 C.2       1 UNK         0.0000 
     29 N29         4.3045   54.3925   19.8682 N.2       1 UNK         0.0000 
     30 C30         4.8310   54.7676   18.6727 C.ar      1 UNK         0.0000 
     31 C31         4.1791   54.6484   17.4291 C.ar      1 UNK         0.0000 
     32 C32         4.8692   55.0965   16.2974 C.ar      1 UNK         0.0000 
     33 C33         6.1546   55.6388   16.3744 C.ar      1 UNK         0.0000 
     34 C34         6.8092   55.7555   17.6028 C.ar      1 UNK         0.0000 
     35 C35         6.1378   55.3129   18.7473 C.ar      1 UNK         0.0000 
     36 S36         6.6674   55.3030   20.4196 S.3       1 UNK         0.0000 
     37 C37         6.8476   56.1197   15.1114 C.3       1 UNK         0.0000 
     38 C38         2.7906   54.0501   17.2647 C.3       1 UNK         0.0000 
     39 H39         0.3023   49.7876   18.8341 H         1 UNK         0.0000 
     40 H40         1.9510   49.4549   18.3340 H         1 UNK         0.0000 
     41 H41         1.2675   48.5671   19.6942 H         1 UNK         0.0000 
     42 H42        -0.0818   51.5230   20.5004 H         1 UNK         0.0000 
     43 H43         0.8341   53.2956   21.9151 H         1 UNK         0.0000 
     44 H44         4.7730   51.6604   21.4553 H         1 UNK         0.0000 
     45 H45         3.8654   49.9626   19.9424 H         1 UNK         0.0000 
     46 H46         3.4657   55.2336   26.5712 H         1 UNK         0.0000 
     47 H47         3.0988   55.6210   28.9332 H         1 UNK         0.0000 
     48 H48         0.9640   51.7256   26.7275 H         1 UNK         0.0000 
     49 H49        -0.5043   51.6537   31.0868 H         1 UNK         0.0000 
     50 H50         1.2560   51.6968   31.0636 H         1 UNK         0.0000 
     51 H51        -0.4951   54.1382   30.5827 H         1 UNK         0.0000 
     52 H52         0.3384   53.7871   32.0958 H         1 UNK         0.0000 
     53 H53         4.3951   55.0195   15.3280 H         1 UNK         0.0000 
     54 H54         7.8023   56.1735   17.6652 H         1 UNK         0.0000 
     55 H55         7.5384   55.3605   14.7424 H         1 UNK         0.0000 
     56 H56         6.1296   56.3536   14.3266 H         1 UNK         0.0000 
     57 H57         7.4107   57.0329   15.3065 H         1 UNK         0.0000 
     58 H58         2.5442   53.8537   16.2190 H         1 UNK         0.0000 
     59 H59         2.7268   53.1013   17.8013 H         1 UNK         0.0000 
     60 H60         2.0349   54.7180   17.6838 H         1 UNK         0.0000 
@<TRIPOS>BOND
     1    1    2 1    
     2    1   39 1    
     3    1   40 1    
     4    1   41 1    
     5    2    7 ar   
     6    2    3 ar   
     7    3    4 ar   
     8    3   42 1    
     9    4    5 ar   
    10    4   43 1    
    11    5    6 ar   
    12    5    8 1    
    13    6    7 ar   
    14    6   44 1    
    15    7   45 1    
    16    8   10 1    
    17    8   27 1    
    18    8    9 1    
    19   10   23 2    
    20   10   11 1    
    21   11   22 2    
    22   11   12 1    
    23   12   17 ar   
    24   12   13 ar   
    25   13   14 ar   
    26   13   46 1    
    27   14   15 ar   
    28   14   47 1    
    29   15   21 1    
    30   15   16 ar   
    31   16   17 ar   
    32   16   18 1    
    33   17   48 1    
    34   18   19 1    
    35   19   20 1    
    36   19   49 1    
    37   19   50 1    
    38   20   21 1    
    39   20   51 1    
    40   20   52 1    
    41   23   25 1    
    42   23   24 1    
    43   25   27 am   BACKBONE|DICT|INTERRES
    44   25   26 2    
    45   27   28 am   BACKBONE|DICT|INTERRES
    46   28   36 1    
    47   28   29 2    
    48   29   30 1    
    49   30   35 ar   
    50   30   31 ar   
    51   31   32 ar   
    52   31   38 1    
    53   32   33 ar   
    54   32   53 1    
    55   33   34 ar   
    56   33   37 1    
    57   34   35 ar   
    58   34   54 1    
    59   35   36 1    
    60   37   55 1    
    61   37   56 1    
    62   37   57 1    
    63   38   58 1    
    64   38   59 1    
    65   38   60 1    
@<TRIPOS>SUBSTRUCTURE
     1 UNK         1 GROUP             0       ****    0 ROOT    
