@<TRIPOS>MOLECULE
ZINC45012726_1644
32   33    1
SMALL
USER_CHARGES


@<TRIPOS>ATOM
      1 C1          4.0195   52.0608   31.4318 C.3       1 UNK         0.0000 
      2 C2          3.0007   52.4957   30.4102 C.2       1 UNK         0.0000 
      3 C3          3.1878   52.8025   29.0668 C.2       1 UNK         0.0000 
      4 C4          1.9428   53.1653   28.6002 C.2       1 UNK         0.0000 
      5 O5          1.0613   53.0651   29.6247 O.3       1 UNK         0.0000 
      6 N6          1.7415   52.6271   30.7609 N.2       1 UNK         0.0000 
      7 C7          1.3818   53.6257   27.2747 C.3       1 UNK         0.0000 
      8 N8          2.2463   53.2941   26.1405 N.am      1 UNK         0.0000 
      9 C9          3.1799   54.0967   25.6096 C.2       1 UNK         0.0000 
     10 O10         3.5392   55.1504   26.1219 O.2       1 UNK         0.0000 
     11 N11         3.6313   53.6129   24.4432 N.am      1 UNK         0.0000 
     12 C12         4.6230   54.1204   23.5833 C.ar      1 UNK         0.0000 
     13 C13         4.2684   54.0415   22.2307 C.ar      1 UNK         0.0000 
     14 C14         5.1085   54.5373   21.2394 C.ar      1 UNK         0.0000 
     15 C15         6.3088   55.1419   21.5894 C.ar      1 UNK         0.0000 
     16 C16         6.6963   55.1951   22.9241 C.ar      1 UNK         0.0000 
     17 C17         5.8904   54.6627   23.9485 C.ar      1 UNK         0.0000 
     18 C18         6.4343   54.6918   25.3479 C.2       1 UNK         0.0000 
     19 O19         6.2499   53.6967   26.0821 O.co2     1 UNK         0.0000 
     20 O20         7.1044   55.6959   25.6821 O.co2     1 UNK         0.0000 
     21 F21         7.1044   55.6753   20.6355 F         1 UNK         0.0000 
     22 H22         4.3047   52.8882   32.0802 H         1 UNK         0.0000 
     23 H23         3.6499   51.2658   32.0793 H         1 UNK         0.0000 
     24 H24         4.9272   51.6972   30.9513 H         1 UNK         0.0000 
     25 H25         4.1111   52.7841   28.5037 H         1 UNK         0.0000 
     26 H26         1.1426   54.6899   27.3019 H         1 UNK         0.0000 
     27 H27         0.4272   53.1256   27.1038 H         1 UNK         0.0000 
     28 H28         2.1474   52.3623   25.7680 H         1 UNK         0.0000 
     29 H29         3.1226   52.8306   24.0667 H         1 UNK         0.0000 
     30 H30         3.3224   53.6137   21.9313 H         1 UNK         0.0000 
     31 H31         4.8153   54.4829   20.2015 H         1 UNK         0.0000 
     32 H32         7.6348   55.6732   23.1564 H         1 UNK         0.0000 
@<TRIPOS>BOND
     1    1    2 1    
     2    1   22 1    
     3    1   23 1    
     4    1   24 1    
     5    2    6 2    
     6    2    3 1    
     7    3    4 2    
     8    3   25 1    
     9    4    5 1    
    10    4    7 1    
    11    5    6 1    
    12    7    8 1    
    13    7   26 1    
    14    7   27 1    
    15    8    9 am   BACKBONE|DICT|INTERRES
    16    8   28 1    
    17    9   10 2    
    18    9   11 am   BACKBONE|DICT|INTERRES
    19   11   12 1    
    20   11   29 1    
    21   12   17 ar   
    22   12   13 ar   
    23   13   14 ar   
    24   13   30 1    
    25   14   15 ar   
    26   14   31 1    
    27   15   16 ar   
    28   15   21 1    
    29   16   17 ar   
    30   16   32 1    
    31   17   18 1    
    32   18   19 2    
    33   18   20 1    
@<TRIPOS>SUBSTRUCTURE
     1 UNK         1 GROUP             0       ****    0 ROOT    
