ZINC32774583_3656
                    3D
 Schrodinger Suite 2024-2.
 53 56  0  0  1  0            999 V2000
    2.2988   49.0240   20.3765 C   0  0  0  0  0  0
    2.1143   49.8794   21.4647 C   0  0  0  0  0  0
    1.7851   51.1904   21.1111 C   0  0  0  0  0  0
    1.7248   51.3291   19.3732 S   0  0  0  0  0  0
    2.1623   49.6709   19.1631 C   0  0  0  0  0  0
    1.5618   52.4085   21.9884 C   0  0  2  0  0  0
    1.0154   53.1791   21.4394 H   0  0  0  0  0  0
    2.8594   53.0276   22.5199 C   0  0  0  0  0  0
    4.0332   53.2300   21.7730 C   0  0  0  0  0  0
    5.0628   53.8030   22.5050 C   0  0  0  0  0  0
    4.6002   54.0968   24.1452 S   0  0  0  0  0  0
    3.0017   53.4978   23.8293 C   0  0  0  0  0  0
    1.9389   53.3671   24.8979 C   0  0  0  0  0  0
    0.5662   53.2302   24.2120 C   0  0  0  0  0  0
    0.6265   52.0613   23.1912 N   0  3  1  0  0  0
   -0.8094   51.6810   22.7017 C   0  0  0  0  0  0
   -1.1507   50.1857   22.9431 C   0  0  0  0  0  0
   -1.6159   49.5694   21.9836 O   0  0  0  0  0  0
   -0.9719   49.5910   24.1613 N   0  0  0  0  0  0
   -1.3517   48.1750   24.3519 C   0  0  0  0  0  0
   -2.7673   47.9687   24.9542 C   0  0  0  0  0  0
   -2.9872   46.6151   25.6179 C   0  0  0  0  0  0
   -3.5300   45.7010   24.9992 O   0  0  0  0  0  0
   -2.6009   46.4584   26.8791 N   0  0  0  0  0  0
   -0.8560   50.3490   25.3357 C   0  0  0  0  0  0
   -1.9124   51.1605   25.7659 C   0  0  0  0  0  0
   -1.7879   51.8761   26.9489 C   0  0  0  0  0  0
   -0.6184   51.7791   27.7005 C   0  0  0  0  0  0
    0.4263   50.9590   27.2825 C   0  0  0  0  0  0
    0.3049   50.2267   26.1046 C   0  0  0  0  0  0
   -0.4954   52.4900   28.8436 F   0  0  0  0  0  0
    2.5814   47.9850   20.4717 H   0  0  0  0  0  0
    2.2264   49.5519   22.4889 H   0  0  0  0  0  0
    2.3110   49.2702   18.1679 H   0  0  0  0  0  0
    4.1246   52.9600   20.7299 H   0  0  0  0  0  0
    6.0568   54.0571   22.1658 H   0  0  0  0  0  0
    1.9524   54.2123   25.5837 H   0  0  0  0  0  0
    2.1521   52.4850   25.5007 H   0  0  0  0  0  0
    0.2626   54.1316   23.6800 H   0  0  0  0  0  0
   -0.1869   52.9891   24.9569 H   0  0  0  0  0  0
   -0.8693   51.9088   21.6357 H   0  0  0  0  0  0
   -1.5440   52.3099   23.2052 H   0  0  0  0  0  0
   -1.1897   47.5441   23.4755 H   0  0  0  0  0  0
   -0.6246   47.7877   25.0703 H   0  0  0  0  0  0
   -2.9568   48.7126   25.7265 H   0  0  0  0  0  0
   -3.5366   48.2077   24.2192 H   0  0  0  0  0  0
   -2.7733   45.5824   27.3519 H   0  0  0  0  0  0
   -2.1492   47.2173   27.4096 H   0  0  0  0  0  0
   -2.8271   51.2274   25.1942 H   0  0  0  0  0  0
   -2.6042   52.4966   27.2816 H   0  0  0  0  0  0
    1.3175   50.8800   27.8880 H   0  0  0  0  0  0
    1.0985   49.5624   25.7963 H   0  0  0  0  0  0
    0.9957   51.2577   23.6818 H   0  0  0  0  0  0
  1  5  2  0  0  0
  1  2  1  0  0  0
  1 32  1  0  0  0
  2  3  2  0  0  0
  2 33  1  0  0  0
  3  4  1  0  0  0
  3  6  1  0  0  0
  4  5  1  0  0  0
  5 34  1  0  0  0
  6  7  1  0  0  0
  6 15  1  0  0  0
  6  8  1  0  0  0
  8 12  2  0  0  0
  8  9  1  0  0  0
  9 10  2  0  0  0
  9 35  1  0  0  0
 10 11  1  0  0  0
 10 36  1  0  0  0
 11 12  1  0  0  0
 12 13  1  0  0  0
 13 14  1  0  0  0
 13 37  1  0  0  0
 13 38  1  0  0  0
 14 15  1  0  0  0
 14 39  1  0  0  0
 14 40  1  0  0  0
 15 16  1  0  0  0
 15 53  1  0  0  0
 16 17  1  0  0  0
 16 41  1  0  0  0
 16 42  1  0  0  0
 17 18  2  0  0  0
 17 19  1  0  0  0
 19 20  1  0  0  0
 19 25  1  0  0  0
 20 21  1  0  0  0
 20 43  1  0  0  0
 20 44  1  0  0  0
 21 22  1  0  0  0
 21 45  1  0  0  0
 21 46  1  0  0  0
 22 23  2  0  0  0
 22 24  1  0  0  0
 24 47  1  0  0  0
 24 48  1  0  0  0
 25 30  2  0  0  0
 25 26  1  0  0  0
 26 27  2  0  0  0
 26 49  1  0  0  0
 27 28  1  0  0  0
 27 50  1  0  0  0
 28 29  2  0  0  0
 28 31  1  0  0  0
 29 30  1  0  0  0
 29 51  1  0  0  0
 30 52  1  0  0  0
M  CHG  1  15   1
M  END
> <i_i_glide_confnum>
27

> <i_i_glide_lignum>
3657

> <i_i_glide_posenum>
357

> <i_i_glide_rotatable_bonds>
8

> <i_m_Source_File_Index>
1183

> <b_m_subgroup_collapsed>
0

> <r_i_docking_score>
-3.37198

> <r_i_glide_ecoul>
-10.0391

> <r_i_glide_eff_state_penalty>
0

> <r_i_glide_einternal>
10.9453

> <r_i_glide_emodel>
-41.9327

> <r_i_glide_energy>
-41.107

> <r_i_glide_erotb>
0.607195

> <r_i_glide_esite>
-0.208264

> <r_i_glide_evdw>
-31.0679

> <r_i_glide_gscore>
-3.37198

> <r_i_glide_hbond>
-0.305849

> <r_i_glide_ligand_efficiency>
-0.112399

> <r_i_glide_ligand_efficiency_ln>
-0.76615

> <r_i_glide_ligand_efficiency_sa>
-0.349251

> <r_i_glide_lipo>
-1.50441

> <r_i_glide_metal>
0

> <r_i_glide_rewards>
1.09861

> <s_i_glide_gridfile>
wee1_glide-grid

> <s_m_Source_File>
wee1_decoys_glide_SP.sdf

> <s_m_Source_Path>
/Users/zhangxujun/Desktop

> <s_m_entry_id>
1458

> <s_m_entry_name>
wee1_decoys_glide_SP.1183

> <s_m_subgroup_title>
wee1_decoys_glide_SP

> <s_m_subgroupid>
wee1_decoys_glide_SP


$$$$
