@<TRIPOS>MOLECULE
ZINC08770073_5376
78   82    1
SMALL
USER_CHARGES


@<TRIPOS>ATOM
      1 C1          4.2920   55.6674   25.7810 C.3       1 UNK         0.0000 
      2 C2          5.1135   54.3981   25.9250 C.3       1 UNK         0.0000 
      3 C3          6.0632   54.2591   24.6842 C.3       1 UNK         0.0000 
      4 C4          5.4523   53.5859   23.4221 C.3       1 UNK         0.0000 
      5 C5          3.9000   53.5795   23.3726 C.3       1 UNK         0.0000 
      6 H6          3.6562   54.6313   23.2799 H         1 UNK         0.0000 
      7 C7          3.2067   53.1550   24.7127 C.3       1 UNK         0.0000 
      8 H8          3.0916   52.0969   24.6001 H         1 UNK         0.0000 
      9 C9          4.0837   53.2983   26.0058 C.3       1 UNK         0.0000 
     10 H10         4.7791   52.4967   26.0819 H         1 UNK         0.0000 
     11 C11         3.4848   53.3039   27.4227 C.3       1 UNK         0.0000 
     12 C12         4.6157   53.8911   28.3067 C.3       1 UNK         0.0000 
     13 C13         5.7616   54.3492   27.3547 C.3       1 UNK         0.0000 
     14 C14         7.0325   53.5010   27.5326 C.3       1 UNK         0.0000 
     15 O15         6.3045   55.5789   27.6816 O.3       1 UNK         0.0000 
     16 C16         1.7100   53.5507   24.7535 C.3       1 UNK         0.0000 
     17 C17         1.0962   53.7945   23.3446 C.3       1 UNK         0.0000 
     18 C18         1.7068   52.8014   22.3526 C.2       1 UNK         0.0000 
     19 C19         0.9890   51.7804   21.8258 C.2       1 UNK         0.0000 
     20 C20         1.5448   50.6630   21.1115 C.2       1 UNK         0.0000 
     21 N21         0.7627   49.8320   20.5350 N.2       1 UNK         0.0000 
     22 O22         1.3812   48.7591   19.8212 O.3       1 UNK         0.0000 
     23 C23         2.0020   49.1168   18.5616 C.3       1 UNK         0.0000 
     24 C24         1.1357   49.9470   17.5888 C.2       1 UNK         0.0000 
     25 O25        -0.0798   50.0790   17.7306 O.2       1 UNK         0.0000 
     26 N26         1.8255   50.4959   16.5705 N.am      1 UNK         0.0000 
     27 C27         1.2595   51.3700   15.5209 C.3       1 UNK         0.0000 
     28 H28         0.2650   50.9971   15.2739 H         1 UNK         0.0000 
     29 C29         1.1976   52.8140   15.9896 C.ar      1 UNK         0.0000 
     30 C30         0.0627   53.5808   15.6987 C.ar      1 UNK         0.0000 
     31 C31        -0.0145   54.9087   16.1107 C.ar      1 UNK         0.0000 
     32 C32         1.0464   55.4772   16.8114 C.ar      1 UNK         0.0000 
     33 C33         2.1814   54.7260   17.1122 C.ar      1 UNK         0.0000 
     34 C34         2.2537   53.3963   16.7083 C.ar      1 UNK         0.0000 
     35 C35         2.0883   51.2461   14.2359 C.2       1 UNK         0.0000 
     36 O36         2.1155   52.1387   13.3839 O.2       1 UNK         0.0000 
     37 O37         2.7055   50.0459   14.0826 O.3       1 UNK         0.0000 
     38 C38         3.5118   49.7786   12.9446 C.3       1 UNK         0.0000 
     39 C39         2.9874   50.5946   21.1887 C.2       1 UNK         0.0000 
     40 C40         3.7697   51.5785   21.6714 C.2       1 UNK         0.0000 
     41 C41         3.2406   52.9544   22.0984 C.3       1 UNK         0.0000 
     42 C42         3.5083   53.8717   20.8879 C.3       1 UNK         0.0000 
     43 H43         3.6346   55.6964   26.6408 H         1 UNK         0.0000 
     44 H44         4.9598   56.5059   25.6818 H         1 UNK         0.0000 
     45 H45         3.5882   55.6960   24.9796 H         1 UNK         0.0000 
     46 H46         6.8679   53.5735   24.9481 H         1 UNK         0.0000 
     47 H47         6.5846   55.1952   24.4725 H         1 UNK         0.0000 
     48 H48         5.8344   52.5733   23.2954 H         1 UNK         0.0000 
     49 H49         5.8368   54.1057   22.5429 H         1 UNK         0.0000 
     50 H50         2.6161   53.9589   27.4668 H         1 UNK         0.0000 
     51 H51         3.1368   52.3202   27.7298 H         1 UNK         0.0000 
     52 H52         4.2303   54.7290   28.8888 H         1 UNK         0.0000 
     53 H53         4.9645   53.1408   29.0218 H         1 UNK         0.0000 
     54 H54         6.8358   52.4968   27.2154 H         1 UNK         0.0000 
     55 H55         7.8740   53.8706   26.9458 H         1 UNK         0.0000 
     56 H56         7.3573   53.4514   28.5743 H         1 UNK         0.0000 
     57 H57         6.7660   55.5435   28.5348 H         1 UNK         0.0000 
     58 H58         1.6154   54.4966   25.2727 H         1 UNK         0.0000 
     59 H59         1.1347   52.8360   25.3451 H         1 UNK         0.0000 
     60 H60         1.2931   54.8097   22.9990 H         1 UNK         0.0000 
     61 H61         0.0135   53.6964   23.4118 H         1 UNK         0.0000 
     62 H62        -0.0609   51.7409   22.0803 H         1 UNK         0.0000 
     63 H63         2.2352   48.1811   18.0541 H         1 UNK         0.0000 
     64 H64         2.9623   49.6056   18.7212 H         1 UNK         0.0000 
     65 H65         2.8131   50.2360   16.4816 H         1 UNK         0.0000 
     66 H66        -0.7608   53.1481   15.1463 H         1 UNK         0.0000 
     67 H67        -0.8941   55.4936   15.8821 H         1 UNK         0.0000 
     68 H68         0.9792   56.5077   17.1275 H         1 UNK         0.0000 
     69 H69         2.9982   55.1652   17.6673 H         1 UNK         0.0000 
     70 H70         3.1349   52.8164   16.9436 H         1 UNK         0.0000 
     71 H71         3.9255   48.7737   13.0197 H         1 UNK         0.0000 
     72 H72         2.9325   49.8430   12.0231 H         1 UNK         0.0000 
     73 H73         4.3450   50.4788   12.8849 H         1 UNK         0.0000 
     74 H74         3.5010   49.6955   20.8946 H         1 UNK         0.0000 
     75 H75         4.8355   51.4051   21.6734 H         1 UNK         0.0000 
     76 H76         2.9632   53.5465   19.9989 H         1 UNK         0.0000 
     77 H77         3.2264   54.8966   21.1209 H         1 UNK         0.0000 
     78 H78         4.5680   53.8867   20.6158 H         1 UNK         0.0000 
@<TRIPOS>BOND
     1    1    2 1    
     2    1   43 1    
     3    1   44 1    
     4    1   45 1    
     5    2    9 1    
     6    2   13 1    
     7    2    3 1    
     8    3    4 1    
     9    3   46 1    
    10    3   47 1    
    11    4    5 1    
    12    4   48 1    
    13    4   49 1    
    14    5    6 1    
    15    5   41 1    
    16    5    7 1    
    17    7    8 1    
    18    7    9 1    
    19    7   16 1    
    20    9   10 1    
    21    9   11 1    
    22   11   12 1    
    23   11   50 1    
    24   11   51 1    
    25   12   13 1    
    26   12   52 1    
    27   12   53 1    
    28   13   14 1    
    29   13   15 1    
    30   14   54 1    
    31   14   55 1    
    32   14   56 1    
    33   15   57 1    
    34   16   17 1    
    35   16   58 1    
    36   16   59 1    
    37   17   18 1    
    38   17   60 1    
    39   17   61 1    
    40   18   41 1    
    41   18   19 2    
    42   19   20 1    
    43   19   62 1    
    44   20   21 2    
    45   20   39 1    
    46   21   22 1    
    47   22   23 1    
    48   23   24 1    
    49   23   63 1    
    50   23   64 1    
    51   24   25 2    
    52   24   26 am   BACKBONE|DICT|INTERRES
    53   26   27 1    
    54   26   65 1    
    55   27   28 1    
    56   27   29 1    
    57   27   35 1    
    58   29   34 ar   
    59   29   30 ar   
    60   30   31 ar   
    61   30   66 1    
    62   31   32 ar   
    63   31   67 1    
    64   32   33 ar   
    65   32   68 1    
    66   33   34 ar   
    67   33   69 1    
    68   34   70 1    
    69   35   36 2    
    70   35   37 1    
    71   37   38 1    
    72   38   71 1    
    73   38   72 1    
    74   38   73 1    
    75   39   40 2    
    76   39   74 1    
    77   40   41 1    
    78   40   75 1    
    79   41   42 1    
    80   42   76 1    
    81   42   77 1    
    82   42   78 1    
@<TRIPOS>SUBSTRUCTURE
     1 UNK         1 GROUP             0       ****    0 ROOT    
