ZINC12951079_5737
                    3D
 Schrodinger Suite 2024-2.
 64 68  0  0  1  0            999 V2000
    4.0903   56.9810   15.9547 C   0  0  0  0  0  0
    4.2523   56.0868   17.0467 O   0  0  0  0  0  0
    5.1924   56.3185   17.9958 C   0  0  0  0  0  0
    5.9468   57.2961   17.9846 O   0  0  0  0  0  0
    5.1782   55.3085   19.1037 C   0  0  0  0  0  0
    4.4405   54.1164   19.0290 C   0  0  0  0  0  0
    4.4037   53.2159   20.0917 C   0  0  0  0  0  0
    5.1325   53.5137   21.2511 C   0  0  0  0  0  0
    5.8911   54.6922   21.3542 C   0  0  0  0  0  0
    5.9078   55.5677   20.2716 C   0  0  0  0  0  0
    6.6268   55.0782   22.4665 O   0  0  0  0  0  0
    6.6858   54.2650   23.6457 C   0  0  0  0  0  0
    5.3988   54.2975   24.4669 C   0  0  0  0  0  0
    5.1933   54.0966   25.8288 C   0  0  0  0  0  0
    3.8272   54.0983   25.9954 N   0  0  0  0  0  0
    3.2300   54.3834   24.8405 N   0  0  0  0  0  0
    4.2240   54.4967   23.9018 N   0  0  0  0  0  0
    3.0532   53.8405   27.1408 C   0  0  0  0  0  0
    3.4613   54.3324   28.3785 C   0  0  0  0  0  0
    2.6607   54.1178   29.4924 C   0  0  0  0  0  0
    1.4735   53.3862   29.3949 C   0  0  0  0  0  0
    1.0778   52.8777   28.1535 C   0  0  0  0  0  0
    1.8628   53.1095   27.0293 C   0  0  0  0  0  0
    0.6295   53.1549   30.6465 C   0  0  0  0  0  0
   -0.4920   52.4847   30.3803 F   0  0  0  0  0  0
    0.3023   54.3287   31.1863 F   0  0  0  0  0  0
    1.3413   52.4545   31.5284 F   0  0  0  0  0  0
    3.6261   52.0846   19.9222 O   0  0  0  0  0  0
    3.3835   51.1839   21.0087 C   0  0  0  0  0  0
    2.3032   51.7025   21.9484 C   0  0  0  0  0  0
    1.4053   51.0058   22.7518 C   0  0  0  0  0  0
    0.5992   51.9650   23.3184 N   0  0  0  0  0  0
    1.0102   53.1788   22.9450 N   0  0  0  0  0  0
    2.0665   52.9948   22.0820 N   0  0  0  0  0  0
   -0.5160   51.8167   24.1649 C   0  0  0  0  0  0
   -0.4778   50.8992   25.2149 C   0  0  0  0  0  0
   -1.5716   50.7910   26.0668 C   0  0  0  0  0  0
   -2.7151   51.5706   25.8739 C   0  0  0  0  0  0
   -2.7551   52.4762   24.8095 C   0  0  0  0  0  0
   -1.6599   52.5971   23.9601 C   0  0  0  0  0  0
   -3.9056   51.4236   26.8228 C   0  0  0  0  0  0
   -4.7228   52.4774   26.7589 F   0  0  0  0  0  0
   -4.5999   50.3371   26.4849 F   0  0  0  0  0  0
   -3.4954   51.2956   28.0857 F   0  0  0  0  0  0
    3.2973   56.6250   15.2975 H   0  0  0  0  0  0
    3.8193   57.9793   16.3045 H   0  0  0  0  0  0
    5.0081   57.0572   15.3708 H   0  0  0  0  0  0
    3.8661   53.8744   18.1458 H   0  0  0  0  0  0
    5.1120   52.8308   22.0817 H   0  0  0  0  0  0
    6.4867   56.4759   20.3640 H   0  0  0  0  0  0
    7.5027   54.6679   24.2465 H   0  0  0  0  0  0
    7.0020   53.2561   23.3849 H   0  0  0  0  0  0
    5.8612   53.8713   26.6471 H   0  0  0  0  0  0
    4.3764   54.8966   28.4791 H   0  0  0  0  0  0
    2.9716   54.5333   30.4311 H   0  0  0  0  0  0
    0.1633   52.3092   28.0493 H   0  0  0  0  0  0
    1.5418   52.7258   26.0727 H   0  0  0  0  0  0
    3.0231   50.2657   20.5436 H   0  0  0  0  0  0
    4.3060   50.9040   21.5139 H   0  0  0  0  0  0
    1.2439   49.9520   22.9282 H   0  0  0  0  0  0
    0.3943   50.2842   25.3914 H   0  0  0  0  0  0
   -1.5267   50.0960   26.8816 H   0  0  0  0  0  0
   -3.6329   53.0841   24.6340 H   0  0  0  0  0  0
   -1.7105   53.2969   23.1435 H   0  0  0  0  0  0
  1  2  1  0  0  0
  1 45  1  0  0  0
  1 46  1  0  0  0
  1 47  1  0  0  0
  2  3  1  0  0  0
  3  4  2  0  0  0
  3  5  1  0  0  0
  5 10  2  0  0  0
  5  6  1  0  0  0
  6  7  2  0  0  0
  6 48  1  0  0  0
  7  8  1  0  0  0
  7 28  1  0  0  0
  8  9  2  0  0  0
  8 49  1  0  0  0
  9 10  1  0  0  0
  9 11  1  0  0  0
 10 50  1  0  0  0
 11 12  1  0  0  0
 12 13  1  0  0  0
 12 51  1  0  0  0
 12 52  1  0  0  0
 13 17  1  0  0  0
 13 14  2  0  0  0
 14 15  1  0  0  0
 14 53  1  0  0  0
 15 16  1  0  0  0
 15 18  1  0  0  0
 16 17  2  0  0  0
 18 23  2  0  0  0
 18 19  1  0  0  0
 19 20  2  0  0  0
 19 54  1  0  0  0
 20 21  1  0  0  0
 20 55  1  0  0  0
 21 22  2  0  0  0
 21 24  1  0  0  0
 22 23  1  0  0  0
 22 56  1  0  0  0
 23 57  1  0  0  0
 24 25  1  0  0  0
 24 26  1  0  0  0
 24 27  1  0  0  0
 28 29  1  0  0  0
 29 30  1  0  0  0
 29 58  1  0  0  0
 29 59  1  0  0  0
 30 34  1  0  0  0
 30 31  2  0  0  0
 31 32  1  0  0  0
 31 60  1  0  0  0
 32 33  1  0  0  0
 32 35  1  0  0  0
 33 34  2  0  0  0
 35 40  2  0  0  0
 35 36  1  0  0  0
 36 37  2  0  0  0
 36 61  1  0  0  0
 37 38  1  0  0  0
 37 62  1  0  0  0
 38 39  2  0  0  0
 38 41  1  0  0  0
 39 40  1  0  0  0
 39 63  1  0  0  0
 40 64  1  0  0  0
 41 42  1  0  0  0
 41 43  1  0  0  0
 41 44  1  0  0  0
M  END
> <i_i_glide_confnum>
58

> <i_i_glide_lignum>
5738

> <i_i_glide_posenum>
35

> <i_i_glide_rotatable_bonds>
12

> <i_m_Source_File_Index>
3165

> <b_m_subgroup_collapsed>
0

> <r_i_docking_score>
-5.50319

> <r_i_glide_ecoul>
3.1388

> <r_i_glide_eff_state_penalty>
0

> <r_i_glide_einternal>
2.28016

> <r_i_glide_emodel>
-69.9025

> <r_i_glide_energy>
-51.1038

> <r_i_glide_erotb>
0.365551

> <r_i_glide_esite>
-0.238088

> <r_i_glide_evdw>
-54.2426

> <r_i_glide_gscore>
-5.50319

> <r_i_glide_hbond>
0

> <r_i_glide_ligand_efficiency>
-0.125073

> <r_i_glide_ligand_efficiency_ln>
-1.15029

> <r_i_glide_ligand_efficiency_sa>
-0.44155

> <r_i_glide_lipo>
-2.59683

> <r_i_glide_metal>
0

> <r_i_glide_rewards>
-0.792515

> <s_i_glide_gridfile>
wee1_glide-grid

> <s_m_Source_File>
wee1_decoys_glide_SP.sdf

> <s_m_Source_Path>
/Users/zhangxujun/Desktop

> <s_m_entry_id>
3440

> <s_m_entry_name>
wee1_decoys_glide_SP.3165

> <s_m_subgroup_title>
wee1_decoys_glide_SP

> <s_m_subgroupid>
wee1_decoys_glide_SP


$$$$
