@<TRIPOS>MOLECULE
ZINC01215191_2482
44   47    1
SMALL
USER_CHARGES


@<TRIPOS>ATOM
      1 C1          5.1996   53.5538   16.1389 C.3       1 UNK         0.0000 
      2 C2          4.8228   53.6103   17.5958 C.2       1 UNK         0.0000 
      3 C3          3.9619   52.8969   18.3945 C.2       1 UNK         0.0000 
      4 C4          4.1333   53.4223   19.6769 C.2       1 UNK         0.0000 
      5 N5          4.9836   54.4251   19.6726 N.2       1 UNK         0.0000 
      6 O6          5.4412   54.5449   18.3594 O.3       1 UNK         0.0000 
      7 N7          3.5047   53.0764   20.8546 N.am      1 UNK         0.0000 
      8 C8          2.8278   51.9394   21.1131 C.2       1 UNK         0.0000 
      9 O9          2.7216   50.9939   20.3276 O.2       1 UNK         0.0000 
     10 C10         2.2081   51.8870   22.4284 C.ar      1 UNK         0.0000 
     11 C11         2.1581   52.9079   23.4170 C.ar      1 UNK         0.0000 
     12 C12         1.4321   52.3675   24.4571 C.ar      1 UNK         0.0000 
     13 N13         1.0999   51.0876   24.0813 N.pl3     1 UNK         0.0000 
     14 N14         1.5655   50.8134   22.8559 N.2       1 UNK         0.0000 
     15 C15         0.2013   50.1778   24.7972 C.3       1 UNK         0.0000 
     16 H16         0.6037   49.1669   24.6979 H         1 UNK         0.0000 
     17 C17         0.2266   50.5913   26.2944 C.3       1 UNK         0.0000 
     18 C18         0.1562   52.1268   26.5537 C.3       1 UNK         0.0000 
     19 H19        -0.8295   52.4919   26.2611 H         1 UNK         0.0000 
     20 N20         1.1044   52.8585   25.7002 N.pl3     1 UNK         0.0000 
     21 C21         0.2310   52.5179   28.0436 C.ar      1 UNK         0.0000 
     22 C22        -0.4552   51.7578   28.9971 C.ar      1 UNK         0.0000 
     23 C23        -0.3998   52.0966   30.3431 C.ar      1 UNK         0.0000 
     24 C24         0.3005   53.2257   30.7510 C.ar      1 UNK         0.0000 
     25 C25         0.9668   54.0121   29.8184 C.ar      1 UNK         0.0000 
     26 C26         0.9371   53.6563   28.4721 C.ar      1 UNK         0.0000 
     27 Br27        0.3043   53.7071   32.5904 Br        1 UNK         0.0000 
     28 C28        -1.2264   50.1510   24.1964 C.3       1 UNK         0.0000 
     29 F29        -1.8016   51.3553   24.2168 F         1 UNK         0.0000 
     30 F30        -1.2208   49.7327   22.9304 F         1 UNK         0.0000 
     31 F31        -2.0233   49.3266   24.8746 F         1 UNK         0.0000 
     32 Cl32        2.8287   54.4964   23.4116 Cl        1 UNK         0.0000 
     33 H33         4.6353   52.7823   15.6141 H         1 UNK         0.0000 
     34 H34         6.2572   53.3217   16.0101 H         1 UNK         0.0000 
     35 H35         5.0052   54.5013   15.6356 H         1 UNK         0.0000 
     36 H36         3.3370   52.0692   18.0898 H         1 UNK         0.0000 
     37 H37         3.5987   53.7382   21.6070 H         1 UNK         0.0000 
     38 H38        -0.5938   50.0819   26.7982 H         1 UNK         0.0000 
     39 H39         1.1045   50.1670   26.7762 H         1 UNK         0.0000 
     40 H40         1.0585   53.8574   25.8285 H         1 UNK         0.0000 
     41 H41        -1.0401   50.8966   28.7171 H         1 UNK         0.0000 
     42 H42        -0.9023   51.4774   31.0702 H         1 UNK         0.0000 
     43 H43         1.4985   54.8988   30.1335 H         1 UNK         0.0000 
     44 H44         1.4629   54.2876   27.7711 H         1 UNK         0.0000 
@<TRIPOS>BOND
     1    1    2 1    
     2    1   33 1    
     3    1   34 1    
     4    1   35 1    
     5    2    6 1    
     6    2    3 2    
     7    3    4 1    
     8    3   36 1    
     9    4    5 2    
    10    4    7 1    
    11    5    6 1    
    12    7    8 am   BACKBONE|DICT|INTERRES
    13    7   37 1    
    14    8    9 2    
    15    8   10 1    
    16   10   14 ar   
    17   10   11 ar   
    18   11   12 ar   
    19   11   32 1    
    20   12   20 1    
    21   12   13 ar   
    22   13   14 ar   
    23   13   15 1    
    24   15   16 1    
    25   15   17 1    
    26   15   28 1    
    27   17   18 1    
    28   17   38 1    
    29   17   39 1    
    30   18   19 1    
    31   18   20 1    
    32   18   21 1    
    33   20   40 1    
    34   21   26 ar   
    35   21   22 ar   
    36   22   23 ar   
    37   22   41 1    
    38   23   24 ar   
    39   23   42 1    
    40   24   25 ar   
    41   24   27 1    
    42   25   26 ar   
    43   25   43 1    
    44   26   44 1    
    45   28   29 1    
    46   28   30 1    
    47   28   31 1    
@<TRIPOS>SUBSTRUCTURE
     1 UNK         1 GROUP             0       ****    0 ROOT    
