@<TRIPOS>MOLECULE
ZINC36019590_4241
77   81    1
SMALL
USER_CHARGES


@<TRIPOS>ATOM
      1 C1          1.2878   53.5375   13.5470 C.3       1 UNK         0.0000 
      2 C2          2.1688   53.4238   14.7795 C.ar      1 UNK         0.0000 
      3 C3          2.8892   54.5296   15.2258 C.ar      1 UNK         0.0000 
      4 C4          3.6872   54.4397   16.3585 C.ar      1 UNK         0.0000 
      5 C5          3.7752   53.2177   17.0471 C.ar      1 UNK         0.0000 
      6 C6          3.0711   52.1001   16.5784 C.ar      1 UNK         0.0000 
      7 C7          2.2639   52.2089   15.4501 C.ar      1 UNK         0.0000 
      8 N8          4.5335   53.0120   18.2175 N.am      1 UNK         0.0000 
      9 C9          5.0536   53.9271   19.0829 C.2       1 UNK         0.0000 
     10 O10         5.1426   55.1326   18.8387 O.2       1 UNK         0.0000 
     11 N11         5.5044   53.3897   20.2557 N.am      1 UNK         0.0000 
     12 C12         4.6861   52.3862   20.9521 C.3       1 UNK         0.0000 
     13 C13         3.6787   53.1070   21.8844 C.3       1 UNK         0.0000 
     14 N14         4.2813   54.1315   22.7600 N.pl3     1 UNK         0.0000 
     15 C15         5.2531   54.9952   22.0687 C.3       1 UNK         0.0000 
     16 C16         6.2214   54.2688   21.1996 C.3       1 UNK         0.0000 
     17 C17         4.1927   54.0962   24.1518 C.ar      1 UNK         0.0000 
     18 C18         5.3891   54.2190   24.8842 C.ar      1 UNK         0.0000 
     19 C19         5.3926   54.2038   26.2712 C.ar      1 UNK         0.0000 
     20 C20         4.1975   54.1270   26.9721 C.ar      1 UNK         0.0000 
     21 C21         2.9982   54.0912   26.2510 C.ar      1 UNK         0.0000 
     22 C22         2.9699   53.9503   24.8604 C.ar      1 UNK         0.0000 
     23 C23         1.6163   53.8754   24.1666 C.2       1 UNK         0.0000 
     24 O24         1.3965   54.6910   23.2786 O.2       1 UNK         0.0000 
     25 N25         0.6686   52.9613   24.5505 N.am      1 UNK         0.0000 
     26 C26        -0.6495   52.8932   23.8873 C.3       1 UNK         0.0000 
     27 C27        -0.6973   51.5815   23.0750 C.3       1 UNK         0.0000 
     28 C28        -0.4829   50.3542   23.9741 C.3       1 UNK         0.0000 
     29 C29         0.7848   50.5225   24.8193 C.3       1 UNK         0.0000 
     30 C30         0.8574   51.8950   25.5424 C.3       1 UNK         0.0000 
     31 N31         4.3030   54.1062   28.3775 N.am      1 UNK         0.0000 
     32 C32         3.4685   53.6225   29.3232 C.2       1 UNK         0.0000 
     33 O33         3.8713   53.5784   30.4782 O.2       1 UNK         0.0000 
     34 C34         2.0886   53.0276   28.9941 C.3       1 UNK         0.0000 
     35 C35         1.6311   51.8716   29.8822 C.3       1 UNK         0.0000 
     36 C36         0.1389   51.7777   29.5361 C.3       1 UNK         0.0000 
     37 C37        -0.3040   53.2190   29.2706 C.3       1 UNK         0.0000 
     38 C38         0.9614   54.0657   29.1453 C.3       1 UNK         0.0000 
     39 H39         1.8489   53.9520   12.7046 H         1 UNK         0.0000 
     40 H40         0.8894   52.5711   13.2394 H         1 UNK         0.0000 
     41 H41         0.4422   54.2036   13.7491 H         1 UNK         0.0000 
     42 H42         2.8297   55.4646   14.6902 H         1 UNK         0.0000 
     43 H43         4.2250   55.3241   16.6793 H         1 UNK         0.0000 
     44 H44         3.1295   51.1495   17.0935 H         1 UNK         0.0000 
     45 H45         1.7140   51.3466   15.1123 H         1 UNK         0.0000 
     46 H46         4.6506   52.0314   18.4565 H         1 UNK         0.0000 
     47 H47         5.3578   51.8259   21.6019 H         1 UNK         0.0000 
     48 H48         4.2580   51.6298   20.2895 H         1 UNK         0.0000 
     49 H49         3.1688   52.3579   22.4895 H         1 UNK         0.0000 
     50 H50         2.9206   53.6128   21.2835 H         1 UNK         0.0000 
     51 H51         4.7017   55.6955   21.4635 H         1 UNK         0.0000 
     52 H52         5.8935   55.5708   22.7473 H         1 UNK         0.0000 
     53 H53         7.0035   54.8654   20.7210 H         1 UNK         0.0000 
     54 H54         6.7043   53.7050   22.0033 H         1 UNK         0.0000 
     55 H55         6.3372   54.2978   24.3743 H         1 UNK         0.0000 
     56 H56         6.3333   54.2578   26.7962 H         1 UNK         0.0000 
     57 H57         2.0549   54.1822   26.7523 H         1 UNK         0.0000 
     58 H58        -1.4177   52.8779   24.6649 H         1 UNK         0.0000 
     59 H59        -0.8686   53.7597   23.2837 H         1 UNK         0.0000 
     60 H60        -1.6604   51.4828   22.5768 H         1 UNK         0.0000 
     61 H61         0.0536   51.6163   22.2844 H         1 UNK         0.0000 
     62 H62        -0.4126   49.4618   23.3592 H         1 UNK         0.0000 
     63 H63        -1.3554   50.2158   24.6153 H         1 UNK         0.0000 
     64 H64         1.6589   50.3978   24.1793 H         1 UNK         0.0000 
     65 H65         0.8522   49.7276   25.5620 H         1 UNK         0.0000 
     66 H66         1.7636   52.0401   26.1187 H         1 UNK         0.0000 
     67 H67         0.0321   51.9760   26.2569 H         1 UNK         0.0000 
     68 H68         5.1946   54.4105   28.7321 H         1 UNK         0.0000 
     69 H69         2.1785   52.5700   28.0223 H         1 UNK         0.0000 
     70 H70         1.7929   52.0823   30.9408 H         1 UNK         0.0000 
     71 H71         2.1511   50.9616   29.6171 H         1 UNK         0.0000 
     72 H72        -0.4781   51.3085   30.2971 H         1 UNK         0.0000 
     73 H73         0.0140   51.1853   28.6284 H         1 UNK         0.0000 
     74 H74        -0.8949   53.5979   30.0977 H         1 UNK         0.0000 
     75 H75        -0.8938   53.2610   28.3517 H         1 UNK         0.0000 
     76 H76         0.8911   54.7956   28.3424 H         1 UNK         0.0000 
     77 H77         1.1000   54.6431   30.0630 H         1 UNK         0.0000 
@<TRIPOS>BOND
     1    1    2 1    
     2    1   39 1    
     3    1   40 1    
     4    1   41 1    
     5    2    7 ar   
     6    2    3 ar   
     7    3    4 ar   
     8    3   42 1    
     9    4    5 ar   
    10    4   43 1    
    11    5    6 ar   
    12    5    8 1    
    13    6    7 ar   
    14    6   44 1    
    15    7   45 1    
    16    8    9 am   BACKBONE|DICT|INTERRES
    17    8   46 1    
    18    9   10 2    
    19    9   11 am   BACKBONE|DICT|INTERRES
    20   11   16 1    
    21   11   12 1    
    22   12   13 1    
    23   12   47 1    
    24   12   48 1    
    25   13   14 1    
    26   13   49 1    
    27   13   50 1    
    28   14   15 1    
    29   14   17 1    
    30   15   16 1    
    31   15   51 1    
    32   15   52 1    
    33   16   53 1    
    34   16   54 1    
    35   17   22 ar   
    36   17   18 ar   
    37   18   19 ar   
    38   18   55 1    
    39   19   20 ar   
    40   19   56 1    
    41   20   21 ar   
    42   20   31 1    
    43   21   22 ar   
    44   21   57 1    
    45   22   23 1    
    46   23   24 2    
    47   23   25 am   BACKBONE|DICT|INTERRES
    48   25   30 1    
    49   25   26 1    
    50   26   27 1    
    51   26   58 1    
    52   26   59 1    
    53   27   28 1    
    54   27   60 1    
    55   27   61 1    
    56   28   29 1    
    57   28   62 1    
    58   28   63 1    
    59   29   30 1    
    60   29   64 1    
    61   29   65 1    
    62   30   66 1    
    63   30   67 1    
    64   31   32 am   BACKBONE|DICT|INTERRES
    65   31   68 1    
    66   32   33 2    
    67   32   34 1    
    68   34   38 1    
    69   34   35 1    
    70   34   69 1    
    71   35   36 1    
    72   35   70 1    
    73   35   71 1    
    74   36   37 1    
    75   36   72 1    
    76   36   73 1    
    77   37   38 1    
    78   37   74 1    
    79   37   75 1    
    80   38   76 1    
    81   38   77 1    
@<TRIPOS>SUBSTRUCTURE
     1 UNK         1 GROUP             0       ****    0 ROOT    
