ZINC06292397_5124
                    3D
 Schrodinger Suite 2024-2.
 45 47  0  0  1  0            999 V2000
    6.7045   54.6176   27.2947 C   0  0  0  0  0  0
    5.4984   54.2856   26.6253 O   0  0  0  0  0  0
    4.3130   54.1194   27.3235 C   0  0  0  0  0  0
    4.2636   54.1510   28.7284 C   0  0  0  0  0  0
    3.0650   53.9482   29.4052 C   0  0  0  0  0  0
    1.8918   53.7323   28.6963 C   0  0  0  0  0  0
    1.9230   53.6962   27.3059 C   0  0  0  0  0  0
    3.1171   53.8953   26.5967 C   0  0  0  0  0  0
    3.0361   53.8476   25.1224 C   0  0  0  0  0  0
    4.0166   54.0934   24.3525 N   0  0  0  0  0  0
    3.7622   53.8983   23.0467 N   0  0  0  0  0  0
    4.7339   53.9512   22.1123 C   0  0  0  0  0  0
    5.9022   54.2749   22.3563 O   0  0  0  0  0  0
    4.3033   53.5921   20.7006 C   0  0  0  0  0  0
    3.2849   52.6364   20.5154 C   0  0  0  0  0  0
    2.8379   52.2934   19.2437 C   0  0  0  0  0  0
    3.4018   52.8966   18.1290 C   0  0  0  0  0  0
    4.4219   53.8287   18.2859 C   0  0  0  0  0  0
    4.9001   54.1800   19.5560 C   0  0  0  0  0  0
    5.9443   55.1123   19.7156 N   0  0  0  0  0  0
    6.8360   55.9687   18.4482 S   0  0  0  0  0  0
    5.9070   56.3463   17.3785 O   0  0  0  0  0  0
    7.6465   56.9749   19.1419 O   0  0  0  0  0  0
    7.9890   54.7346   17.7950 C   0  0  0  0  0  0
    9.3723   54.7681   17.9393 C   0  0  0  0  0  0
   10.0103   53.7080   17.2822 C   0  0  0  0  0  0
    9.1155   52.8424   16.6703 C   0  0  0  0  0  0
    7.4728   53.3563   16.8721 S   0  0  0  0  0  0
    0.2468   53.4956   29.6249 Br  0  0  0  0  0  0
    7.5121   54.5748   26.5680 H   0  0  0  0  0  0
    6.6636   55.6366   27.6809 H   0  0  0  0  0  0
    6.9553   53.9201   28.0966 H   0  0  0  0  0  0
    5.1527   54.3238   29.3136 H   0  0  0  0  0  0
    3.0431   53.9521   30.4817 H   0  0  0  0  0  0
    0.9953   53.5108   26.7834 H   0  0  0  0  0  0
    2.0564   53.5710   24.7358 H   0  0  0  0  0  0
    2.8170   53.6404   22.8085 H   0  0  0  0  0  0
    2.8235   52.1369   21.3542 H   0  0  0  0  0  0
    2.0623   51.5518   19.1199 H   0  0  0  0  0  0
    3.0650   52.6215   17.1396 H   0  0  0  0  0  0
    4.8329   54.2529   17.3877 H   0  0  0  0  0  0
    6.3340   55.1634   20.6474 H   0  0  0  0  0  0
    9.9017   55.5394   18.4824 H   0  0  0  0  0  0
   11.0814   53.5677   17.2742 H   0  0  0  0  0  0
    9.3392   51.9422   16.1180 H   0  0  0  0  0  0
  1  2  1  0  0  0
  1 30  1  0  0  0
  1 31  1  0  0  0
  1 32  1  0  0  0
  2  3  1  0  0  0
  3  8  2  0  0  0
  3  4  1  0  0  0
  4  5  2  0  0  0
  4 33  1  0  0  0
  5  6  1  0  0  0
  5 34  1  0  0  0
  6  7  2  0  0  0
  6 29  1  0  0  0
  7  8  1  0  0  0
  7 35  1  0  0  0
  8  9  1  0  0  0
  9 10  2  0  0  0
  9 36  1  0  0  0
 10 11  1  0  0  0
 11 12  1  0  0  0
 11 37  1  0  0  0
 12 13  2  0  0  0
 12 14  1  0  0  0
 14 19  2  0  0  0
 14 15  1  0  0  0
 15 16  2  0  0  0
 15 38  1  0  0  0
 16 17  1  0  0  0
 16 39  1  0  0  0
 17 18  2  0  0  0
 17 40  1  0  0  0
 18 19  1  0  0  0
 18 41  1  0  0  0
 19 20  1  0  0  0
 20 21  1  0  0  0
 20 42  1  0  0  0
 21 22  2  0  0  0
 21 23  2  0  0  0
 21 24  1  0  0  0
 24 28  1  0  0  0
 24 25  2  0  0  0
 25 26  1  0  0  0
 25 43  1  0  0  0
 26 27  2  0  0  0
 26 44  1  0  0  0
 27 28  1  0  0  0
 27 45  1  0  0  0
M  END
> <i_i_glide_confnum>
174

> <i_i_glide_lignum>
5125

> <i_i_glide_posenum>
298

> <i_i_glide_rotatable_bonds>
8

> <i_m_Source_File_Index>
5352

> <b_m_subgroup_collapsed>
0

> <r_i_docking_score>
-3.8306

> <r_i_glide_ecoul>
-0.393392

> <r_i_glide_eff_state_penalty>
0

> <r_i_glide_einternal>
1.14434

> <r_i_glide_emodel>
-52.435

> <r_i_glide_energy>
-43.741

> <r_i_glide_erotb>
0.583623

> <r_i_glide_esite>
-0.0261378

> <r_i_glide_evdw>
-43.3476

> <r_i_glide_gscore>
-3.8306

> <r_i_glide_hbond>
0

> <r_i_glide_ligand_efficiency>
-0.13209

> <r_i_glide_ligand_efficiency_ln>
-0.877111

> <r_i_glide_ligand_efficiency_sa>
-0.405822

> <r_i_glide_lipo>
-1.88162

> <r_i_glide_metal>
0

> <r_i_glide_rewards>
-0.280085

> <s_i_glide_gridfile>
wee1_glide-grid

> <s_m_Source_File>
wee1_decoys_glide_SP.sdf

> <s_m_Source_Path>
/Users/zhangxujun/Desktop

> <s_m_entry_id>
5627

> <s_m_entry_name>
wee1_decoys_glide_SP.5352

> <s_m_subgroup_title>
wee1_decoys_glide_SP

> <s_m_subgroupid>
wee1_decoys_glide_SP


$$$$
