ZINC06147668_14
                    3D
 Schrodinger Suite 2024-2.
 48 52  0  0  1  0            999 V2000
    4.2801   54.1592   28.0350 C   0  0  0  0  0  0
    4.3855   54.4962   26.6830 C   0  0  0  0  0  0
    3.4397   54.0299   25.7670 C   0  0  0  0  0  0
    2.3790   53.2319   26.2104 C   0  0  0  0  0  0
    2.2773   52.8984   27.5582 C   0  0  0  0  0  0
    3.2306   53.3495   28.4728 C   0  0  0  0  0  0
    1.1270   51.9481   27.7448 C   0  0  0  0  0  0
    0.4030   52.0187   26.3999 C   0  0  0  0  0  0
    1.3631   52.6072   25.4710 N   0  0  0  0  0  0
    0.8603   53.0593   23.8281 S   0  0  0  0  0  0
    1.1039   54.4967   23.6970 O   0  0  0  0  0  0
   -0.4755   52.4932   23.6043 O   0  0  0  0  0  0
    1.9721   52.2650   22.6875 C   0  0  0  0  0  0
    1.8598   50.9032   22.4073 C   0  0  0  0  0  0
    2.7043   50.3261   21.4608 C   0  0  0  0  0  0
    3.6623   51.1039   20.8061 C   0  0  0  0  0  0
    3.7980   52.4712   21.0922 C   0  0  0  0  0  0
    2.9462   53.0337   22.0481 C   0  0  0  0  0  0
    4.8276   53.3510   20.4188 C   0  0  0  0  0  0
    5.1367   54.4257   20.9417 O   0  0  0  0  0  0
    5.3507   52.8967   19.2574 N   0  0  0  0  0  0
    6.3045   53.5436   18.4901 C   0  0  0  0  0  0
    6.7789   52.8965   17.3789 N   0  0  0  0  0  0
    6.4459   51.9816   17.0999 H   0  0  0  0  0  0
    7.7762   53.6741   16.8402 C   0  0  0  0  0  0
    8.6335   53.5260   15.7463 C   0  0  0  0  0  0
    9.5503   54.5599   15.5313 C   0  0  0  0  0  0
    9.6107   55.6830   16.3600 C   0  0  0  0  0  0
    8.7511   55.8254   17.4512 C   0  0  0  0  0  0
    7.8208   54.8051   17.6962 C   0  0  0  0  0  0
    6.8886   54.7047   18.6951 N   0  0  0  0  0  0
    5.0217   54.5112   28.7384 H   0  0  0  0  0  0
    5.2057   55.1116   26.3432 H   0  0  0  0  0  0
    3.5492   54.2875   24.7231 H   0  0  0  0  0  0
    3.1747   53.0686   29.5127 H   0  0  0  0  0  0
    0.4629   52.2553   28.5535 H   0  0  0  0  0  0
    1.4555   50.9276   27.9444 H   0  0  0  0  0  0
   -0.4559   52.6865   26.4765 H   0  0  0  0  0  0
    0.0188   51.0619   26.0437 H   0  0  0  0  0  0
    1.1130   50.3005   22.9035 H   0  0  0  0  0  0
    2.6211   49.2730   21.2324 H   0  0  0  0  0  0
    4.3020   50.6233   20.0817 H   0  0  0  0  0  0
    3.0231   54.0892   22.2718 H   0  0  0  0  0  0
    5.0988   51.9682   18.9231 H   0  0  0  0  0  0
    8.6005   52.6589   15.1038 H   0  0  0  0  0  0
   10.2366   54.4878   14.6984 H   0  0  0  0  0  0
   10.3420   56.4526   16.1560 H   0  0  0  0  0  0
    8.8069   56.6910   18.0941 H   0  0  0  0  0  0
  1  6  2  0  0  0
  1  2  1  0  0  0
  1 32  1  0  0  0
  2  3  2  0  0  0
  2 33  1  0  0  0
  3  4  1  0  0  0
  3 34  1  0  0  0
  4  9  1  0  0  0
  4  5  2  0  0  0
  5  6  1  0  0  0
  5  7  1  0  0  0
  6 35  1  0  0  0
  7  8  1  0  0  0
  7 36  1  0  0  0
  7 37  1  0  0  0
  8  9  1  0  0  0
  8 38  1  0  0  0
  8 39  1  0  0  0
  9 10  1  0  0  0
 10 11  2  0  0  0
 10 12  2  0  0  0
 10 13  1  0  0  0
 13 18  2  0  0  0
 13 14  1  0  0  0
 14 15  2  0  0  0
 14 40  1  0  0  0
 15 16  1  0  0  0
 15 41  1  0  0  0
 16 17  2  0  0  0
 16 42  1  0  0  0
 17 18  1  0  0  0
 17 19  1  0  0  0
 18 43  1  0  0  0
 19 20  2  0  0  0
 19 21  1  0  0  0
 21 22  1  0  0  0
 21 44  1  0  0  0
 22 31  2  0  0  0
 22 23  1  0  0  0
 23 24  1  0  0  0
 23 25  1  0  0  0
 25 30  2  0  0  0
 25 26  1  0  0  0
 26 27  2  0  0  0
 26 45  1  0  0  0
 27 28  1  0  0  0
 27 46  1  0  0  0
 28 29  2  0  0  0
 28 47  1  0  0  0
 29 30  1  0  0  0
 29 48  1  0  0  0
 30 31  1  0  0  0
M  END
> <i_i_glide_confnum>
18

> <i_i_glide_lignum>
15

> <i_i_glide_posenum>
367

> <i_i_glide_rotatable_bonds>
5

> <i_m_Source_File_Index>
4829

> <b_m_subgroup_collapsed>
0

> <r_i_docking_score>
-5.19037

> <r_i_glide_ecoul>
-5.6692

> <r_i_glide_eff_state_penalty>
0

> <r_i_glide_einternal>
2.84935

> <r_i_glide_emodel>
-57.5751

> <r_i_glide_energy>
-42.5599

> <r_i_glide_erotb>
0.564611

> <r_i_glide_esite>
-0.20115

> <r_i_glide_evdw>
-36.8907

> <r_i_glide_gscore>
-5.19037

> <r_i_glide_hbond>
-0.235453

> <r_i_glide_ligand_efficiency>
-0.173012

> <r_i_glide_ligand_efficiency_ln>
-1.17931

> <r_i_glide_ligand_efficiency_sa>
-0.53759

> <r_i_glide_lipo>
-1.94036

> <r_i_glide_metal>
0

> <r_i_glide_rewards>
-0.683108

> <s_i_glide_gridfile>
wee1_glide-grid

> <s_m_Source_File>
wee1_decoys_glide_SP.sdf

> <s_m_Source_Path>
/Users/zhangxujun/Desktop

> <s_m_entry_id>
5104

> <s_m_entry_name>
wee1_decoys_glide_SP.4829

> <s_m_subgroup_title>
wee1_decoys_glide_SP

> <s_m_subgroupid>
wee1_decoys_glide_SP


$$$$
