ZINC43423169_6161
                    3D
 Schrodinger Suite 2024-2.
 33 35  0  0  1  0            999 V2000
    4.5928   54.4963   28.4158 C   0  0  0  0  0  0
    3.2986   54.0639   28.1934 C   0  0  0  0  0  0
    3.0348   53.6871   26.5266 S   0  0  0  0  0  0
    4.6546   54.1904   26.0764 C   0  0  0  0  0  0
    5.3552   54.5339   27.2465 C   0  0  0  0  0  0
    6.6681   54.8965   27.2818 N   0  0  0  0  0  0
    5.1896   54.1012   24.7097 C   0  0  0  0  0  0
    6.4154   54.1405   24.5538 O   0  0  0  0  0  0
    4.3621   53.9015   23.6425 N   0  0  0  0  0  0
    3.0179   54.4967   23.5357 C   0  0  0  0  0  0
    2.0727   53.4146   22.9962 C   0  0  0  0  0  0
    2.5212   53.0615   21.6969 O   0  0  0  0  0  0
    3.8331   52.5052   21.6696 C   0  0  2  0  0  0
    3.7934   51.4973   22.0817 H   0  0  0  0  0  0
    4.9122   53.3646   22.3706 C   0  0  1  0  0  0
    5.7436   52.6908   22.5913 H   0  0  0  0  0  0
    5.3523   54.3952   21.3180 C   0  0  0  0  0  0
    5.1019   53.7358   19.9545 C   0  0  0  0  0  0
    4.3054   52.4477   20.2180 C   0  0  0  0  0  0
    4.9810   54.7666   29.3872 H   0  0  0  0  0  0
    2.5044   53.9321   28.9146 H   0  0  0  0  0  0
    7.1219   55.2108   28.1360 H   0  0  0  0  0  0
    7.2194   54.7823   26.4425 H   0  0  0  0  0  0
    2.6365   55.0465   24.3928 H   0  0  0  0  0  0
    3.1035   55.2550   22.7581 H   0  0  0  0  0  0
    2.0530   52.5495   23.6633 H   0  0  0  0  0  0
    1.0505   53.7885   22.9459 H   0  0  0  0  0  0
    4.7490   55.2974   21.3846 H   0  0  0  0  0  0
    6.3921   54.6950   21.4561 H   0  0  0  0  0  0
    4.5401   54.4089   19.3039 H   0  0  0  0  0  0
    6.0359   53.5073   19.4389 H   0  0  0  0  0  0
    4.9332   51.5689   20.0818 H   0  0  0  0  0  0
    3.4701   52.3667   19.5190 H   0  0  0  0  0  0
  1  5  1  0  0  0
  1  2  2  0  0  0
  1 20  1  0  0  0
  2  3  1  0  0  0
  2 21  1  0  0  0
  3  4  1  0  0  0
  4  5  2  0  0  0
  4  7  1  0  0  0
  5  6  1  0  0  0
  6 22  1  0  0  0
  6 23  1  0  0  0
  7  8  2  0  0  0
  7  9  1  0  0  0
  9 15  1  0  0  0
  9 10  1  0  0  0
 10 11  1  0  0  0
 10 24  1  0  0  0
 10 25  1  0  0  0
 11 12  1  0  0  0
 11 26  1  0  0  0
 11 27  1  0  0  0
 12 13  1  0  0  0
 13 14  1  0  0  0
 13 19  1  0  0  0
 13 15  1  0  0  0
 15 16  1  0  0  0
 15 17  1  0  0  0
 17 18  1  0  0  0
 17 28  1  0  0  0
 17 29  1  0  0  0
 18 19  1  0  0  0
 18 30  1  0  0  0
 18 31  1  0  0  0
 19 32  1  0  0  0
 19 33  1  0  0  0
M  END
> <i_i_glide_confnum>
9

> <i_i_glide_lignum>
6162

> <i_i_glide_posenum>
15

> <i_i_glide_rotatable_bonds>
2

> <i_m_Source_File_Index>
295

> <b_m_subgroup_collapsed>
0

> <r_i_docking_score>
-5.3148

> <r_i_glide_ecoul>
0.477844

> <r_i_glide_eff_state_penalty>
0

> <r_i_glide_einternal>
2.96721

> <r_i_glide_emodel>
-40.091

> <r_i_glide_energy>
-30.4271

> <r_i_glide_erotb>
0.551146

> <r_i_glide_esite>
0

> <r_i_glide_evdw>
-30.905

> <r_i_glide_gscore>
-5.3148

> <r_i_glide_hbond>
-0.32

> <r_i_glide_ligand_efficiency>
-0.312636

> <r_i_glide_ligand_efficiency_ln>
-1.38651

> <r_i_glide_ligand_efficiency_sa>
-0.803874

> <r_i_glide_lipo>
-1.93914

> <r_i_glide_metal>
0

> <r_i_glide_rewards>
-2.13324

> <s_i_glide_gridfile>
wee1_glide-grid

> <s_m_Source_File>
wee1_decoys_glide_SP.sdf

> <s_m_Source_Path>
/Users/zhangxujun/Desktop

> <s_m_entry_id>
570

> <s_m_entry_name>
wee1_decoys_glide_SP.295

> <s_m_subgroup_title>
wee1_decoys_glide_SP

> <s_m_subgroupid>
wee1_decoys_glide_SP


$$$$
