ZINC02946107_2908
                    3D
 Schrodinger Suite 2024-2.
 76 79  0  0  1  0            999 V2000
    0.3966   52.4571   25.4368 C   0  0  0  0  0  0
    1.4769   53.4730   25.9064 C   0  0  1  0  0  0
    1.1226   54.4947   25.8084 H   0  0  0  0  0  0
    1.9273   53.2088   27.3523 C   0  0  0  0  0  0
    0.9676   52.8799   28.3141 C   0  0  0  0  0  0
    1.3055   52.5174   29.6184 C   0  0  0  0  0  0
    2.6431   52.5523   30.0067 C   0  0  0  0  0  0
    3.6059   52.9929   29.0872 C   0  0  0  0  0  0
    3.2732   53.2994   27.7638 C   0  0  0  0  0  0
    4.3855   53.6412   26.7812 C   0  0  0  0  0  0
    3.8779   54.2401   25.4634 C   0  0  0  0  0  0
    2.6814   53.4134   24.9351 N   0  3  2  0  0  0
    2.2954   53.9542   23.5319 C   0  0  0  0  0  0
    2.8372   53.1273   22.3824 C   0  0  0  0  0  0
    3.7688   53.7173   21.5269 C   0  0  0  0  0  0
    4.2161   53.0587   20.3762 C   0  0  0  0  0  0
    3.6627   51.8105   20.0811 C   0  0  0  0  0  0
    2.7812   51.1851   20.9519 C   0  0  0  0  0  0
    2.3802   51.8232   22.1299 C   0  0  0  0  0  0
    1.5389   51.2211   23.0424 O   0  0  0  0  0  0
    1.5051   49.7966   23.1029 C   0  0  0  0  0  0
    5.2493   53.6338   19.5074 C   0  0  0  0  0  0
    5.7413   54.7905   19.7033 N   0  0  0  0  0  0
    6.8016   55.0641   18.9250 N   0  0  0  0  0  0
    7.4731   56.2319   19.0146 C   0  0  0  0  0  0
    7.1034   57.2051   19.6821 O   0  0  0  0  0  0
    8.7243   56.2624   18.2877 C   0  0  0  0  0  0
    9.4994   57.4188   18.0857 C   0  0  0  0  0  0
   10.6552   57.0421   17.4175 C   0  0  0  0  0  0
   10.4853   55.6895   17.2694 N   0  0  0  0  0  0
    9.3477   55.2144   17.7811 N   0  0  0  0  0  0
   11.1603   55.0816   16.8303 H   0  0  0  0  0  0
   11.8941   57.7995   16.9399 C   0  0  0  0  0  0
   13.0912   57.4403   17.8461 C   0  0  0  0  0  0
   11.6472   59.3237   17.0129 C   0  0  0  0  0  0
   12.2241   57.4199   15.4783 C   0  0  0  0  0  0
    2.9223   52.0956   31.2798 O   0  0  0  0  0  0
    4.2625   51.9692   31.7176 C   0  0  0  0  0  0
    0.3720   52.0992   30.5463 O   0  0  0  0  0  0
   -0.8929   51.6439   30.0752 C   0  0  0  0  0  0
   -0.5226   52.5330   26.0147 H   0  0  0  0  0  0
    0.0653   52.5910   24.4113 H   0  0  0  0  0  0
    0.7528   51.4319   25.5397 H   0  0  0  0  0  0
   -0.0705   52.8751   28.0305 H   0  0  0  0  0  0
    4.6461   53.0568   29.3656 H   0  0  0  0  0  0
    4.9628   52.7394   26.5852 H   0  0  0  0  0  0
    5.0913   54.3335   27.2419 H   0  0  0  0  0  0
    4.6635   54.2010   24.7045 H   0  0  0  0  0  0
    3.5474   55.2742   25.5858 H   0  0  0  0  0  0
    2.6408   54.9878   23.4813 H   0  0  0  0  0  0
    1.2147   54.0261   23.4337 H   0  0  0  0  0  0
    4.1362   54.7095   21.7510 H   0  0  0  0  0  0
    3.9040   51.2968   19.1665 H   0  0  0  0  0  0
    2.4081   50.2061   20.6901 H   0  0  0  0  0  0
    1.0382   49.4806   24.0349 H   0  0  0  0  0  0
    0.9222   49.3799   22.2828 H   0  0  0  0  0  0
    2.5066   49.3655   23.0781 H   0  0  0  0  0  0
    5.5757   52.9810   18.6979 H   0  0  0  0  0  0
    7.1174   54.3177   18.3223 H   0  0  0  0  0  0
    9.2477   58.4173   18.4116 H   0  0  0  0  0  0
   14.0004   57.9586   17.5400 H   0  0  0  0  0  0
   13.3014   56.3709   17.8291 H   0  0  0  0  0  0
   12.8936   57.7035   18.8849 H   0  0  0  0  0  0
   10.7918   59.6146   16.4009 H   0  0  0  0  0  0
   11.4375   59.6458   18.0329 H   0  0  0  0  0  0
   12.5092   59.8903   16.6602 H   0  0  0  0  0  0
   11.3799   57.6197   14.8159 H   0  0  0  0  0  0
   13.0772   57.9820   15.0991 H   0  0  0  0  0  0
   12.4615   56.3604   15.3765 H   0  0  0  0  0  0
    4.2939   51.1953   32.4817 H   0  0  0  0  0  0
    4.9714   51.6875   30.9403 H   0  0  0  0  0  0
    4.5800   52.8969   32.1837 H   0  0  0  0  0  0
   -1.4554   51.1779   30.8809 H   0  0  0  0  0  0
   -1.4794   52.4686   29.6818 H   0  0  0  0  0  0
   -0.7816   50.8962   29.2898 H   0  0  0  0  0  0
    2.9559   52.4466   24.8250 H   0  0  0  0  0  0
  1  2  1  0  0  0
  1 41  1  0  0  0
  1 42  1  0  0  0
  1 43  1  0  0  0
  2  3  1  0  0  0
  2 12  1  0  0  0
  2  4  1  0  0  0
  4  9  2  0  0  0
  4  5  1  0  0  0
  5  6  2  0  0  0
  5 44  1  0  0  0
  6  7  1  0  0  0
  6 39  1  0  0  0
  7  8  2  0  0  0
  7 37  1  0  0  0
  8  9  1  0  0  0
  8 45  1  0  0  0
  9 10  1  0  0  0
 10 11  1  0  0  0
 10 46  1  0  0  0
 10 47  1  0  0  0
 11 12  1  0  0  0
 11 48  1  0  0  0
 11 49  1  0  0  0
 12 13  1  0  0  0
 12 76  1  0  0  0
 13 14  1  0  0  0
 13 50  1  0  0  0
 13 51  1  0  0  0
 14 19  2  0  0  0
 14 15  1  0  0  0
 15 16  2  0  0  0
 15 52  1  0  0  0
 16 17  1  0  0  0
 16 22  1  0  0  0
 17 18  2  0  0  0
 17 53  1  0  0  0
 18 19  1  0  0  0
 18 54  1  0  0  0
 19 20  1  0  0  0
 20 21  1  0  0  0
 21 55  1  0  0  0
 21 56  1  0  0  0
 21 57  1  0  0  0
 22 23  2  0  0  0
 22 58  1  0  0  0
 23 24  1  0  0  0
 24 25  1  0  0  0
 24 59  1  0  0  0
 25 26  2  0  0  0
 25 27  1  0  0  0
 27 28  1  0  0  0
 27 31  2  0  0  0
 28 60  1  0  0  0
 28 29  2  0  0  0
 29 33  1  0  0  0
 29 30  1  0  0  0
 30 32  1  0  0  0
 30 31  1  0  0  0
 33 34  1  0  0  0
 33 35  1  0  0  0
 33 36  1  0  0  0
 34 61  1  0  0  0
 34 62  1  0  0  0
 34 63  1  0  0  0
 35 64  1  0  0  0
 35 65  1  0  0  0
 35 66  1  0  0  0
 36 67  1  0  0  0
 36 68  1  0  0  0
 36 69  1  0  0  0
 37 38  1  0  0  0
 38 70  1  0  0  0
 38 71  1  0  0  0
 38 72  1  0  0  0
 39 40  1  0  0  0
 40 73  1  0  0  0
 40 74  1  0  0  0
 40 75  1  0  0  0
M  CHG  1  12   1
M  END
> <i_i_glide_confnum>
21

> <i_i_glide_lignum>
2909

> <i_i_glide_posenum>
10

> <i_i_glide_rotatable_bonds>
10

> <i_m_Source_File_Index>
1220

> <b_m_subgroup_collapsed>
0

> <r_i_docking_score>
-5.37778

> <r_i_glide_ecoul>
-5.91666

> <r_i_glide_eff_state_penalty>
0

> <r_i_glide_einternal>
4.99947

> <r_i_glide_emodel>
-61.7606

> <r_i_glide_energy>
-47.716

> <r_i_glide_erotb>
0.45492

> <r_i_glide_esite>
-0.0428372

> <r_i_glide_evdw>
-41.7994

> <r_i_glide_gscore>
-5.37778

> <r_i_glide_hbond>
-0.57971

> <r_i_glide_ligand_efficiency>
-0.141521

> <r_i_glide_ligand_efficiency_ln>
-1.15961

> <r_i_glide_ligand_efficiency_sa>
-0.475789

> <r_i_glide_lipo>
-2.1994

> <r_i_glide_metal>
0

> <r_i_glide_rewards>
-0.0332854

> <s_i_glide_gridfile>
wee1_glide-grid

> <s_m_Source_File>
wee1_decoys_glide_SP.sdf

> <s_m_Source_Path>
/Users/zhangxujun/Desktop

> <s_m_entry_id>
1495

> <s_m_entry_name>
wee1_decoys_glide_SP.1220

> <s_m_subgroup_title>
wee1_decoys_glide_SP

> <s_m_subgroupid>
wee1_decoys_glide_SP


$$$$
