@<TRIPOS>MOLECULE
ZINC00751145_5584
67   70    1
SMALL
USER_CHARGES


@<TRIPOS>ATOM
      1 C1          0.0183   49.6392   18.0780 C.3       1 UNK         0.0000 
      2 C2          1.4108   50.1986   17.7263 C.3       1 UNK         0.0000 
      3 C3          1.5040   50.5304   16.2274 C.3       1 UNK         0.0000 
      4 C4          1.8020   51.4299   18.5724 C.3       1 UNK         0.0000 
      5 N5          1.8184   51.1681   20.0274 N.am      1 UNK         0.0000 
      6 C6          3.1219   50.7619   20.6024 C.3       1 UNK         0.0000 
      7 C7          4.1020   51.9231   20.8820 C.2       1 UNK         0.0000 
      8 O8          5.0887   51.6960   21.5805 O.2       1 UNK         0.0000 
      9 N9          3.9393   53.0897   20.2246 N.am      1 UNK         0.0000 
     10 C10         4.8815   54.0985   20.2264 C.ar      1 UNK         0.0000 
     11 C11         5.4312   54.7334   19.1340 C.ar      1 UNK         0.0000 
     12 C12         6.3750   55.6395   19.6308 C.ar      1 UNK         0.0000 
     13 N13         6.3680   55.6167   20.9515 N.2       1 UNK         0.0000 
     14 N14         5.4668   54.6917   21.3343 N.pl3     1 UNK         0.0000 
     15 C15         5.2124   54.4967   22.7207 C.ar      1 UNK         0.0000 
     16 C16         3.9064   54.2603   23.1752 C.ar      1 UNK         0.0000 
     17 C17         3.6578   54.0968   24.5349 C.ar      1 UNK         0.0000 
     18 C18         4.7107   54.1714   25.4443 C.ar      1 UNK         0.0000 
     19 C19         6.0131   54.4002   25.0038 C.ar      1 UNK         0.0000 
     20 C20         6.2660   54.5549   23.6434 C.ar      1 UNK         0.0000 
     21 Cl21        4.4009   53.9733   27.1307 Cl        1 UNK         0.0000 
     22 C22         7.3276   56.5661   18.8640 C.3       1 UNK         0.0000 
     23 C23         6.8629   58.0311   19.0440 C.3       1 UNK         0.0000 
     24 C24         7.3367   56.2400   17.3520 C.3       1 UNK         0.0000 
     25 C25         8.7735   56.3838   19.3938 C.3       1 UNK         0.0000 
     26 C26         0.8400   51.6955   20.8198 C.2       1 UNK         0.0000 
     27 O27         0.0004   52.4966   20.4075 O.2       1 UNK         0.0000 
     28 C28         0.7489   51.2559   22.2613 C.ar      1 UNK         0.0000 
     29 C29         0.7669   49.8840   22.5975 C.ar      1 UNK         0.0000 
     30 C30         0.6112   49.4645   23.9250 C.ar      1 UNK         0.0000 
     31 C31         0.4398   50.4426   24.8939 C.ar      1 UNK         0.0000 
     32 C32         0.4307   51.7706   24.5842 C.ar      1 UNK         0.0000 
     33 C33         0.5770   52.2179   23.2760 C.ar      1 UNK         0.0000 
     34 O34         0.2961   52.4965   25.7243 O.3       1 UNK         0.0000 
     35 C35         0.0485   51.5671   26.7482 C.3       1 UNK         0.0000 
     36 O36         0.3060   50.2884   26.2349 O.3       1 UNK         0.0000 
     37 H37        -0.7583   50.3935   17.9466 H         1 UNK         0.0000 
     38 H38        -0.2360   48.7864   17.4472 H         1 UNK         0.0000 
     39 H39        -0.0265   49.2973   19.1115 H         1 UNK         0.0000 
     40 H40         2.1474   49.4168   17.9204 H         1 UNK         0.0000 
     41 H41         0.7819   51.2945   15.9400 H         1 UNK         0.0000 
     42 H42         2.4980   50.8980   15.9659 H         1 UNK         0.0000 
     43 H43         1.3183   49.6476   15.6153 H         1 UNK         0.0000 
     44 H44         1.1376   52.2570   18.3160 H         1 UNK         0.0000 
     45 H45         2.7977   51.7443   18.2554 H         1 UNK         0.0000 
     46 H46         3.5938   50.1464   19.8351 H         1 UNK         0.0000 
     47 H47         3.0757   50.1033   21.4684 H         1 UNK         0.0000 
     48 H48         3.1530   53.1885   19.6000 H         1 UNK         0.0000 
     49 H49         5.2075   54.5323   18.0969 H         1 UNK         0.0000 
     50 H50         3.0762   54.2275   22.4844 H         1 UNK         0.0000 
     51 H51         2.6512   53.9183   24.8832 H         1 UNK         0.0000 
     52 H52         6.8255   54.4414   25.7142 H         1 UNK         0.0000 
     53 H53         7.2775   54.7187   23.3065 H         1 UNK         0.0000 
     54 H54         6.7044   58.2880   20.0900 H         1 UNK         0.0000 
     55 H55         7.5805   58.7417   18.6315 H         1 UNK         0.0000 
     56 H56         5.9102   58.2074   18.5431 H         1 UNK         0.0000 
     57 H57         7.6348   55.2075   17.1664 H         1 UNK         0.0000 
     58 H58         6.3504   56.3731   16.9056 H         1 UNK         0.0000 
     59 H59         8.0277   56.8837   16.8055 H         1 UNK         0.0000 
     60 H60         9.1521   55.3840   19.1750 H         1 UNK         0.0000 
     61 H61         9.4647   57.0993   18.9462 H         1 UNK         0.0000 
     62 H62         8.8432   56.4966   20.4756 H         1 UNK         0.0000 
     63 H63         0.8851   49.1340   21.8279 H         1 UNK         0.0000 
     64 H64         0.6295   48.4181   24.1862 H         1 UNK         0.0000 
     65 H65         0.5688   53.2743   23.0505 H         1 UNK         0.0000 
     66 H66        -1.0005   51.6214   27.0484 H         1 UNK         0.0000 
     67 H67         0.6999   51.7609   27.6031 H         1 UNK         0.0000 
@<TRIPOS>BOND
     1    1    2 1    
     2    1   37 1    
     3    1   38 1    
     4    1   39 1    
     5    2    3 1    
     6    2    4 1    
     7    2   40 1    
     8    3   41 1    
     9    3   42 1    
    10    3   43 1    
    11    4    5 1    
    12    4   44 1    
    13    4   45 1    
    14    5    6 1    
    15    5   26 am   BACKBONE|DICT|INTERRES
    16    6    7 1    
    17    6   46 1    
    18    6   47 1    
    19    7    8 2    
    20    7    9 am   BACKBONE|DICT|INTERRES
    21    9   10 1    
    22    9   48 1    
    23   10   14 ar   
    24   10   11 ar   
    25   11   12 ar   
    26   11   49 1    
    27   12   13 ar   
    28   12   22 1    
    29   13   14 ar   
    30   14   15 1    
    31   15   20 ar   
    32   15   16 ar   
    33   16   17 ar   
    34   16   50 1    
    35   17   18 ar   
    36   17   51 1    
    37   18   19 ar   
    38   18   21 1    
    39   19   20 ar   
    40   19   52 1    
    41   20   53 1    
    42   22   23 1    
    43   22   24 1    
    44   22   25 1    
    45   23   54 1    
    46   23   55 1    
    47   23   56 1    
    48   24   57 1    
    49   24   58 1    
    50   24   59 1    
    51   25   60 1    
    52   25   61 1    
    53   25   62 1    
    54   26   27 2    
    55   26   28 1    
    56   28   33 ar   
    57   28   29 ar   
    58   29   30 ar   
    59   29   63 1    
    60   30   31 ar   
    61   30   64 1    
    62   31   36 1    
    63   31   32 ar   
    64   32   33 ar   
    65   32   34 1    
    66   33   65 1    
    67   34   35 1    
    68   35   36 1    
    69   35   66 1    
    70   35   67 1    
@<TRIPOS>SUBSTRUCTURE
     1 UNK         1 GROUP             0       ****    0 ROOT    
