@<TRIPOS>MOLECULE
ZINC39577343_33
53   56    1
SMALL
USER_CHARGES


@<TRIPOS>ATOM
      1 C1          7.4692   54.1882   16.6858 C.3       1 UNK         0.0000 
      2 C2          8.4440   55.3744   16.8982 C.3       1 UNK         0.0000 
      3 H3          9.4515   54.9637   16.9800 H         1 UNK         0.0000 
      4 C4          8.1635   56.2992   18.0979 C.3       1 UNK         0.0000 
      5 H5          9.1238   56.7664   18.3313 H         1 UNK         0.0000 
      6 C6          7.3033   57.4337   17.4672 C.3       1 UNK         0.0000 
      7 H7          7.8603   58.3692   17.5504 H         1 UNK         0.0000 
      8 N8          7.2174   57.1004   16.0433 N.pl3     1 UNK         0.0000 
      9 N9          8.4235   56.3222   15.7981 N.3       1 UNK         0.0000 
     10 C10         6.7904   57.8978   14.9652 C.ar      1 UNK         0.0000 
     11 C11         6.7212   57.3617   13.6702 C.ar      1 UNK         0.0000 
     12 C12         6.2802   58.1367   12.6004 C.ar      1 UNK         0.0000 
     13 C13         5.8987   59.4577   12.8176 C.ar      1 UNK         0.0000 
     14 C14         5.9589   60.0083   14.0940 C.ar      1 UNK         0.0000 
     15 C15         6.4075   59.2328   15.1589 C.ar      1 UNK         0.0000 
     16 C16         5.9044   57.6787   18.0822 C.3       1 UNK         0.0000 
     17 C17         7.6480   55.6359   19.3769 C.2       1 UNK         0.0000 
     18 N18         8.2887   55.7045   20.4789 N.2       1 UNK         0.0000 
     19 N19         7.7551   55.2968   21.6816 N.am      1 UNK         0.0000 
     20 C20         6.5016   54.9139   22.0472 C.2       1 UNK         0.0000 
     21 O21         5.5045   54.9697   21.3234 O.2       1 UNK         0.0000 
     22 C22         6.4040   54.3123   23.4636 C.3       1 UNK         0.0000 
     23 H23         7.1380   53.5051   23.5030 H         1 UNK         0.0000 
     24 C24         5.0432   53.8390   23.8663 C.2       1 UNK         0.0000 
     25 C25         4.8537   54.4088   25.0614 C.2       1 UNK         0.0000 
     26 N26         5.8271   55.2965   25.3705 N.2       1 UNK         0.0000 
     27 N27         6.7260   55.2824   24.4760 N.2       1 UNK         0.0000 
     28 C28         3.7235   54.1754   25.9964 C.ar      1 UNK         0.0000 
     29 C29         3.8390   54.4967   27.3568 C.ar      1 UNK         0.0000 
     30 C30         2.7910   54.2527   28.2395 C.ar      1 UNK         0.0000 
     31 C31         1.6236   53.6560   27.7737 C.ar      1 UNK         0.0000 
     32 C32         1.5043   53.2967   26.4340 C.ar      1 UNK         0.0000 
     33 C33         2.5451   53.5634   25.5488 C.ar      1 UNK         0.0000 
     34 Cl34        0.3146   53.3685   28.8610 Cl        1 UNK         0.0000 
     35 H35         7.5286   53.4718   17.5056 H         1 UNK         0.0000 
     36 H36         6.4322   54.5189   16.6125 H         1 UNK         0.0000 
     37 H37         7.7066   53.6453   15.7708 H         1 UNK         0.0000 
     38 H38         8.2345   55.7991   14.9550 H         1 UNK         0.0000 
     39 H39         6.9936   56.3331   13.4890 H         1 UNK         0.0000 
     40 H40         6.2268   57.7123   11.6090 H         1 UNK         0.0000 
     41 H41         5.5495   60.0592   11.9914 H         1 UNK         0.0000 
     42 H42         5.6555   61.0314   14.2691 H         1 UNK         0.0000 
     43 H43         6.4550   59.6955   16.1329 H         1 UNK         0.0000 
     44 H44         5.9786   57.9297   19.1402 H         1 UNK         0.0000 
     45 H45         5.3722   58.4981   17.6023 H         1 UNK         0.0000 
     46 H46         5.2729   56.7932   17.9940 H         1 UNK         0.0000 
     47 H47         6.6932   55.1367   19.2408 H         1 UNK         0.0000 
     48 H48         8.4451   55.3142   22.4247 H         1 UNK         0.0000 
     49 H49         4.4469   53.1199   23.3256 H         1 UNK         0.0000 
     50 H50         4.7453   54.9443   27.7388 H         1 UNK         0.0000 
     51 H51         2.8867   54.5237   29.2800 H         1 UNK         0.0000 
     52 H52         0.6003   52.8248   26.0774 H         1 UNK         0.0000 
     53 H53         2.4278   53.2857   24.5117 H         1 UNK         0.0000 
@<TRIPOS>BOND
     1    1    2 1    
     2    1   35 1    
     3    1   36 1    
     4    1   37 1    
     5    2    3 1    
     6    2    9 1    
     7    2    4 1    
     8    4    5 1    
     9    4    6 1    
    10    4   17 1    
    11    6    7 1    
    12    6    8 1    
    13    6   16 1    
    14    8    9 1    
    15    8   10 1    
    16    9   38 1    
    17   10   15 ar   
    18   10   11 ar   
    19   11   12 ar   
    20   11   39 1    
    21   12   13 ar   
    22   12   40 1    
    23   13   14 ar   
    24   13   41 1    
    25   14   15 ar   
    26   14   42 1    
    27   15   43 1    
    28   16   44 1    
    29   16   45 1    
    30   16   46 1    
    31   17   18 2    
    32   17   47 1    
    33   18   19 1    
    34   19   20 am   BACKBONE|DICT|INTERRES
    35   19   48 1    
    36   20   21 2    
    37   20   22 1    
    38   22   23 1    
    39   22   27 1    
    40   22   24 1    
    41   24   25 2    
    42   24   49 1    
    43   25   26 1    
    44   25   28 1    
    45   26   27 2    
    46   28   33 ar   
    47   28   29 ar   
    48   29   30 ar   
    49   29   50 1    
    50   30   31 ar   
    51   30   51 1    
    52   31   32 ar   
    53   31   34 1    
    54   32   33 ar   
    55   32   52 1    
    56   33   53 1    
@<TRIPOS>SUBSTRUCTURE
     1 UNK         1 GROUP             0       ****    0 ROOT    
