ZINC20086028_4379
                    3D
 Schrodinger Suite 2024-2.
 53 56  0  0  1  0            999 V2000
   -3.3893   52.2051   17.8354 C   0  0  0  0  0  0
   -2.4744   51.5286   18.8386 C   0  0  0  0  0  0
   -1.0919   51.6685   18.7109 C   0  0  0  0  0  0
   -0.2432   51.0527   19.6262 C   0  0  0  0  0  0
   -0.7777   50.3053   20.6788 C   0  0  0  0  0  0
   -2.1624   50.1546   20.7996 C   0  0  0  0  0  0
   -3.0096   50.7691   19.8810 C   0  0  0  0  0  0
    0.3199   49.5656   21.8944 S   0  0  0  0  0  0
   -0.5135   48.8204   22.8459 O   0  0  0  0  0  0
    1.3607   48.8768   21.1228 O   0  0  0  0  0  0
    1.0825   50.9171   22.7881 N   0  0  0  0  0  0
    0.4585   51.6308   23.9440 C   0  0  1  0  0  0
    0.5587   50.9987   24.8233 H   0  0  0  0  0  0
    1.3196   52.9339   24.0793 C   0  0  2  0  0  0
    0.7236   53.8319   23.8952 H   0  0  0  0  0  0
    2.3062   52.8242   22.9168 C   0  0  0  0  0  0
    2.1280   51.6828   22.2467 C   0  0  0  0  0  0
    2.8414   51.1951   21.1814 N   0  0  0  0  0  0
    3.2876   53.7875   22.5469 C   0  0  0  0  0  0
    4.1373   54.4966   22.2164 N   0  0  0  0  0  0
    1.9061   53.1754   25.4918 C   0  0  0  0  0  0
    3.1938   53.6967   25.6973 C   0  0  0  0  0  0
    3.6846   53.9051   26.9841 C   0  0  0  0  0  0
    2.8915   53.6007   28.0852 C   0  0  0  0  0  0
    1.6061   53.1002   27.9064 C   0  0  0  0  0  0
    1.1185   52.8964   26.6186 C   0  0  0  0  0  0
    3.5042   53.8475   29.6791 Cl  0  0  0  0  0  0
   -1.0333   51.9827   23.6845 C   0  0  0  0  0  0
   -1.3430   52.4961   22.6097 O   0  0  0  0  0  0
   -2.0094   51.8723   24.8132 C   0  0  0  0  0  0
   -1.8772   50.9039   25.8201 C   0  0  0  0  0  0
   -2.8125   50.8343   26.8491 C   0  0  0  0  0  0
   -3.8998   51.7019   26.8612 C   0  0  0  0  0  0
   -4.0608   52.6473   25.8532 C   0  0  0  0  0  0
   -3.1213   52.7286   24.8296 C   0  0  0  0  0  0
   -4.4429   52.0785   18.0845 H   0  0  0  0  0  0
   -3.2168   51.7996   16.8371 H   0  0  0  0  0  0
   -3.1768   53.2736   17.7931 H   0  0  0  0  0  0
   -0.6714   52.2509   17.9030 H   0  0  0  0  0  0
    0.8241   51.1677   19.5139 H   0  0  0  0  0  0
   -2.5851   49.5790   21.6108 H   0  0  0  0  0  0
   -4.0786   50.6524   19.9837 H   0  0  0  0  0  0
    3.5713   51.7340   20.7364 H   0  0  0  0  0  0
    2.6572   50.2635   20.8246 H   0  0  0  0  0  0
    3.8492   53.9416   24.8814 H   0  0  0  0  0  0
    4.6816   54.2955   27.1248 H   0  0  0  0  0  0
    0.9863   52.8705   28.7606 H   0  0  0  0  0  0
    0.1132   52.5240   26.5119 H   0  0  0  0  0  0
   -1.0665   50.1891   25.8301 H   0  0  0  0  0  0
   -2.6996   50.0971   27.6320 H   0  0  0  0  0  0
   -4.6259   51.6339   27.6577 H   0  0  0  0  0  0
   -4.9115   53.3125   25.8630 H   0  0  0  0  0  0
   -3.2639   53.4705   24.0557 H   0  0  0  0  0  0
  1  2  1  0  0  0
  1 36  1  0  0  0
  1 37  1  0  0  0
  1 38  1  0  0  0
  2  7  2  0  0  0
  2  3  1  0  0  0
  3  4  2  0  0  0
  3 39  1  0  0  0
  4  5  1  0  0  0
  4 40  1  0  0  0
  5  6  2  0  0  0
  5  8  1  0  0  0
  6  7  1  0  0  0
  6 41  1  0  0  0
  7 42  1  0  0  0
  8  9  2  0  0  0
  8 10  2  0  0  0
  8 11  1  0  0  0
 11 17  1  0  0  0
 11 12  1  0  0  0
 12 13  1  0  0  0
 12 14  1  0  0  0
 12 28  1  0  0  0
 14 15  1  0  0  0
 14 16  1  0  0  0
 14 21  1  0  0  0
 16 17  2  0  0  0
 16 19  1  0  0  0
 17 18  1  0  0  0
 18 43  1  0  0  0
 18 44  1  0  0  0
 19 20  3  0  0  0
 21 26  2  0  0  0
 21 22  1  0  0  0
 22 23  2  0  0  0
 22 45  1  0  0  0
 23 24  1  0  0  0
 23 46  1  0  0  0
 24 25  2  0  0  0
 24 27  1  0  0  0
 25 26  1  0  0  0
 25 47  1  0  0  0
 26 48  1  0  0  0
 28 29  2  0  0  0
 28 30  1  0  0  0
 30 35  2  0  0  0
 30 31  1  0  0  0
 31 32  2  0  0  0
 31 49  1  0  0  0
 32 33  1  0  0  0
 32 50  1  0  0  0
 33 34  2  0  0  0
 33 51  1  0  0  0
 34 35  1  0  0  0
 34 52  1  0  0  0
 35 53  1  0  0  0
M  END
> <i_i_glide_confnum>
16

> <i_i_glide_lignum>
4380

> <i_i_glide_posenum>
168

> <i_i_glide_rotatable_bonds>
6

> <i_m_Source_File_Index>
5562

> <b_m_subgroup_collapsed>
0

> <r_i_docking_score>
-3.60461

> <r_i_glide_ecoul>
-2.9835

> <r_i_glide_eff_state_penalty>
0

> <r_i_glide_einternal>
8.7649

> <r_i_glide_emodel>
-43.9754

> <r_i_glide_energy>
-40.0629

> <r_i_glide_erotb>
0.443447

> <r_i_glide_esite>
0

> <r_i_glide_evdw>
-37.0794

> <r_i_glide_gscore>
-3.60461

> <r_i_glide_hbond>
0

> <r_i_glide_ligand_efficiency>
-0.10923

> <r_i_glide_ligand_efficiency_ln>
-0.801646

> <r_i_glide_ligand_efficiency_sa>
-0.35036

> <r_i_glide_lipo>
-1.72716

> <r_i_glide_metal>
0

> <r_i_glide_rewards>
-0.0193919

> <s_i_glide_gridfile>
wee1_glide-grid

> <s_m_Source_File>
wee1_decoys_glide_SP.sdf

> <s_m_Source_Path>
/Users/zhangxujun/Desktop

> <s_m_entry_id>
5837

> <s_m_entry_name>
wee1_decoys_glide_SP.5562

> <s_m_subgroup_title>
wee1_decoys_glide_SP

> <s_m_subgroupid>
wee1_decoys_glide_SP


$$$$
