@<TRIPOS>MOLECULE
ZINC09280971_5475
62   66    1
SMALL
USER_CHARGES


@<TRIPOS>ATOM
      1 C1          5.6651   54.1242   13.6835 C.3       1 UNK         0.0000 
      2 C2          5.4347   53.9873   15.1769 C.ar      1 UNK         0.0000 
      3 C3          4.5037   53.0576   15.6496 C.ar      1 UNK         0.0000 
      4 C4          4.2490   52.9107   17.0134 C.ar      1 UNK         0.0000 
      5 C5          4.9789   53.7278   17.8848 C.ar      1 UNK         0.0000 
      6 C6          5.9303   54.6726   17.4443 C.ar      1 UNK         0.0000 
      7 C7          6.1497   54.8060   16.0612 C.ar      1 UNK         0.0000 
      8 C8          6.4574   55.2861   18.6324 C.2       1 UNK         0.0000 
      9 C9          5.7695   54.6785   19.6953 C.2       1 UNK         0.0000 
     10 O10         4.8843   53.7342   19.2409 O.3       1 UNK         0.0000 
     11 C11         5.8620   54.8964   21.1260 C.2       1 UNK         0.0000 
     12 O12         6.7034   55.6623   21.6022 O.2       1 UNK         0.0000 
     13 N13         4.9472   54.1902   21.8342 N.am      1 UNK         0.0000 
     14 C14         4.7399   54.1528   23.2139 C.2       1 UNK         0.0000 
     15 C15         3.5530   53.7421   23.8673 C.2       1 UNK         0.0000 
     16 C16         3.6687   53.9093   25.2886 C.2       1 UNK         0.0000 
     17 C17         4.9500   54.3486   25.6691 C.2       1 UNK         0.0000 
     18 S18         5.9953   54.6155   24.3295 S.3       1 UNK         0.0000 
     19 C19         5.4236   54.6216   27.0883 C.3       1 UNK         0.0000 
     20 C20         4.4358   53.9857   28.0882 C.3       1 UNK         0.0000 
     21 H21         4.6038   52.9045   28.0938 H         1 UNK         0.0000 
     22 C22         2.9838   54.3064   27.6980 C.3       1 UNK         0.0000 
     23 C23         2.5857   53.6630   26.3572 C.3       1 UNK         0.0000 
     24 C24         4.7438   54.4953   29.5043 C.3       1 UNK         0.0000 
     25 C25         2.4122   53.1724   23.1396 C.2       1 UNK         0.0000 
     26 O26         2.4859   52.8949   21.9415 O.2       1 UNK         0.0000 
     27 N27         1.2992   52.9274   23.8517 N.am      1 UNK         0.0000 
     28 C28         0.0892   52.2710   23.3552 C.3       1 UNK         0.0000 
     29 H29         0.0264   52.4863   22.2838 H         1 UNK         0.0000 
     30 C30        -1.1816   52.8091   24.0430 C.3       1 UNK         0.0000 
     31 C31        -1.2801   52.2075   25.4572 C.3       1 UNK         0.0000 
     32 S32        -0.4978   50.5062   25.3186 S.o2      1 UNK         0.0000 
     33 O33        -1.5386   49.4743   25.2817 O.2       1 UNK         0.0000 
     34 O34         0.6159   50.4306   26.2680 O.2       1 UNK         0.0000 
     35 C35         0.1471   50.7558   23.5754 C.3       1 UNK         0.0000 
     36 C36         7.5147   56.3720   18.6725 C.3       1 UNK         0.0000 
     37 H37         6.4675   53.4621   13.3560 H         1 UNK         0.0000 
     38 H38         4.7612   53.8803   13.1242 H         1 UNK         0.0000 
     39 H39         5.9273   55.1497   13.4197 H         1 UNK         0.0000 
     40 H40         3.9721   52.4285   14.9507 H         1 UNK         0.0000 
     41 H41         3.5439   52.1779   17.3826 H         1 UNK         0.0000 
     42 H42         6.8674   55.5227   15.6912 H         1 UNK         0.0000 
     43 H43         4.2213   53.7364   21.2900 H         1 UNK         0.0000 
     44 H44         6.4237   54.2113   27.2458 H         1 UNK         0.0000 
     45 H45         5.4937   55.6964   27.2469 H         1 UNK         0.0000 
     46 H46         2.3098   53.9486   28.4764 H         1 UNK         0.0000 
     47 H47         2.8223   55.3853   27.6855 H         1 UNK         0.0000 
     48 H48         1.6271   54.0965   26.0784 H         1 UNK         0.0000 
     49 H49         2.4277   52.5920   26.4965 H         1 UNK         0.0000 
     50 H50         4.3859   55.5101   29.6599 H         1 UNK         0.0000 
     51 H51         4.2955   53.8609   30.2657 H         1 UNK         0.0000 
     52 H52         5.8185   54.5035   29.6803 H         1 UNK         0.0000 
     53 H53         1.3077   53.1623   24.8311 H         1 UNK         0.0000 
     54 H54        -2.0546   52.5236   23.4537 H         1 UNK         0.0000 
     55 H55        -1.1889   53.9002   24.0640 H         1 UNK         0.0000 
     56 H56        -2.2779   52.1209   25.8877 H         1 UNK         0.0000 
     57 H57        -0.6673   52.7853   26.1495 H         1 UNK         0.0000 
     58 H58         1.0989   50.2424   23.4434 H         1 UNK         0.0000 
     59 H59        -0.5942   50.2954   22.9238 H         1 UNK         0.0000 
     60 H60         8.1714   56.3356   17.7985 H         1 UNK         0.0000 
     61 H61         7.0627   57.3666   18.6922 H         1 UNK         0.0000 
     62 H62         8.1629   56.2936   19.5475 H         1 UNK         0.0000 
@<TRIPOS>BOND
     1    1    2 1    
     2    1   37 1    
     3    1   38 1    
     4    1   39 1    
     5    2    7 ar   
     6    2    3 ar   
     7    3    4 ar   
     8    3   40 1    
     9    4    5 ar   
    10    4   41 1    
    11    5   10 1    
    12    5    6 ar   
    13    6    7 ar   
    14    6    8 1    
    15    7   42 1    
    16    8    9 2    
    17    8   36 1    
    18    9   10 1    
    19    9   11 1    
    20   11   12 2    
    21   11   13 am   BACKBONE|DICT|INTERRES
    22   13   14 am   BACKBONE|DICT|INTERRES
    23   13   43 1    
    24   14   18 1    
    25   14   15 2    
    26   15   16 1    
    27   15   25 1    
    28   16   23 1    
    29   16   17 2    
    30   17   18 1    
    31   17   19 1    
    32   19   20 1    
    33   19   44 1    
    34   19   45 1    
    35   20   21 1    
    36   20   22 1    
    37   20   24 1    
    38   22   23 1    
    39   22   46 1    
    40   22   47 1    
    41   23   48 1    
    42   23   49 1    
    43   24   50 1    
    44   24   51 1    
    45   24   52 1    
    46   25   26 2    
    47   25   27 am   BACKBONE|DICT|INTERRES
    48   27   28 1    
    49   27   53 1    
    50   28   29 1    
    51   28   35 1    
    52   28   30 1    
    53   30   31 1    
    54   30   54 1    
    55   30   55 1    
    56   31   32 1    
    57   31   56 1    
    58   31   57 1    
    59   32   33 2    
    60   32   34 2    
    61   32   35 1    
    62   35   58 1    
    63   35   59 1    
    64   36   60 1    
    65   36   61 1    
    66   36   62 1    
@<TRIPOS>SUBSTRUCTURE
     1 UNK         1 GROUP             0       ****    0 ROOT    
