ZINC20170508_6110
                    3D
 Schrodinger Suite 2024-2.
 57 60  0  0  1  0            999 V2000
    6.9641   55.2591   17.7934 C   0  0  0  0  0  0
    6.7748   55.1798   19.2967 C   0  0  0  0  0  0
    5.6662   54.5187   19.8227 C   0  0  0  0  0  0
    5.5044   54.4187   21.2017 C   0  0  0  0  0  0
    6.4541   54.9782   22.0763 C   0  0  0  0  0  0
    7.5529   55.6543   21.5304 C   0  0  0  0  0  0
    7.7217   55.7418   20.1514 C   0  0  0  0  0  0
    6.3038   54.8966   23.5704 C   0  0  0  0  0  0
    7.1044   55.3746   24.3734 O   0  0  0  0  0  0
    5.0012   54.2782   24.0782 C   0  0  0  0  0  0
    4.7200   54.5686   25.8606 S   0  0  0  0  0  0
    3.1806   53.7087   26.0926 C   0  0  0  0  0  0
    2.8283   52.9658   27.1608 C   0  0  0  0  0  0
    1.4772   52.2257   27.2164 C   0  0  2  0  0  0
    1.7093   51.1632   27.2829 H   0  0  0  0  0  0
    0.6526   52.4425   25.9163 C   0  0  0  0  0  0
    1.1048   53.2487   24.9208 C   0  0  0  0  0  0
    2.3296   53.8523   25.0247 N   0  0  0  0  0  0
    0.4294   53.5379   23.5924 C   0  0  0  0  0  0
   -0.6090   51.7367   25.7810 C   0  0  0  0  0  0
   -1.6623   52.3234   25.5249 O   0  0  0  0  0  0
   -0.4628   50.3986   25.8416 N   0  0  0  0  0  0
   -1.4135   49.3945   25.5954 C   0  0  0  0  0  0
   -2.8035   49.5753   25.6742 C   0  0  0  0  0  0
   -3.6561   48.4998   25.4272 C   0  0  0  0  0  0
   -3.1248   47.2514   25.1082 C   0  0  0  0  0  0
   -1.7485   47.0683   25.0295 C   0  0  0  0  0  0
   -0.8954   48.1377   25.2799 C   0  0  0  0  0  0
   -3.9475   46.2026   24.8761 F   0  0  0  0  0  0
    0.7372   52.6189   28.4745 C   0  0  0  0  0  0
   -0.0638   51.9153   29.3474 C   0  0  0  0  0  0
   -0.3161   52.7594   30.4165 C   0  0  0  0  0  0
    0.2857   53.9703   30.1322 C   0  0  0  0  0  0
    0.9003   53.8940   28.9290 O   0  0  0  0  0  0
    3.6761   52.8967   28.3104 C   0  0  0  0  0  0
    4.3044   52.8235   29.2796 N   0  0  0  0  0  0
    6.3965   56.0919   17.3785 H   0  0  0  0  0  0
    8.0157   55.3774   17.5303 H   0  0  0  0  0  0
    6.6244   54.3391   17.3154 H   0  0  0  0  0  0
    4.9332   54.0726   19.1649 H   0  0  0  0  0  0
    4.6349   53.8862   21.5574 H   0  0  0  0  0  0
    8.3043   56.0971   22.1686 H   0  0  0  0  0  0
    8.5909   56.2448   19.7513 H   0  0  0  0  0  0
    4.1873   54.7409   23.5231 H   0  0  0  0  0  0
    5.0084   53.2124   23.8628 H   0  0  0  0  0  0
    2.5980   54.4910   24.2927 H   0  0  0  0  0  0
   -0.0754   54.4962   23.6819 H   0  0  0  0  0  0
    1.1456   53.5892   22.7702 H   0  0  0  0  0  0
   -0.3150   52.7914   23.3169 H   0  0  0  0  0  0
    0.4695   50.0561   26.0086 H   0  0  0  0  0  0
   -3.2346   50.5258   25.9469 H   0  0  0  0  0  0
   -4.7255   48.6291   25.4961 H   0  0  0  0  0  0
   -1.3405   46.0983   24.7946 H   0  0  0  0  0  0
    0.1730   47.9776   25.2379 H   0  0  0  0  0  0
   -0.3942   50.8937   29.2425 H   0  0  0  0  0  0
   -0.8956   52.5007   31.2817 H   0  0  0  0  0  0
    0.3433   54.9179   30.6477 H   0  0  0  0  0  0
  1  2  1  0  0  0
  1 37  1  0  0  0
  1 38  1  0  0  0
  1 39  1  0  0  0
  2  7  2  0  0  0
  2  3  1  0  0  0
  3  4  2  0  0  0
  3 40  1  0  0  0
  4  5  1  0  0  0
  4 41  1  0  0  0
  5  6  2  0  0  0
  5  8  1  0  0  0
  6  7  1  0  0  0
  6 42  1  0  0  0
  7 43  1  0  0  0
  8  9  2  0  0  0
  8 10  1  0  0  0
 10 11  1  0  0  0
 10 44  1  0  0  0
 10 45  1  0  0  0
 11 12  1  0  0  0
 12 18  1  0  0  0
 12 13  2  0  0  0
 13 14  1  0  0  0
 13 35  1  0  0  0
 14 15  1  0  0  0
 14 16  1  0  0  0
 14 30  1  0  0  0
 16 17  2  0  0  0
 16 20  1  0  0  0
 17 18  1  0  0  0
 17 19  1  0  0  0
 18 46  1  0  0  0
 19 47  1  0  0  0
 19 48  1  0  0  0
 19 49  1  0  0  0
 20 21  2  0  0  0
 20 22  1  0  0  0
 22 23  1  0  0  0
 22 50  1  0  0  0
 23 28  2  0  0  0
 23 24  1  0  0  0
 24 25  2  0  0  0
 24 51  1  0  0  0
 25 26  1  0  0  0
 25 52  1  0  0  0
 26 27  2  0  0  0
 26 29  1  0  0  0
 27 28  1  0  0  0
 27 53  1  0  0  0
 28 54  1  0  0  0
 30 34  1  0  0  0
 30 31  2  0  0  0
 31 32  1  0  0  0
 31 55  1  0  0  0
 32 33  2  0  0  0
 32 56  1  0  0  0
 33 34  1  0  0  0
 33 57  1  0  0  0
 35 36  3  0  0  0
M  END
> <i_i_glide_confnum>
223

> <i_i_glide_lignum>
6111

> <i_i_glide_posenum>
179

> <i_i_glide_rotatable_bonds>
9

> <i_m_Source_File_Index>
3835

> <b_m_subgroup_collapsed>
0

> <r_i_docking_score>
-5.72753

> <r_i_glide_ecoul>
-4.90233

> <r_i_glide_eff_state_penalty>
0

> <r_i_glide_einternal>
14.2828

> <r_i_glide_emodel>
-58.8823

> <r_i_glide_energy>
-48.575

> <r_i_glide_erotb>
0.684224

> <r_i_glide_esite>
-0.125395

> <r_i_glide_evdw>
-43.6726

> <r_i_glide_gscore>
-5.72753

> <r_i_glide_hbond>
-0.0434391

> <r_i_glide_ligand_efficiency>
-0.163644

> <r_i_glide_ligand_efficiency_ln>
-1.25732

> <r_i_glide_ligand_efficiency_sa>
-0.535289

> <r_i_glide_lipo>
-2.53375

> <r_i_glide_metal>
0

> <r_i_glide_rewards>
-0.790187

> <s_i_glide_gridfile>
wee1_glide-grid

> <s_m_Source_File>
wee1_decoys_glide_SP.sdf

> <s_m_Source_Path>
/Users/zhangxujun/Desktop

> <s_m_entry_id>
4110

> <s_m_entry_name>
wee1_decoys_glide_SP.3835

> <s_m_subgroup_title>
wee1_decoys_glide_SP

> <s_m_subgroupid>
wee1_decoys_glide_SP


$$$$
