ZINC43410347_1849
                    3D
 Schrodinger Suite 2024-2.
 35 37  0  0  1  0            999 V2000
    5.0127   54.0968   24.4830 C   0  0  0  0  0  0
    3.8924   53.7340   23.7264 C   0  0  0  0  0  0
    2.7001   53.4584   24.4275 C   0  0  0  0  0  0
    2.5791   53.7163   25.7501 N   0  0  0  0  0  0
    3.6676   54.0607   26.4789 C   0  0  0  0  0  0
    4.9268   54.2012   25.8746 C   0  0  0  0  0  0
    6.1441   54.3761   26.6522 C   0  0  0  0  0  0
    7.1046   54.4975   27.2781 N   0  0  0  0  0  0
    3.4453   54.3831   28.2265 S   0  0  0  0  0  0
    2.0485   53.4549   28.8100 C   0  0  0  0  0  0
    1.6805   53.7425   30.0813 N   0  0  0  0  0  0
    0.6390   53.0419   30.5847 C   0  0  0  0  0  0
   -0.0610   52.0932   29.8358 C   0  0  0  0  0  0
    0.4029   51.8480   28.5407 C   0  0  0  0  0  0
    1.4625   52.5125   28.0244 N   0  0  0  0  0  0
   -0.1961   50.8995   27.7142 N   0  0  0  0  0  0
    0.3044   53.2977   31.9064 N   0  0  0  0  0  0
    1.5078   52.7959   23.7482 C   0  0  0  0  0  0
    1.4984   53.0459   22.2401 C   0  0  0  0  0  0
    2.8683   52.7227   21.6213 C   0  0  0  0  0  0
    3.9574   53.6442   22.2019 C   0  0  0  0  0  0
    5.9594   54.2495   23.9812 H   0  0  0  0  0  0
   -0.8946   51.5448   30.2525 H   0  0  0  0  0  0
   -0.8875   50.2505   28.0838 H   0  0  0  0  0  0
    0.2210   50.7240   26.8141 H   0  0  0  0  0  0
   -0.4045   52.7135   32.3623 H   0  0  0  0  0  0
    0.8144   53.9947   32.4215 H   0  0  0  0  0  0
    1.5789   51.7232   23.9266 H   0  0  0  0  0  0
    0.5686   53.1188   24.1996 H   0  0  0  0  0  0
    0.7137   52.4611   21.7605 H   0  0  0  0  0  0
    1.2546   54.0951   22.0813 H   0  0  0  0  0  0
    3.1240   51.6776   21.8052 H   0  0  0  0  0  0
    2.8272   52.8401   20.5364 H   0  0  0  0  0  0
    3.8121   54.6492   21.8006 H   0  0  0  0  0  0
    4.9446   53.3206   21.8688 H   0  0  0  0  0  0
  1  6  2  0  0  0
  1  2  1  0  0  0
  1 22  1  0  0  0
  2 21  1  0  0  0
  2  3  2  0  0  0
  3  4  1  0  0  0
  3 18  1  0  0  0
  4  5  2  0  0  0
  5  6  1  0  0  0
  5  9  1  0  0  0
  6  7  1  0  0  0
  7  8  3  0  0  0
  9 10  1  0  0  0
 10 15  2  0  0  0
 10 11  1  0  0  0
 11 12  2  0  0  0
 12 13  1  0  0  0
 12 17  1  0  0  0
 13 14  2  0  0  0
 13 23  1  0  0  0
 14 15  1  0  0  0
 14 16  1  0  0  0
 16 24  1  0  0  0
 16 25  1  0  0  0
 17 26  1  0  0  0
 17 27  1  0  0  0
 18 19  1  0  0  0
 18 28  1  0  0  0
 18 29  1  0  0  0
 19 20  1  0  0  0
 19 30  1  0  0  0
 19 31  1  0  0  0
 20 21  1  0  0  0
 20 32  1  0  0  0
 20 33  1  0  0  0
 21 34  1  0  0  0
 21 35  1  0  0  0
M  END
> <i_i_glide_confnum>
1

> <i_i_glide_lignum>
1850

> <i_i_glide_posenum>
19

> <i_i_glide_rotatable_bonds>
3

> <i_m_Source_File_Index>
5938

> <b_m_subgroup_collapsed>
0

> <r_i_docking_score>
-7.16977

> <r_i_glide_ecoul>
-7.53561

> <r_i_glide_eff_state_penalty>
0

> <r_i_glide_einternal>
3.05713

> <r_i_glide_emodel>
-61.0017

> <r_i_glide_energy>
-42.6811

> <r_i_glide_erotb>
0.412251

> <r_i_glide_esite>
-0.179099

> <r_i_glide_evdw>
-35.1455

> <r_i_glide_gscore>
-7.16977

> <r_i_glide_hbond>
-0.451751

> <r_i_glide_ligand_efficiency>
-0.341418

> <r_i_glide_ligand_efficiency_ln>
-1.77271

> <r_i_glide_ligand_efficiency_sa>
-0.941946

> <r_i_glide_lipo>
-1.89105

> <r_i_glide_metal>
0

> <r_i_glide_rewards>
-2.1725

> <s_i_glide_gridfile>
wee1_glide-grid

> <s_m_Source_File>
wee1_decoys_glide_SP.sdf

> <s_m_Source_Path>
/Users/zhangxujun/Desktop

> <s_m_entry_id>
6213

> <s_m_entry_name>
wee1_decoys_glide_SP.5938

> <s_m_subgroup_title>
wee1_decoys_glide_SP

> <s_m_subgroupid>
wee1_decoys_glide_SP


$$$$
