ZINC64742813_2790
                    3D
 Schrodinger Suite 2024-2.
 53 56  0  0  1  0            999 V2000
    4.4679   53.6029   17.6804 C   0  0  0  0  0  0
    3.6565   52.8970   18.7502 C   0  0  0  0  0  0
    3.8925   53.1629   20.0990 C   0  0  0  0  0  0
    3.1610   52.4956   21.0800 C   0  0  0  0  0  0
    2.1896   51.5550   20.7242 C   0  0  0  0  0  0
    1.9727   51.2502   19.3652 C   0  0  0  0  0  0
    2.7040   51.9401   18.3918 C   0  0  0  0  0  0
    1.0304   50.1451   18.9079 C   0  0  0  0  0  0
    1.5120   50.9483   21.7882 N   0  0  0  0  0  0
    0.1797   50.9693   21.9997 C   0  0  0  0  0  0
   -0.6451   51.3964   21.1908 O   0  0  0  0  0  0
   -0.3048   50.4869   23.3919 C   0  0  1  0  0  0
   -1.2916   50.9462   23.5082 H   0  0  0  0  0  0
   -0.4571   48.9373   23.3772 C   0  0  0  0  0  0
   -0.8407   48.3413   24.7524 C   0  0  0  0  0  0
   -1.3757   47.2404   24.8667 O   0  0  0  0  0  0
   -0.5015   49.0913   25.8256 N   0  0  0  0  0  0
    0.1122   50.2990   25.8982 C   0  0  0  0  0  0
    0.2894   50.8491   27.0384 N   0  0  0  0  0  0
    0.8873   52.1043   27.0635 C   0  0  0  0  0  0
    1.1048   52.8968   26.0802 N   0  0  0  0  0  0
    0.7634   52.5260   24.7829 C   0  0  0  0  0  0
    0.6507   53.2903   23.8289 O   0  0  0  0  0  0
    0.5901   50.9731   24.5846 C   0  0  2  0  0  0
    1.6049   50.6122   24.4324 H   0  0  0  0  0  0
    1.3915   52.6705   28.7074 S   0  0  0  0  0  0
    2.0964   54.3325   28.3867 C   0  0  0  0  0  0
    3.5519   54.2804   27.9348 C   0  0  0  0  0  0
    4.5694   54.1146   28.8794 C   0  0  0  0  0  0
    5.9062   54.0971   28.4814 C   0  0  0  0  0  0
    6.2377   54.2399   27.1353 C   0  0  0  0  0  0
    5.2303   54.4133   26.1868 C   0  0  0  0  0  0
    3.8926   54.4388   26.5844 C   0  0  0  0  0  0
    5.5514   54.5667   24.8828 F   0  0  0  0  0  0
    3.9304   54.4737   17.3048 H   0  0  0  0  0  0
    5.4383   53.9191   18.0646 H   0  0  0  0  0  0
    4.6675   52.9303   16.8462 H   0  0  0  0  0  0
    4.6318   53.8941   20.3898 H   0  0  0  0  0  0
    3.3422   52.7311   22.1190 H   0  0  0  0  0  0
    2.5646   51.6986   17.3479 H   0  0  0  0  0  0
    0.0297   50.5380   18.7337 H   0  0  0  0  0  0
    1.3929   49.6860   17.9880 H   0  0  0  0  0  0
    0.9766   49.3417   19.6411 H   0  0  0  0  0  0
    2.0916   50.6918   22.5712 H   0  0  0  0  0  0
   -1.0210   48.5452   22.5299 H   0  0  0  0  0  0
    0.5425   48.5206   23.2331 H   0  0  0  0  0  0
   -0.7877   48.6904   26.7179 H   0  0  0  0  0  0
    1.4850   54.8957   27.6812 H   0  0  0  0  0  0
    2.0425   54.9005   29.3157 H   0  0  0  0  0  0
    4.3264   54.0019   29.9258 H   0  0  0  0  0  0
    6.6864   53.9879   29.2236 H   0  0  0  0  0  0
    7.2725   54.2214   26.8288 H   0  0  0  0  0  0
    3.1259   54.5786   25.8368 H   0  0  0  0  0  0
  1  2  1  0  0  0
  1 35  1  0  0  0
  1 36  1  0  0  0
  1 37  1  0  0  0
  2  7  2  0  0  0
  2  3  1  0  0  0
  3  4  2  0  0  0
  3 38  1  0  0  0
  4  5  1  0  0  0
  4 39  1  0  0  0
  5  6  2  0  0  0
  5  9  1  0  0  0
  6  7  1  0  0  0
  6  8  1  0  0  0
  7 40  1  0  0  0
  8 41  1  0  0  0
  8 42  1  0  0  0
  8 43  1  0  0  0
  9 10  1  0  0  0
  9 44  1  0  0  0
 10 11  2  0  0  0
 10 12  1  0  0  0
 12 13  1  0  0  0
 12 24  1  0  0  0
 12 14  1  0  0  0
 14 15  1  0  0  0
 14 45  1  0  0  0
 14 46  1  0  0  0
 15 16  2  0  0  0
 15 17  1  0  0  0
 17 18  1  0  0  0
 17 47  1  0  0  0
 18 24  1  0  0  0
 18 19  2  0  0  0
 19 20  1  0  0  0
 20 21  2  0  0  0
 20 26  1  0  0  0
 21 22  1  0  0  0
 22 23  2  0  0  0
 22 24  1  0  0  0
 24 25  1  0  0  0
 26 27  1  0  0  0
 27 28  1  0  0  0
 27 48  1  0  0  0
 27 49  1  0  0  0
 28 33  2  0  0  0
 28 29  1  0  0  0
 29 30  2  0  0  0
 29 50  1  0  0  0
 30 31  1  0  0  0
 30 51  1  0  0  0
 31 32  2  0  0  0
 31 52  1  0  0  0
 32 33  1  0  0  0
 32 34  1  0  0  0
 33 53  1  0  0  0
M  END
> <i_i_glide_confnum>
128

> <i_i_glide_lignum>
2791

> <i_i_glide_posenum>
184

> <i_i_glide_rotatable_bonds>
6

> <i_m_Source_File_Index>
5375

> <b_m_subgroup_collapsed>
0

> <r_i_docking_score>
-5.68113

> <r_i_glide_ecoul>
-3.80597

> <r_i_glide_eff_state_penalty>
0

> <r_i_glide_einternal>
4.81755

> <r_i_glide_emodel>
-62.3698

> <r_i_glide_energy>
-47.8883

> <r_i_glide_erotb>
0.58798

> <r_i_glide_esite>
-0.202959

> <r_i_glide_evdw>
-44.0824

> <r_i_glide_gscore>
-5.68113

> <r_i_glide_hbond>
-0.16

> <r_i_glide_ligand_efficiency>
-0.177535

> <r_i_glide_ligand_efficiency_ln>
-1.27216

> <r_i_glide_ligand_efficiency_sa>
-0.56364

> <r_i_glide_lipo>
-2.02387

> <r_i_glide_metal>
0

> <r_i_glide_rewards>
-1.10727

> <s_i_glide_gridfile>
wee1_glide-grid

> <s_m_Source_File>
wee1_decoys_glide_SP.sdf

> <s_m_Source_Path>
/Users/zhangxujun/Desktop

> <s_m_entry_id>
5650

> <s_m_entry_name>
wee1_decoys_glide_SP.5375

> <s_m_subgroup_title>
wee1_decoys_glide_SP

> <s_m_subgroupid>
wee1_decoys_glide_SP


$$$$
