@<TRIPOS>MOLECULE
ZINC28156588_4625
57   61    1
SMALL
USER_CHARGES


@<TRIPOS>ATOM
      1 C1          0.9998   52.5985   31.6714 C.3       1 UNK         0.0000 
      2 C2          0.3866   52.4679   30.2899 C.ar      1 UNK         0.0000 
      3 C3          1.0064   53.0633   29.1933 C.ar      1 UNK         0.0000 
      4 C4          0.4657   52.8971   27.9213 C.ar      1 UNK         0.0000 
      5 C5         -0.7049   52.1436   27.7362 C.ar      1 UNK         0.0000 
      6 C6         -1.3075   51.5420   28.8408 C.ar      1 UNK         0.0000 
      7 C7         -0.7597   51.6968   30.1037 C.ar      1 UNK         0.0000 
      8 C8         -1.2751   51.9585   26.3950 C.2       1 UNK         0.0000 
      9 N9         -0.7115   52.3343   25.3268 N.2       1 UNK         0.0000 
     10 N10        -1.4512   51.9516   24.2000 N.pl3     1 UNK         0.0000 
     11 C11        -2.5885   51.1324   24.6027 C.3       1 UNK         0.0000 
     12 H12        -3.5091   51.4814   24.1335 H         1 UNK         0.0000 
     13 C13        -2.6198   51.3035   26.1204 C.3       1 UNK         0.0000 
     14 C14        -2.3433   49.6828   24.1984 C.2       1 UNK         0.0000 
     15 C15        -1.3510   48.8141   24.6510 C.2       1 UNK         0.0000 
     16 C16        -1.3137   47.5931   23.9881 C.2       1 UNK         0.0000 
     17 C17        -2.3214   47.4636   23.0477 C.2       1 UNK         0.0000 
     18 S18        -3.2962   48.8910   22.9687 S.3       1 UNK         0.0000 
     19 C19        -0.8702   52.0131   22.8927 C.2       1 UNK         0.0000 
     20 N20        -1.3654   51.5417   21.8265 N.am      1 UNK         0.0000 
     21 C21        -0.5626   51.6597   20.7213 C.2       1 UNK         0.0000 
     22 O22        -0.8762   51.2791   19.5969 O.2       1 UNK         0.0000 
     23 C23         0.7666   52.3583   21.0121 C.3       1 UNK         0.0000 
     24 H24         0.7268   53.2670   20.4217 H         1 UNK         0.0000 
     25 S25         0.7166   52.8129   22.7543 S.3       1 UNK         0.0000 
     26 C26         2.0178   51.5272   20.5828 C.3       1 UNK         0.0000 
     27 C27         3.4071   52.0537   21.0036 C.2       1 UNK         0.0000 
     28 O28         4.3877   51.3229   20.8848 O.2       1 UNK         0.0000 
     29 N29         3.4621   53.3007   21.5092 N.am      1 UNK         0.0000 
     30 C30         4.5853   53.9198   22.0327 C.ar      1 UNK         0.0000 
     31 C31         5.5051   54.5268   21.1765 C.ar      1 UNK         0.0000 
     32 C32         6.5732   55.2348   21.7133 C.ar      1 UNK         0.0000 
     33 C33         6.7203   55.3154   23.0973 C.ar      1 UNK         0.0000 
     34 C34         5.8235   54.6993   23.9775 C.ar      1 UNK         0.0000 
     35 C35         4.7345   54.0108   23.4223 C.ar      1 UNK         0.0000 
     36 C36         6.0124   54.8207   25.4629 C.2       1 UNK         0.0000 
     37 O37         7.0966   55.2968   25.8809 O.co2     1 UNK         0.0000 
     38 O38         5.0693   54.4584   26.2028 O.co2     1 UNK         0.0000 
     39 H39         2.0880   52.5641   31.6103 H         1 UNK         0.0000 
     40 H40         0.7040   53.5377   32.1399 H         1 UNK         0.0000 
     41 H41         0.7043   51.7733   32.3216 H         1 UNK         0.0000 
     42 H42         1.9151   53.6355   29.3171 H         1 UNK         0.0000 
     43 H43         0.9745   53.3544   27.0836 H         1 UNK         0.0000 
     44 H44        -2.1830   50.9149   28.7458 H         1 UNK         0.0000 
     45 H45        -1.2354   51.1955   30.9314 H         1 UNK         0.0000 
     46 H46        -2.7204   50.3448   26.6342 H         1 UNK         0.0000 
     47 H47        -3.4355   51.9541   26.4381 H         1 UNK         0.0000 
     48 H48        -0.6394   49.0830   25.4190 H         1 UNK         0.0000 
     49 H49        -0.5616   46.8532   24.2053 H         1 UNK         0.0000 
     50 H50        -2.5242   46.6269   22.3958 H         1 UNK         0.0000 
     51 H51         2.0336   51.4026   19.4986 H         1 UNK         0.0000 
     52 H52         1.9310   50.5231   20.9995 H         1 UNK         0.0000 
     53 H53         2.5878   53.7804   21.6570 H         1 UNK         0.0000 
     54 H54         5.3796   54.4718   20.1042 H         1 UNK         0.0000 
     55 H55         7.2859   55.7206   21.0630 H         1 UNK         0.0000 
     56 H56         7.5338   55.8989   23.4944 H         1 UNK         0.0000 
     57 H57         4.0018   53.5494   24.0717 H         1 UNK         0.0000 
@<TRIPOS>BOND
     1    1    2 1    
     2    1   39 1    
     3    1   40 1    
     4    1   41 1    
     5    2    7 ar   
     6    2    3 ar   
     7    3    4 ar   
     8    3   42 1    
     9    4    5 ar   
    10    4   43 1    
    11    5    6 ar   
    12    5    8 1    
    13    6    7 ar   
    14    6   44 1    
    15    7   45 1    
    16    8   13 1    
    17    8    9 2    
    18    9   10 1    
    19   10   11 1    
    20   10   19 1    
    21   11   12 1    
    22   11   13 1    
    23   11   14 1    
    24   13   46 1    
    25   13   47 1    
    26   14   18 1    
    27   14   15 2    
    28   15   16 1    
    29   15   48 1    
    30   16   17 2    
    31   16   49 1    
    32   17   18 1    
    33   17   50 1    
    34   19   25 1    
    35   19   20 2    BACKBONE|DICT|INTERRES
    36   20   21 am   BACKBONE|DICT|INTERRES
    37   21   22 2    
    38   21   23 1    
    39   23   24 1    
    40   23   25 1    
    41   23   26 1    
    42   26   27 1    
    43   26   51 1    
    44   26   52 1    
    45   27   28 2    
    46   27   29 am   BACKBONE|DICT|INTERRES
    47   29   30 1    
    48   29   53 1    
    49   30   35 ar   
    50   30   31 ar   
    51   31   32 ar   
    52   31   54 1    
    53   32   33 ar   
    54   32   55 1    
    55   33   34 ar   
    56   33   56 1    
    57   34   35 ar   
    58   34   36 1    
    59   35   57 1    
    60   36   37 2    
    61   36   38 1    
@<TRIPOS>SUBSTRUCTURE
     1 UNK         1 GROUP             0       ****    0 ROOT    
