@<TRIPOS>MOLECULE
ZINC13018473_3011
60   63    1
SMALL
USER_CHARGES


@<TRIPOS>ATOM
      1 C1          1.7828   53.1462   23.4957 C.3       1 UNK         0.0000 
      2 C2          2.2946   53.4010   24.9145 C.2       1 UNK         0.0000 
      3 C3          1.7793   52.9369   26.0987 C.2       1 UNK         0.0000 
      4 C4          2.5508   53.1412   27.4446 C.3       1 UNK         0.0000 
      5 H5          2.9716   52.1629   27.6820 H         1 UNK         0.0000 
      6 C6          3.7698   54.0635   27.2394 C.2       1 UNK         0.0000 
      7 C7          4.1906   54.4397   26.0161 C.2       1 UNK         0.0000 
      8 N8          3.4822   54.0956   24.8979 N.pl3     1 UNK         0.0000 
      9 S9          5.6477   55.4141   25.6825 S.3       1 UNK         0.0000 
     10 C10         6.6699   54.3117   24.6695 C.3       1 UNK         0.0000 
     11 C11         6.3036   54.3460   23.1870 C.2       1 UNK         0.0000 
     12 O12         5.3460   53.6855   22.7862 O.2       1 UNK         0.0000 
     13 N13         7.1042   55.0934   22.4062 N.am      1 UNK         0.0000 
     14 C14         7.0170   55.3099   21.0219 C.ar      1 UNK         0.0000 
     15 C15         8.1984   55.6968   20.3884 C.ar      1 UNK         0.0000 
     16 C16         8.2119   55.9393   19.0196 C.ar      1 UNK         0.0000 
     17 C17         7.0370   55.8074   18.2848 C.ar      1 UNK         0.0000 
     18 C18         5.8487   55.4327   18.9070 C.ar      1 UNK         0.0000 
     19 C19         5.8342   55.1827   20.2768 C.ar      1 UNK         0.0000 
     20 C20         4.5051   54.4962   28.3782 C.1       1 UNK         0.0000 
     21 N21         5.1043   54.8893   29.2822 N.1       1 UNK         0.0000 
     22 C22         1.7077   53.5956   28.6421 C.2       1 UNK         0.0000 
     23 C23         1.0783   52.7840   29.6003 C.2       1 UNK         0.0000 
     24 C24         0.4782   53.6006   30.5404 C.2       1 UNK         0.0000 
     25 O25         0.7037   54.8965   30.2216 O.3       1 UNK         0.0000 
     26 C26         1.4258   54.8924   29.0724 C.2       1 UNK         0.0000 
     27 C27         0.5729   52.1202   26.1806 C.2       1 UNK         0.0000 
     28 O28         0.4876   51.1854   26.9781 O.2       1 UNK         0.0000 
     29 N29        -0.4280   52.4934   25.3545 N.am      1 UNK         0.0000 
     30 C30        -1.6842   51.8814   25.2116 C.ar      1 UNK         0.0000 
     31 C31        -2.4143   51.4106   26.3159 C.ar      1 UNK         0.0000 
     32 C32        -3.6614   50.8161   26.1286 C.ar      1 UNK         0.0000 
     33 C33        -4.1871   50.6933   24.8434 C.ar      1 UNK         0.0000 
     34 C34        -3.4655   51.1560   23.7433 C.ar      1 UNK         0.0000 
     35 C35        -2.2047   51.7542   23.9124 C.ar      1 UNK         0.0000 
     36 O36        -1.4426   52.2331   22.8595 O.3       1 UNK         0.0000 
     37 C37        -1.7744   51.8604   21.5288 C.3       1 UNK         0.0000 
     38 H38         1.1522   53.9729   23.1612 H         1 UNK         0.0000 
     39 H39         2.6093   53.0460   22.7853 H         1 UNK         0.0000 
     40 H40         1.2199   52.2157   23.4137 H         1 UNK         0.0000 
     41 H41         3.9176   54.2571   23.9990 H         1 UNK         0.0000 
     42 H42         6.5914   53.2973   25.0557 H         1 UNK         0.0000 
     43 H43         7.7060   54.6126   24.8035 H         1 UNK         0.0000 
     44 H44         7.9549   55.4389   22.8377 H         1 UNK         0.0000 
     45 H45         9.1107   55.8070   20.9560 H         1 UNK         0.0000 
     46 H46         9.1325   56.2281   18.5324 H         1 UNK         0.0000 
     47 H47         7.0470   55.9964   17.2200 H         1 UNK         0.0000 
     48 H48         4.9410   55.3321   18.3302 H         1 UNK         0.0000 
     49 H49         4.8975   54.9009   20.7345 H         1 UNK         0.0000 
     50 H50         1.0689   51.7030   29.6020 H         1 UNK         0.0000 
     51 H51        -0.0970   53.4047   31.4369 H         1 UNK         0.0000 
     52 H52         1.6906   55.8662   28.6873 H         1 UNK         0.0000 
     53 H53        -0.1974   53.1741   24.6468 H         1 UNK         0.0000 
     54 H54        -2.0219   51.4953   27.3192 H         1 UNK         0.0000 
     55 H55        -4.2135   50.4493   26.9814 H         1 UNK         0.0000 
     56 H56        -5.1548   50.2319   24.6998 H         1 UNK         0.0000 
     57 H57        -3.9032   51.0442   22.7652 H         1 UNK         0.0000 
     58 H58        -1.0010   52.2205   20.8497 H         1 UNK         0.0000 
     59 H59        -1.8299   50.7757   21.4172 H         1 UNK         0.0000 
     60 H60        -2.7184   52.3028   21.2144 H         1 UNK         0.0000 
@<TRIPOS>BOND
     1    1    2 1    
     2    1   38 1    
     3    1   39 1    
     4    1   40 1    
     5    2    8 1    
     6    2    3 2    
     7    3    4 1    
     8    3   27 1    
     9    4    5 1    
    10    4    6 1    
    11    4   22 1    
    12    6    7 2    
    13    6   20 1    
    14    7    8 1    
    15    7    9 1    
    16    8   41 1    
    17    9   10 1    
    18   10   11 1    
    19   10   42 1    
    20   10   43 1    
    21   11   12 2    
    22   11   13 am   BACKBONE|DICT|INTERRES
    23   13   14 1    
    24   13   44 1    
    25   14   19 ar   
    26   14   15 ar   
    27   15   16 ar   
    28   15   45 1    
    29   16   17 ar   
    30   16   46 1    
    31   17   18 ar   
    32   17   47 1    
    33   18   19 ar   
    34   18   48 1    
    35   19   49 1    
    36   20   21 3    
    37   22   26 2    
    38   22   23 1    
    39   23   24 2    
    40   23   50 1    
    41   24   25 1    
    42   24   51 1    
    43   25   26 1    
    44   26   52 1    
    45   27   28 2    
    46   27   29 am   BACKBONE|DICT|INTERRES
    47   29   30 1    
    48   29   53 1    
    49   30   35 ar   
    50   30   31 ar   
    51   31   32 ar   
    52   31   54 1    
    53   32   33 ar   
    54   32   55 1    
    55   33   34 ar   
    56   33   56 1    
    57   34   35 ar   
    58   34   57 1    
    59   35   36 1    
    60   36   37 1    
    61   37   58 1    
    62   37   59 1    
    63   37   60 1    
@<TRIPOS>SUBSTRUCTURE
     1 UNK         1 GROUP             0       ****    0 ROOT    
