@<TRIPOS>MOLECULE
ZINC24537987_728
60   63    1
SMALL
USER_CHARGES


@<TRIPOS>ATOM
      1 C1         -3.4967   46.7908   21.5878 C.2       1 UNK         0.0000 
      2 C2         -2.5944   47.0411   22.6264 C.2       1 UNK         0.0000 
      3 C3         -3.0247   47.9828   23.5658 C.2       1 UNK         0.0000 
      4 S4         -4.5989   48.5786   23.0857 S.3       1 UNK         0.0000 
      5 C5         -4.6482   47.5477   21.6972 C.2       1 UNK         0.0000 
      6 C6         -2.2787   48.5028   24.7901 C.3       1 UNK         0.0000 
      7 H7         -1.2224   48.2401   24.7017 H         1 UNK         0.0000 
      8 C8         -2.3804   50.0335   24.9972 C.3       1 UNK         0.0000 
      9 N9         -1.6747   50.4965   26.1922 N.am      1 UNK         0.0000 
     10 C10        -0.3981   50.9059   26.2269 C.2       1 UNK         0.0000 
     11 O11         0.3180   50.9336   25.2231 O.2       1 UNK         0.0000 
     12 C12         0.1234   51.3937   27.5939 C.3       1 UNK         0.0000 
     13 C13         1.6451   51.1511   27.7358 C.3       1 UNK         0.0000 
     14 C14         2.1470   51.7527   29.0621 C.3       1 UNK         0.0000 
     15 N15         1.8030   53.1830   29.1019 N.pl3     1 UNK         0.0000 
     16 C16         0.3708   53.5236   28.9721 C.3       1 UNK         0.0000 
     17 C17        -0.2038   52.8974   27.6873 C.3       1 UNK         0.0000 
     18 S18         3.0626   54.4056   29.2814 S.o2      1 UNK         0.0000 
     19 O19         2.4367   55.7305   29.2814 O.2       1 UNK         0.0000 
     20 O20         3.9044   53.9781   30.4015 O.2       1 UNK         0.0000 
     21 C21         4.0863   54.3158   27.8173 C.ar      1 UNK         0.0000 
     22 C22         3.5041   54.2205   26.5525 C.ar      1 UNK         0.0000 
     23 C23         4.3127   54.1817   25.4206 C.ar      1 UNK         0.0000 
     24 C24         5.7009   54.2316   25.5549 C.ar      1 UNK         0.0000 
     25 C25         6.2824   54.3283   26.8180 C.ar      1 UNK         0.0000 
     26 C26         5.4760   54.3763   27.9489 C.ar      1 UNK         0.0000 
     27 Cl27        6.7053   54.1598   24.1537 Cl        1 UNK         0.0000 
     28 N28        -2.7059   47.7580   26.0817 N.4       1 UNK         0.0000 
     29 C29        -4.1416   47.9528   26.6000 C.3       1 UNK         0.0000 
     30 C30        -4.2923   46.8761   27.6734 C.3       1 UNK         0.0000 
     31 C31        -3.2438   45.8033   27.3618 C.3       1 UNK         0.0000 
     32 C32        -2.4963   46.2408   26.1055 C.3       1 UNK         0.0000 
     33 H33        -3.3091   46.0944   20.7824 H         1 UNK         0.0000 
     34 H34        -1.6363   46.5478   22.6944 H         1 UNK         0.0000 
     35 H35        -5.5014   47.5613   21.0355 H         1 UNK         0.0000 
     36 H36        -1.9934   50.5428   24.1112 H         1 UNK         0.0000 
     37 H37        -3.4233   50.3447   25.0746 H         1 UNK         0.0000 
     38 H38        -2.1567   50.4057   27.0762 H         1 UNK         0.0000 
     39 H39        -0.4415   50.8419   28.3501 H         1 UNK         0.0000 
     40 H40         1.9046   50.0967   27.7153 H         1 UNK         0.0000 
     41 H41         2.1888   51.7006   26.9679 H         1 UNK         0.0000 
     42 H42         1.6951   51.2956   29.9394 H         1 UNK         0.0000 
     43 H43         3.2301   51.6468   29.1514 H         1 UNK         0.0000 
     44 H44        -0.1503   53.1660   29.8626 H         1 UNK         0.0000 
     45 H45         0.2666   54.6052   28.9595 H         1 UNK         0.0000 
     46 H46         0.3254   53.3931   26.8816 H         1 UNK         0.0000 
     47 H47        -1.2752   53.0877   27.6552 H         1 UNK         0.0000 
     48 H48         2.4310   54.1621   26.4468 H         1 UNK         0.0000 
     49 H49         3.8656   54.1033   24.4411 H         1 UNK         0.0000 
     50 H50         7.3553   54.3629   26.9292 H         1 UNK         0.0000 
     51 H51         5.9353   54.4621   28.9220 H         1 UNK         0.0000 
     52 H52        -4.2484   48.9749   26.9603 H         1 UNK         0.0000 
     53 H53        -4.8068   47.7957   25.7538 H         1 UNK         0.0000 
     54 H54        -4.1168   47.3092   28.6602 H         1 UNK         0.0000 
     55 H55        -5.3031   46.4651   27.6729 H         1 UNK         0.0000 
     56 H56        -3.7113   44.8311   27.2226 H         1 UNK         0.0000 
     57 H57        -2.5430   45.7047   28.1940 H         1 UNK         0.0000 
     58 H58        -2.9423   45.8626   25.1864 H         1 UNK         0.0000 
     59 H59        -1.4217   46.0567   26.1035 H         1 UNK         0.0000 
     60 H60        -2.0960   48.1194   26.8213 H         1 UNK         0.0000 
@<TRIPOS>BOND
     1    1    5 2    
     2    1    2 1    
     3    1   33 1    
     4    2    3 2    
     5    2   34 1    
     6    3    4 1    
     7    3    6 1    
     8    4    5 1    
     9    5   35 1    
    10    6    7 1    
    11    6    8 1    
    12    6   28 1    
    13    8    9 1    
    14    8   36 1    
    15    8   37 1    
    16    9   10 am   BACKBONE|DICT|INTERRES
    17    9   38 1    
    18   10   11 2    
    19   10   12 1    
    20   12   17 1    
    21   12   13 1    
    22   12   39 1    
    23   13   14 1    
    24   13   40 1    
    25   13   41 1    
    26   14   15 1    
    27   14   42 1    
    28   14   43 1    
    29   15   16 1    
    30   15   18 1    
    31   16   17 1    
    32   16   44 1    
    33   16   45 1    
    34   17   46 1    
    35   17   47 1    
    36   18   19 2    
    37   18   20 2    
    38   18   21 1    
    39   21   26 ar   
    40   21   22 ar   
    41   22   23 ar   
    42   22   48 1    
    43   23   24 ar   
    44   23   49 1    
    45   24   25 ar   
    46   24   27 1    
    47   25   26 ar   
    48   25   50 1    
    49   26   51 1    
    50   28   32 1    
    51   28   29 1    
    52   28   60 1    
    53   29   30 1    
    54   29   52 1    
    55   29   53 1    
    56   30   31 1    
    57   30   54 1    
    58   30   55 1    
    59   31   32 1    
    60   31   56 1    
    61   31   57 1    
    62   32   58 1    
    63   32   59 1    
@<TRIPOS>SUBSTRUCTURE
     1 UNK         1 GROUP             0       ****    0 ROOT    
