@<TRIPOS>MOLECULE
ZINC13124139_603
45   48    1
SMALL
USER_CHARGES


@<TRIPOS>ATOM
      1 C1          2.3415   53.4628   29.6726 C.2       1 UNK         0.0000 
      2 C2          3.5516   52.8803   29.2911 C.2       1 UNK         0.0000 
      3 C3          4.1992   53.7853   28.4616 C.2       1 UNK         0.0000 
      4 O4          3.4269   54.8963   28.3282 O.3       1 UNK         0.0000 
      5 C5          2.3019   54.7032   29.0604 C.2       1 UNK         0.0000 
      6 C6          5.5247   53.7756   27.7317 C.3       1 UNK         0.0000 
      7 N7          5.3414   53.8163   26.2784 N.am      1 UNK         0.0000 
      8 C8          5.9381   54.6884   25.4444 C.2       1 UNK         0.0000 
      9 O9          6.7042   55.5750   25.8241 O.2       1 UNK         0.0000 
     10 C10         5.6585   54.4954   24.0384 C.ar      1 UNK         0.0000 
     11 C11         6.5226   54.8966   23.0064 C.ar      1 UNK         0.0000 
     12 C12         5.8685   54.6386   21.8204 C.ar      1 UNK         0.0000 
     13 N13         4.6508   54.0945   22.1849 N.pl3     1 UNK         0.0000 
     14 N14         4.5363   54.0179   23.5266 N.2       1 UNK         0.0000 
     15 C15         3.5922   53.6215   21.2742 C.3       1 UNK         0.0000 
     16 H16         2.6682   54.0963   21.6015 H         1 UNK         0.0000 
     17 C17         3.9253   54.1178   19.8381 C.3       1 UNK         0.0000 
     18 C18         5.4328   54.1370   19.4986 C.3       1 UNK         0.0000 
     19 H19         5.7968   53.1072   19.5250 H         1 UNK         0.0000 
     20 N20         6.1891   54.8968   20.5013 N.pl3     1 UNK         0.0000 
     21 C21         5.6617   54.6016   18.0639 C.ar      1 UNK         0.0000 
     22 C22         5.6042   55.9620   17.7335 C.ar      1 UNK         0.0000 
     23 C23         5.7883   56.3743   16.4155 C.ar      1 UNK         0.0000 
     24 C24         6.0261   55.4341   15.4106 C.ar      1 UNK         0.0000 
     25 C25         6.0749   54.0705   15.7313 C.ar      1 UNK         0.0000 
     26 C26         5.8883   53.6627   17.0521 C.ar      1 UNK         0.0000 
     27 Cl27        6.3599   52.8680   14.5219 Cl        1 UNK         0.0000 
     28 Cl28        6.2538   55.9851   13.7874 Cl        1 UNK         0.0000 
     29 C29         3.3284   52.0963   21.3521 C.3       1 UNK         0.0000 
     30 F30         2.5348   51.6781   20.3669 F         1 UNK         0.0000 
     31 F31         4.4564   51.3892   21.2782 F         1 UNK         0.0000 
     32 F32         2.7043   51.7710   22.4818 F         1 UNK         0.0000 
     33 H33         1.5834   53.0322   30.3129 H         1 UNK         0.0000 
     34 H34         3.9190   51.9064   29.5788 H         1 UNK         0.0000 
     35 H35         1.5806   55.5065   29.0498 H         1 UNK         0.0000 
     36 H36         6.1775   54.5678   28.1047 H         1 UNK         0.0000 
     37 H37         6.0376   52.8400   27.9562 H         1 UNK         0.0000 
     38 H38         4.7697   53.0885   25.8747 H         1 UNK         0.0000 
     39 H39         7.4997   55.3474   23.1197 H         1 UNK         0.0000 
     40 H40         3.3937   53.5197   19.0974 H         1 UNK         0.0000 
     41 H41         3.5049   55.1116   19.6825 H         1 UNK         0.0000 
     42 H42         7.1690   54.9007   20.2607 H         1 UNK         0.0000 
     43 H43         5.4124   56.7008   18.4979 H         1 UNK         0.0000 
     44 H44         5.7434   57.4280   16.1719 H         1 UNK         0.0000 
     45 H45         5.9114   52.6050   17.2859 H         1 UNK         0.0000 
@<TRIPOS>BOND
     1    1    5 2    
     2    1    2 1    
     3    1   33 1    
     4    2    3 2    
     5    2   34 1    
     6    3    4 1    
     7    3    6 1    
     8    4    5 1    
     9    5   35 1    
    10    6    7 1    
    11    6   36 1    
    12    6   37 1    
    13    7    8 am   BACKBONE|DICT|INTERRES
    14    7   38 1    
    15    8    9 2    
    16    8   10 1    
    17   10   14 ar   
    18   10   11 ar   
    19   11   12 ar   
    20   11   39 1    
    21   12   20 1    
    22   12   13 ar   
    23   13   14 ar   
    24   13   15 1    
    25   15   16 1    
    26   15   17 1    
    27   15   29 1    
    28   17   18 1    
    29   17   40 1    
    30   17   41 1    
    31   18   19 1    
    32   18   20 1    
    33   18   21 1    
    34   20   42 1    
    35   21   26 ar   
    36   21   22 ar   
    37   22   23 ar   
    38   22   43 1    
    39   23   24 ar   
    40   23   44 1    
    41   24   25 ar   
    42   24   28 1    
    43   25   26 ar   
    44   25   27 1    
    45   26   45 1    
    46   29   30 1    
    47   29   31 1    
    48   29   32 1    
@<TRIPOS>SUBSTRUCTURE
     1 UNK         1 GROUP             0       ****    0 ROOT    
