ZINC66926712_1408
                    3D
 Schrodinger Suite 2024-2.
 59 61  0  0  1  0            999 V2000
    7.1042   53.6966   27.9858 C   0  0  0  0  0  0
    5.7087   54.1615   27.5049 C   0  0  2  0  0  0
    5.6323   55.2142   27.7871 H   0  0  0  0  0  0
    4.5630   53.4153   28.2123 C   0  0  0  0  0  0
    4.7043   52.6143   29.2490 N   0  0  0  0  0  0
    3.4479   52.1610   29.6358 N   0  0  0  0  0  0
    2.5944   52.7186   28.8195 C   0  0  0  0  0  0
    3.2229   53.5217   27.8986 N   0  0  0  0  0  0
    2.5918   54.3370   26.8816 C   0  0  0  0  0  0
    5.5829   54.0963   26.0360 N   0  0  0  0  0  0
    6.2997   54.8089   25.1366 C   0  0  0  0  0  0
    7.0672   55.6967   25.5135 O   0  0  0  0  0  0
    6.1235   54.4998   23.8143 N   0  0  0  0  0  0
    7.1043   55.0216   22.8308 C   0  0  0  0  0  0
    6.4216   55.4583   21.5155 C   0  0  0  0  0  0
    5.3694   54.4796   20.9649 C   0  0  0  0  0  0
    4.4121   54.0544   22.0853 C   0  0  0  0  0  0
    5.1384   53.5040   23.3308 C   0  0  0  0  0  0
    4.7044   54.8963   19.7313 N   0  0  0  0  0  0
    5.2901   55.0329   18.5307 C   0  0  0  0  0  0
    6.4819   54.7930   18.3355 O   0  0  0  0  0  0
    4.3688   55.4951   17.3915 C   0  0  0  0  0  0
    5.0766   55.9308   16.0746 C   0  0  0  0  0  0
    4.0736   56.1516   14.9152 C   0  0  0  0  0  0
    3.1832   57.3927   15.1497 C   0  0  0  0  0  0
    4.0301   58.6626   15.3823 C   0  0  0  0  0  0
    5.1217   58.4671   16.4570 C   0  0  0  0  0  0
    5.9623   57.1988   16.1988 C   0  0  0  0  0  0
    7.2112   53.8131   29.0642 H   0  0  0  0  0  0
    7.2798   52.6479   27.7460 H   0  0  0  0  0  0
    7.9040   54.2803   27.5325 H   0  0  0  0  0  0
    1.5198   52.6073   28.8213 H   0  0  0  0  0  0
    1.5435   54.4968   27.1359 H   0  0  0  0  0  0
    3.1044   55.2967   26.8150 H   0  0  0  0  0  0
    2.6464   53.8203   25.9234 H   0  0  0  0  0  0
    5.0801   53.2949   25.6875 H   0  0  0  0  0  0
    7.8339   54.2382   22.6218 H   0  0  0  0  0  0
    7.5988   55.9218   23.1991 H   0  0  0  0  0  0
    7.1994   55.6397   20.7728 H   0  0  0  0  0  0
    5.9488   56.4239   21.6813 H   0  0  0  0  0  0
    5.9043   53.5681   20.6949 H   0  0  0  0  0  0
    3.7832   54.8966   22.3783 H   0  0  0  0  0  0
    3.7296   53.2891   21.7120 H   0  0  0  0  0  0
    5.6725   52.5921   23.0615 H   0  0  0  0  0  0
    4.3595   53.2968   24.0642 H   0  0  0  0  0  0
    3.7183   55.1039   19.8039 H   0  0  0  0  0  0
    3.7306   56.2956   17.7649 H   0  0  0  0  0  0
    3.7035   54.6592   17.1736 H   0  0  0  0  0  0
    5.7294   55.1156   15.7544 H   0  0  0  0  0  0
    3.4393   55.2722   14.7946 H   0  0  0  0  0  0
    4.6151   56.2703   13.9748 H   0  0  0  0  0  0
    2.5266   57.2290   16.0048 H   0  0  0  0  0  0
    2.5247   57.5430   14.2934 H   0  0  0  0  0  0
    3.3849   59.4973   15.6599 H   0  0  0  0  0  0
    4.5058   58.9528   14.4447 H   0  0  0  0  0  0
    4.6615   58.4133   17.4430 H   0  0  0  0  0  0
    5.7721   59.3418   16.4809 H   0  0  0  0  0  0
    6.5449   57.3341   15.2862 H   0  0  0  0  0  0
    6.6861   57.0869   17.0064 H   0  0  0  0  0  0
  1  2  1  0  0  0
  1 29  1  0  0  0
  1 30  1  0  0  0
  1 31  1  0  0  0
  2  3  1  0  0  0
  2  4  1  0  0  0
  2 10  1  0  0  0
  4  8  1  0  0  0
  4  5  2  0  0  0
  5  6  1  0  0  0
  6  7  2  0  0  0
  7  8  1  0  0  0
  7 32  1  0  0  0
  8  9  1  0  0  0
  9 33  1  0  0  0
  9 34  1  0  0  0
  9 35  1  0  0  0
 10 11  1  0  0  0
 10 36  1  0  0  0
 11 12  2  0  0  0
 11 13  1  0  0  0
 13 18  1  0  0  0
 13 14  1  0  0  0
 14 15  1  0  0  0
 14 37  1  0  0  0
 14 38  1  0  0  0
 15 16  1  0  0  0
 15 39  1  0  0  0
 15 40  1  0  0  0
 16 17  1  0  0  0
 16 19  1  0  0  0
 16 41  1  0  0  0
 17 18  1  0  0  0
 17 42  1  0  0  0
 17 43  1  0  0  0
 18 44  1  0  0  0
 18 45  1  0  0  0
 19 20  1  0  0  0
 19 46  1  0  0  0
 20 21  2  0  0  0
 20 22  1  0  0  0
 22 23  1  0  0  0
 22 47  1  0  0  0
 22 48  1  0  0  0
 23 28  1  0  0  0
 23 24  1  0  0  0
 23 49  1  0  0  0
 24 25  1  0  0  0
 24 50  1  0  0  0
 24 51  1  0  0  0
 25 26  1  0  0  0
 25 52  1  0  0  0
 25 53  1  0  0  0
 26 27  1  0  0  0
 26 54  1  0  0  0
 26 55  1  0  0  0
 27 28  1  0  0  0
 27 56  1  0  0  0
 27 57  1  0  0  0
 28 58  1  0  0  0
 28 59  1  0  0  0
M  END
> <i_i_glide_confnum>
323

> <i_i_glide_lignum>
1409

> <i_i_glide_posenum>
200

> <i_i_glide_rotatable_bonds>
8

> <i_m_Source_File_Index>
1040

> <b_m_subgroup_collapsed>
0

> <r_i_docking_score>
-6.37084

> <r_i_glide_ecoul>
-6.70659

> <r_i_glide_eff_state_penalty>
0

> <r_i_glide_einternal>
5.77082

> <r_i_glide_emodel>
-58.8973

> <r_i_glide_energy>
-43.6227

> <r_i_glide_erotb>
0.955969

> <r_i_glide_esite>
0

> <r_i_glide_evdw>
-36.9161

> <r_i_glide_gscore>
-6.37084

> <r_i_glide_hbond>
-0.408753

> <r_i_glide_ligand_efficiency>
-0.235957

> <r_i_glide_ligand_efficiency_ln>
-1.48303

> <r_i_glide_ligand_efficiency_sa>
-0.707871

> <r_i_glide_lipo>
-1.42487

> <r_i_glide_metal>
0

> <r_i_glide_rewards>
-2.64139

> <s_i_glide_gridfile>
wee1_glide-grid

> <s_m_Source_File>
wee1_decoys_glide_SP.sdf

> <s_m_Source_Path>
/Users/zhangxujun/Desktop

> <s_m_entry_id>
1315

> <s_m_entry_name>
wee1_decoys_glide_SP.1040

> <s_m_subgroup_title>
wee1_decoys_glide_SP

> <s_m_subgroupid>
wee1_decoys_glide_SP


$$$$
