@<TRIPOS>MOLECULE
ZINC40217518_1583
33   34    1
SMALL
USER_CHARGES


@<TRIPOS>ATOM
      1 C1          3.4966   54.0961   22.4840 C.ar      1 UNK         0.0000 
      2 C2          3.4016   54.0537   23.8710 C.ar      1 UNK         0.0000 
      3 C3          4.5418   54.2505   24.6700 C.ar      1 UNK         0.0000 
      4 C4          5.7711   54.4971   24.0445 C.ar      1 UNK         0.0000 
      5 C5          5.8665   54.5711   22.6506 C.ar      1 UNK         0.0000 
      6 C6          4.7206   54.3541   21.8774 C.ar      1 UNK         0.0000 
      7 N7          7.1012   54.8968   22.0724 N.pl3     1 UNK         0.0000 
      8 S8          7.2717   55.7229   20.5128 S.o2      1 UNK         0.0000 
      9 O9          6.3204   56.8376   20.5093 O.2       1 UNK         0.0000 
     10 O10         8.7044   55.9465   20.3327 O.2       1 UNK         0.0000 
     11 N11         6.7724   54.5848   19.2829 N.pl3     1 UNK         0.0000 
     12 N12         4.5420   54.2413   26.0803 N.am      1 UNK         0.0000 
     13 C13         3.5244   53.9987   26.9346 C.2       1 UNK         0.0000 
     14 O14         2.3807   53.6956   26.5948 O.2       1 UNK         0.0000 
     15 C15         3.8744   54.1236   28.4262 C.3       1 UNK         0.0000 
     16 C16         2.6697   54.0174   29.3454 C.2       1 UNK         0.0000 
     17 C17         1.7342   54.9959   29.6833 C.2       1 UNK         0.0000 
     18 C18         0.7039   54.5436   30.5122 C.2       1 UNK         0.0000 
     19 C19         0.8161   53.1995   30.8187 C.2       1 UNK         0.0000 
     20 S20         2.2090   52.4967   30.0692 S.3       1 UNK         0.0000 
     21 H21         2.6157   53.9468   21.8763 H         1 UNK         0.0000 
     22 H22         2.4254   53.8689   24.2863 H         1 UNK         0.0000 
     23 H23         6.6558   54.6629   24.6420 H         1 UNK         0.0000 
     24 H24         4.7445   54.4066   20.8034 H         1 UNK         0.0000 
     25 H25         7.9216   54.9144   22.6660 H         1 UNK         0.0000 
     26 H26         7.3914   53.7829   19.1525 H         1 UNK         0.0000 
     27 H27         5.7747   54.3745   19.2425 H         1 UNK         0.0000 
     28 H28         5.4369   54.4311   26.5022 H         1 UNK         0.0000 
     29 H29         4.3616   55.0874   28.5775 H         1 UNK         0.0000 
     30 H30         4.6194   53.3673   28.6745 H         1 UNK         0.0000 
     31 H31         1.7979   56.0150   29.3299 H         1 UNK         0.0000 
     32 H32        -0.0943   55.1733   30.8763 H         1 UNK         0.0000 
     33 H33         0.1579   52.5979   31.4338 H         1 UNK         0.0000 
@<TRIPOS>BOND
     1    1    6 ar   
     2    1    2 ar   
     3    1   21 1    
     4    2    3 ar   
     5    2   22 1    
     6    3    4 ar   
     7    3   12 1    
     8    4    5 ar   
     9    4   23 1    
    10    5    6 ar   
    11    5    7 1    
    12    6   24 1    
    13    7    8 1    
    14    7   25 1    
    15    8    9 2    
    16    8   10 2    
    17    8   11 1    
    18   11   26 1    
    19   11   27 1    
    20   12   13 am   BACKBONE|DICT|INTERRES
    21   12   28 1    
    22   13   14 2    
    23   13   15 1    
    24   15   16 1    
    25   15   29 1    
    26   15   30 1    
    27   16   20 1    
    28   16   17 2    
    29   17   18 1    
    30   17   31 1    
    31   18   19 2    
    32   18   32 1    
    33   19   20 1    
    34   19   33 1    
@<TRIPOS>SUBSTRUCTURE
     1 UNK         1 GROUP             0       ****    0 ROOT    
