@<TRIPOS>MOLECULE
ZINC53241253_1383
52   55    1
SMALL
USER_CHARGES


@<TRIPOS>ATOM
      1 C1          6.1375   54.0974   24.6218 C.ar      1 UNK         0.0000 
      2 C2          5.9114   54.0951   23.2507 C.ar      1 UNK         0.0000 
      3 N3          4.6351   54.1023   22.9653 N.2       1 UNK         0.0000 
      4 N4          3.9955   54.1088   24.1482 N.pl3     1 UNK         0.0000 
      5 C5          4.8778   54.1178   25.2162 C.ar      1 UNK         0.0000 
      6 N6          4.4790   54.2074   26.5467 N.am      1 UNK         0.0000 
      7 C7          5.3144   54.4400   27.5893 C.2       1 UNK         0.0000 
      8 O8          6.5377   54.5177   27.4757 O.2       1 UNK         0.0000 
      9 C9          4.7355   54.6552   29.0099 C.3       1 UNK         0.0000 
     10 N10         3.3313   54.2237   29.1784 N.am      1 UNK         0.0000 
     11 C11         2.9888   52.9644   29.5328 C.2       1 UNK         0.0000 
     12 O12         3.7122   52.0638   29.9638 O.2       1 UNK         0.0000 
     13 C13         1.5118   52.8508   29.1920 C.3       1 UNK         0.0000 
     14 C14         1.3210   51.7040   28.1732 C.3       1 UNK         0.0000 
     15 C15        -0.1856   51.4756   28.0200 C.3       1 UNK         0.0000 
     16 S16        -0.8577   51.6974   29.6805 S.3       1 UNK         0.0000 
     17 C17         0.6378   52.4348   30.3952 C.3       1 UNK         0.0000 
     18 N18         1.2443   54.1696   28.6988 N.am      1 UNK         0.0000 
     19 C19         2.2738   55.0045   28.8425 C.2       1 UNK         0.0000 
     20 O20         2.2051   56.2268   28.8821 O.2       1 UNK         0.0000 
     21 C21         2.5391   54.3240   24.1509 C.3       1 UNK         0.0000 
     22 C22         1.6356   53.2738   23.4307 C.3       1 UNK         0.0000 
     23 C23         2.1071   52.8096   22.0300 C.3       1 UNK         0.0000 
     24 C24         1.0579   51.9150   21.3408 C.3       1 UNK         0.0000 
     25 C25         0.7116   50.6912   22.2156 C.3       1 UNK         0.0000 
     26 C26         0.3218   51.0938   23.6528 C.3       1 UNK         0.0000 
     27 C27         1.3709   52.0266   24.2912 C.3       1 UNK         0.0000 
     28 H28         7.1004   54.1023   25.1087 H         1 UNK         0.0000 
     29 H29         6.6685   54.1082   22.4822 H         1 UNK         0.0000 
     30 H30         3.4912   54.1482   26.7289 H         1 UNK         0.0000 
     31 H31         4.8633   55.6946   29.3098 H         1 UNK         0.0000 
     32 H32         5.3584   54.0741   29.6803 H         1 UNK         0.0000 
     33 H33         1.7824   50.7816   28.5333 H         1 UNK         0.0000 
     34 H34         1.8099   51.9211   27.2246 H         1 UNK         0.0000 
     35 H35        -0.4347   50.4798   27.6560 H         1 UNK         0.0000 
     36 H36        -0.6434   52.2154   27.3624 H         1 UNK         0.0000 
     37 H37         0.3497   53.2758   31.0273 H         1 UNK         0.0000 
     38 H38         1.1165   51.6972   31.0372 H         1 UNK         0.0000 
     39 H39         0.4078   54.3888   28.1765 H         1 UNK         0.0000 
     40 H40         2.2067   54.4612   25.1783 H         1 UNK         0.0000 
     41 H41         2.3791   55.2895   23.6827 H         1 UNK         0.0000 
     42 H42         0.6693   53.7583   23.2848 H         1 UNK         0.0000 
     43 H43         2.3085   53.6818   21.4085 H         1 UNK         0.0000 
     44 H44         3.0598   52.2818   22.0922 H         1 UNK         0.0000 
     45 H45         0.1552   52.4953   21.1395 H         1 UNK         0.0000 
     46 H46         1.4315   51.5849   20.3698 H         1 UNK         0.0000 
     47 H47        -0.0928   50.1169   21.7552 H         1 UNK         0.0000 
     48 H48         1.5743   50.0245   22.2564 H         1 UNK         0.0000 
     49 H49        -0.6487   51.5926   23.6379 H         1 UNK         0.0000 
     50 H50         0.1967   50.2016   24.2673 H         1 UNK         0.0000 
     51 H51         2.3044   51.5060   24.4808 H         1 UNK         0.0000 
     52 H52         0.9977   52.3429   25.2616 H         1 UNK         0.0000 
@<TRIPOS>BOND
     1    1    5 ar   
     2    1    2 ar   
     3    1   28 1    
     4    2    3 ar   
     5    2   29 1    
     6    3    4 ar   
     7    4    5 ar   
     8    4   21 1    
     9    5    6 1    
    10    6    7 am   BACKBONE|DICT|INTERRES
    11    6   30 1    
    12    7    8 2    
    13    7    9 1    
    14    9   10 1    
    15    9   31 1    
    16    9   32 1    
    17   10   19 am   BACKBONE|DICT|INTERRES
    18   10   11 am   BACKBONE|DICT|INTERRES
    19   11   12 2    
    20   11   13 1    
    21   13   17 1    
    22   13   14 1    
    23   13   18 1    
    24   14   15 1    
    25   14   33 1    
    26   14   34 1    
    27   15   16 1    
    28   15   35 1    
    29   15   36 1    
    30   16   17 1    
    31   17   37 1    
    32   17   38 1    
    33   18   19 am   BACKBONE|DICT|INTERRES
    34   18   39 1    
    35   19   20 2    
    36   21   22 1    
    37   21   40 1    
    38   21   41 1    
    39   22   27 1    
    40   22   23 1    
    41   22   42 1    
    42   23   24 1    
    43   23   43 1    
    44   23   44 1    
    45   24   25 1    
    46   24   45 1    
    47   24   46 1    
    48   25   26 1    
    49   25   47 1    
    50   25   48 1    
    51   26   27 1    
    52   26   49 1    
    53   26   50 1    
    54   27   51 1    
    55   27   52 1    
@<TRIPOS>SUBSTRUCTURE
     1 UNK         1 GROUP             0       ****    0 ROOT    
