@<TRIPOS>MOLECULE
ZINC10453146_4319
45   47    1
SMALL
USER_CHARGES


@<TRIPOS>ATOM
      1 C1         -1.9271   48.4318   25.6553 C.3       1 UNK         0.0000 
      2 C2         -1.3931   49.5263   24.7402 C.2       1 UNK         0.0000 
      3 O3         -2.1494   50.4325   24.3913 O.2       1 UNK         0.0000 
      4 N4         -0.1076   49.4035   24.3488 N.am      1 UNK         0.0000 
      5 C5          0.6237   50.2865   23.5355 C.ar      1 UNK         0.0000 
      6 C6          0.4190   51.6734   23.5400 C.ar      1 UNK         0.0000 
      7 C7          1.2347   52.4988   22.7724 C.ar      1 UNK         0.0000 
      8 C8          2.2685   51.9515   22.0123 C.ar      1 UNK         0.0000 
      9 C9          2.4430   50.5621   21.9673 C.ar      1 UNK         0.0000 
     10 C10         1.6316   49.7375   22.7415 C.ar      1 UNK         0.0000 
     11 N11         3.1230   52.8686   21.3799 N.am      1 UNK         0.0000 
     12 C12         4.4650   52.7643   21.2704 C.2       1 UNK         0.0000 
     13 O13         5.1017   51.7221   21.4138 O.2       1 UNK         0.0000 
     14 C14         5.2251   54.0795   21.0652 C.3       1 UNK         0.0000 
     15 S15         6.3006   54.5459   22.4822 S.3       1 UNK         0.0000 
     16 C16         5.3841   54.4813   24.0036 C.ar      1 UNK         0.0000 
     17 C17         6.0498   54.6255   25.2207 C.ar      1 UNK         0.0000 
     18 C18         5.3064   54.4982   26.3962 C.ar      1 UNK         0.0000 
     19 C19         3.9367   54.2192   26.2912 C.ar      1 UNK         0.0000 
     20 N20         3.3352   54.0982   25.0767 N.ar      1 UNK         0.0000 
     21 N21         4.0475   54.2477   23.9520 N.ar      1 UNK         0.0000 
     22 C22         3.0516   54.0345   27.4732 C.ar      1 UNK         0.0000 
     23 C23         2.0902   53.0131   27.5045 C.ar      1 UNK         0.0000 
     24 C24         1.2703   52.8445   28.6176 C.ar      1 UNK         0.0000 
     25 C25         1.3888   53.7197   29.6935 C.ar      1 UNK         0.0000 
     26 C26         2.3100   54.7594   29.6622 C.ar      1 UNK         0.0000 
     27 C27         3.1554   54.8963   28.5689 C.ar      1 UNK         0.0000 
     28 Br28        0.3044   53.4897   31.2346 Br        1 UNK         0.0000 
     29 H29        -2.5962   47.7731   25.1037 H         1 UNK         0.0000 
     30 H30        -2.4886   48.8735   26.4807 H         1 UNK         0.0000 
     31 H31        -1.1228   47.8306   26.0816 H         1 UNK         0.0000 
     32 H32         0.3783   48.5626   24.6256 H         1 UNK         0.0000 
     33 H33        -0.3396   52.1237   24.1626 H         1 UNK         0.0000 
     34 H34         1.0974   53.5695   22.8182 H         1 UNK         0.0000 
     35 H35         3.2216   50.1157   21.3669 H         1 UNK         0.0000 
     36 H36         1.8067   48.6726   22.7310 H         1 UNK         0.0000 
     37 H37         2.7213   53.7794   21.2072 H         1 UNK         0.0000 
     38 H38         5.8488   53.9790   20.1769 H         1 UNK         0.0000 
     39 H39         4.5367   54.8980   20.8605 H         1 UNK         0.0000 
     40 H40         7.1136   54.8049   25.2495 H         1 UNK         0.0000 
     41 H41         5.7871   54.5864   27.3602 H         1 UNK         0.0000 
     42 H42         1.9874   52.3348   26.6696 H         1 UNK         0.0000 
     43 H43         0.5480   52.0410   28.6451 H         1 UNK         0.0000 
     44 H44         2.3705   55.4583   30.4816 H         1 UNK         0.0000 
     45 H45         3.8764   55.6966   28.5672 H         1 UNK         0.0000 
@<TRIPOS>BOND
     1    1    2 1    
     2    1   29 1    
     3    1   30 1    
     4    1   31 1    
     5    2    3 2    
     6    2    4 am   BACKBONE|DICT|INTERRES
     7    4    5 1    
     8    4   32 1    
     9    5   10 ar   
    10    5    6 ar   
    11    6    7 ar   
    12    6   33 1    
    13    7    8 ar   
    14    7   34 1    
    15    8    9 ar   
    16    8   11 1    
    17    9   10 ar   
    18    9   35 1    
    19   10   36 1    
    20   11   12 am   BACKBONE|DICT|INTERRES
    21   11   37 1    
    22   12   13 2    
    23   12   14 1    
    24   14   15 1    
    25   14   38 1    
    26   14   39 1    
    27   15   16 1    
    28   16   21 ar   
    29   16   17 ar   
    30   17   18 ar   
    31   17   40 1    
    32   18   19 ar   
    33   18   41 1    
    34   19   20 ar   
    35   19   22 1    
    36   20   21 ar   
    37   22   27 ar   
    38   22   23 ar   
    39   23   24 ar   
    40   23   42 1    
    41   24   25 ar   
    42   24   43 1    
    43   25   26 ar   
    44   25   28 1    
    45   26   27 ar   
    46   26   44 1    
    47   27   45 1    
@<TRIPOS>SUBSTRUCTURE
     1 UNK         1 GROUP             0       ****    0 ROOT    
