@<TRIPOS>MOLECULE
ZINC13132644_4664
55   59    1
SMALL
USER_CHARGES


@<TRIPOS>ATOM
      1 C1          1.0138   57.3269   16.0797 C.ar      1 UNK         0.0000 
      2 C2         -0.3388   57.6524   16.0847 C.ar      1 UNK         0.0000 
      3 C3         -1.2975   56.6895   16.3908 C.ar      1 UNK         0.0000 
      4 C4         -0.9056   55.3616   16.6938 C.ar      1 UNK         0.0000 
      5 C5         -1.8516   54.3558   17.0077 C.ar      1 UNK         0.0000 
      6 C6         -1.4377   53.0568   17.3052 C.ar      1 UNK         0.0000 
      7 C7         -0.0800   52.7341   17.2873 C.ar      1 UNK         0.0000 
      8 C8          0.8763   53.6989   16.9834 C.ar      1 UNK         0.0000 
      9 C9          0.4834   55.0269   16.6860 C.ar      1 UNK         0.0000 
     10 C10         1.4323   56.0327   16.3766 C.ar      1 UNK         0.0000 
     11 S11        -2.6639   51.8179   17.7436 S.o2      1 UNK         0.0000 
     12 O12        -2.0806   50.5262   17.3729 O.2       1 UNK         0.0000 
     13 O13        -3.8765   52.2337   17.0314 O.2       1 UNK         0.0000 
     14 N14        -2.7679   52.0966   19.2817 N.2       1 UNK         0.0000 
     15 C15        -1.9387   51.6935   20.2568 C.2       1 UNK         0.0000 
     16 N16        -2.0953   52.0956   21.4815 N.2       1 UNK         0.0000 
     17 C17        -1.1758   51.5700   22.3195 C.ar      1 UNK         0.0000 
     18 C18        -1.1181   51.8617   23.6807 C.ar      1 UNK         0.0000 
     19 C19        -0.1409   51.2337   24.4610 C.ar      1 UNK         0.0000 
     20 C20         0.7693   50.3438   23.8727 C.ar      1 UNK         0.0000 
     21 C21         0.7445   50.0600   22.5060 C.ar      1 UNK         0.0000 
     22 C22        -0.2443   50.6814   21.7330 C.ar      1 UNK         0.0000 
     23 S23        -0.6028   50.5674   20.0169 S.3       1 UNK         0.0000 
     24 S24        -0.0764   51.5913   26.2283 S.o2      1 UNK         0.0000 
     25 O25         0.3797   50.3329   26.8299 O.2       1 UNK         0.0000 
     26 O26        -1.4496   52.0011   26.5530 O.2       1 UNK         0.0000 
     27 N27         1.1046   52.8950   26.1125 N.2       1 UNK         0.0000 
     28 C28         1.9723   53.0250   27.0320 C.2       1 UNK         0.0000 
     29 N29         2.0412   52.1948   28.1446 N.pl3     1 UNK         0.0000 
     30 C30         2.3954   52.5157   29.5217 C.3       1 UNK         0.0000 
     31 C31         3.9035   52.6848   29.7571 C.3       1 UNK         0.0000 
     32 C32         4.5673   53.8732   29.0380 C.3       1 UNK         0.0000 
     33 C33         4.4265   53.8775   27.5118 C.3       1 UNK         0.0000 
     34 C34         2.9954   54.1619   27.0109 C.3       1 UNK         0.0000 
     35 H35         1.7454   58.0895   15.8544 H         1 UNK         0.0000 
     36 H36        -0.6417   58.6644   15.8626 H         1 UNK         0.0000 
     37 H37        -2.3470   56.9523   16.3918 H         1 UNK         0.0000 
     38 H38        -2.9024   54.6058   17.0151 H         1 UNK         0.0000 
     39 H39         0.2411   51.7259   17.5033 H         1 UNK         0.0000 
     40 H40         1.9266   53.4386   16.9781 H         1 UNK         0.0000 
     41 H41         2.4848   55.7903   16.3785 H         1 UNK         0.0000 
     42 H42        -1.8266   52.5431   24.1275 H         1 UNK         0.0000 
     43 H43         1.5104   49.8519   24.4821 H         1 UNK         0.0000 
     44 H44         1.4540   49.3754   22.0653 H         1 UNK         0.0000 
     45 H45         1.9772   51.7758   30.2049 H         1 UNK         0.0000 
     46 H46         1.8950   53.4582   29.7519 H         1 UNK         0.0000 
     47 H47         4.4108   51.7638   29.4618 H         1 UNK         0.0000 
     48 H48         4.0801   52.7775   30.8272 H         1 UNK         0.0000 
     49 H49         5.6303   53.8794   29.2793 H         1 UNK         0.0000 
     50 H50         4.1745   54.8072   29.4431 H         1 UNK         0.0000 
     51 H51         5.0861   54.6502   27.1117 H         1 UNK         0.0000 
     52 H52         4.7978   52.9392   27.0937 H         1 UNK         0.0000 
     53 H53         2.5813   55.0175   27.5461 H         1 UNK         0.0000 
     54 H54         3.0887   54.5085   25.9780 H         1 UNK         0.0000 
     55 H55         1.3871   51.4178   28.0886 H         1 UNK         0.0000 
@<TRIPOS>BOND
     1    1   10 ar   
     2    1    2 ar   
     3    1   35 1    
     4    2    3 ar   
     5    2   36 1    
     6    3    4 ar   
     7    3   37 1    
     8    4    9 ar   
     9    4    5 ar   
    10    5    6 ar   
    11    5   38 1    
    12    6    7 ar   
    13    6   11 1    
    14    7    8 ar   
    15    7   39 1    
    16    8    9 ar   
    17    8   40 1    
    18    9   10 ar   
    19   10   41 1    
    20   11   12 2    
    21   11   13 2    
    22   11   14 1    
    23   14   15 1    
    24   15   23 1    
    25   15   16 2    
    26   16   17 1    
    27   17   22 ar   
    28   17   18 ar   
    29   18   19 ar   
    30   18   42 1    
    31   19   20 ar   
    32   19   24 1    
    33   20   21 ar   
    34   20   43 1    
    35   21   22 ar   
    36   21   44 1    
    37   22   23 1    
    38   24   25 2    
    39   24   26 2    
    40   24   27 1    
    41   27   28 2    
    42   28   34 1    
    43   28   29 1    
    44   29   30 1    
    45   29   55 1    
    46   30   31 1    
    47   30   45 1    
    48   30   46 1    
    49   31   32 1    
    50   31   47 1    
    51   31   48 1    
    52   32   33 1    
    53   32   49 1    
    54   32   50 1    
    55   33   34 1    
    56   33   51 1    
    57   33   52 1    
    58   34   53 1    
    59   34   54 1    
@<TRIPOS>SUBSTRUCTURE
     1 UNK         1 GROUP             0       ****    0 ROOT    
