@<TRIPOS>MOLECULE
ZINC21076856_3010
49   51    1
SMALL
USER_CHARGES


@<TRIPOS>ATOM
      1 C1         -9.1058   50.4044   23.8704 C.3       1 UNK         0.0000 
      2 C2         -7.7661   51.1308   23.6631 C.3       1 UNK         0.0000 
      3 C3         -6.8729   51.2175   24.9200 C.3       1 UNK         0.0000 
      4 H4         -6.7352   50.1967   25.2804 H         1 UNK         0.0000 
      5 C5         -7.5312   52.0376   26.0489 C.3       1 UNK         0.0000 
      6 S6         -5.2146   51.8423   24.4817 S.3       1 UNK         0.0000 
      7 C7         -4.2728   51.4337   25.9146 C.2       1 UNK         0.0000 
      8 N8         -4.6405   50.6272   26.8831 N.2       1 UNK         0.0000 
      9 N9         -3.6965   50.5154   27.8950 N.2       1 UNK         0.0000 
     10 C10        -2.6358   51.2501   27.6762 C.2       1 UNK         0.0000 
     11 S11        -2.6926   52.1156   26.1557 S.3       1 UNK         0.0000 
     12 N12        -1.6039   51.2983   28.6034 N.am      1 UNK         0.0000 
     13 C13        -0.5395   52.1306   28.6017 C.2       1 UNK         0.0000 
     14 O14        -0.2449   52.8967   27.6825 O.2       1 UNK         0.0000 
     15 C15         0.3299   52.0950   29.8618 C.3       1 UNK         0.0000 
     16 S16         1.1219   53.6990   30.2486 S.3       1 UNK         0.0000 
     17 C17         2.7762   53.4480   29.6710 C.ar      1 UNK         0.0000 
     18 N18         3.5220   54.4788   29.2834 N.2       1 UNK         0.0000 
     19 C19         4.6236   53.9028   28.8812 C.ar      1 UNK         0.0000 
     20 N20         4.5404   52.5612   29.0820 N.pl3     1 UNK         0.0000 
     21 N21         3.3518   52.2601   29.5998 N.2       1 UNK         0.0000 
     22 N22         5.7101   54.4967   28.2650 N.pl3     1 UNK         0.0000 
     23 N23         5.9264   54.6545   26.8657 N.2       1 UNK         0.0000 
     24 C24         5.1182   54.1411   26.0189 C.2       1 UNK         0.0000 
     25 C25         5.2345   54.2754   24.5595 C.ar      1 UNK         0.0000 
     26 C26         6.4735   54.5805   23.9733 C.ar      1 UNK         0.0000 
     27 C27         6.6066   54.7005   22.5921 C.ar      1 UNK         0.0000 
     28 C28         5.5045   54.4967   21.7658 C.ar      1 UNK         0.0000 
     29 C29         4.2668   54.1902   22.3238 C.ar      1 UNK         0.0000 
     30 C30         4.1195   54.0966   23.7096 C.ar      1 UNK         0.0000 
     31 Cl31        2.5277   53.7617   24.3151 Cl        1 UNK         0.0000 
     32 Cl32        5.6713   54.6395   20.0548 Cl        1 UNK         0.0000 
     33 H33        -9.6420   50.3080   22.9261 H         1 UNK         0.0000 
     34 H34        -9.7585   50.9443   24.5568 H         1 UNK         0.0000 
     35 H35        -8.9550   49.3996   24.2671 H         1 UNK         0.0000 
     36 H36        -7.2187   50.6166   22.8712 H         1 UNK         0.0000 
     37 H37        -7.9549   52.1352   23.2810 H         1 UNK         0.0000 
     38 H38        -8.4748   51.5960   26.3671 H         1 UNK         0.0000 
     39 H39        -6.9018   52.0944   26.9362 H         1 UNK         0.0000 
     40 H40        -7.7355   53.0593   25.7268 H         1 UNK         0.0000 
     41 H41        -1.7010   50.6507   29.3761 H         1 UNK         0.0000 
     42 H42        -0.2904   51.8331   30.7215 H         1 UNK         0.0000 
     43 H43         1.0557   51.2968   29.7398 H         1 UNK         0.0000 
     44 H44         6.4080   54.9824   28.8227 H         1 UNK         0.0000 
     45 H45         4.2664   53.5479   26.3405 H         1 UNK         0.0000 
     46 H46         7.3537   54.7280   24.5835 H         1 UNK         0.0000 
     47 H47         7.5711   54.9399   22.1671 H         1 UNK         0.0000 
     48 H48         3.4106   54.0505   21.6783 H         1 UNK         0.0000 
     49 H49         5.2364   51.8773   28.8242 H         1 UNK         0.0000 
@<TRIPOS>BOND
     1    1    2 1    
     2    1   33 1    
     3    1   34 1    
     4    1   35 1    
     5    2    3 1    
     6    2   36 1    
     7    2   37 1    
     8    3    4 1    
     9    3    5 1    
    10    3    6 1    
    11    5   38 1    
    12    5   39 1    
    13    5   40 1    
    14    6    7 1    
    15    7   11 1    
    16    7    8 2    
    17    8    9 1    
    18    9   10 2    
    19   10   11 1    
    20   10   12 am   BACKBONE|DICT|INTERRES
    21   12   13 am   BACKBONE|DICT|INTERRES
    22   12   41 1    
    23   13   14 2    
    24   13   15 1    
    25   15   16 1    
    26   15   42 1    
    27   15   43 1    
    28   16   17 1    
    29   17   21 ar   
    30   17   18 ar   
    31   18   19 ar   
    32   19   20 ar   
    33   19   22 1    
    34   20   21 ar   
    35   20   49 1    
    36   22   23 1    
    37   22   44 1    
    38   23   24 2    
    39   24   25 1    
    40   24   45 1    
    41   25   30 ar   
    42   25   26 ar   
    43   26   27 ar   
    44   26   46 1    
    45   27   28 ar   
    46   27   47 1    
    47   28   29 ar   
    48   28   32 1    
    49   29   30 ar   
    50   29   48 1    
    51   30   31 1    
@<TRIPOS>SUBSTRUCTURE
     1 UNK         1 GROUP             0       ****    0 ROOT    
