ZINC08943225_2339
                    3D
 Schrodinger Suite 2024-2.
 48 51  0  0  1  0            999 V2000
    2.1017   54.2126   16.3773 C   0  0  0  0  0  0
    2.2801   53.1136   17.2125 C   0  0  0  0  0  0
    3.5124   52.9041   17.8211 C   0  0  0  0  0  0
    4.5737   53.7859   17.5920 C   0  0  0  0  0  0
    4.3820   54.8866   16.7474 C   0  0  0  0  0  0
    3.1474   55.1016   16.1403 C   0  0  0  0  0  0
    5.9176   53.5545   18.3003 C   0  0  1  0  0  0
    5.8434   52.6449   18.8992 H   0  0  0  0  0  0
    7.0691   53.3631   17.2859 C   0  0  0  0  0  0
    7.5713   54.3390   16.7245 O   0  0  0  0  0  0
    7.5052   52.0970   17.1123 N   0  0  0  0  0  0
    8.6034   51.6966   16.3320 C   0  0  0  0  0  0
    9.5031   50.7779   16.8811 C   0  0  0  0  0  0
   10.5876   50.3314   16.1333 C   0  0  0  0  0  0
   10.7770   50.8069   14.8391 C   0  0  0  0  0  0
    9.8894   51.7249   14.2828 C   0  0  0  0  0  0
    8.7977   52.1690   15.0269 C   0  0  0  0  0  0
   11.8405   50.3839   14.1218 F   0  0  0  0  0  0
    6.2765   54.9522   19.4295 S   0  0  0  0  0  0
    5.5031   54.4007   20.9216 C   0  0  0  0  0  0
    4.3875   53.7196   20.9969 N   0  0  0  0  0  0
    4.1045   53.5279   22.3443 N   0  0  0  0  0  0
    5.0603   54.0965   23.0434 C   0  0  0  0  0  0
    5.9796   54.6667   22.1855 N   0  0  0  0  0  0
    7.1010   55.4038   22.5018 N   0  0  0  0  0  0
    5.0926   54.1349   24.5451 C   0  0  0  0  0  0
    3.8854   54.1405   25.2549 C   0  0  0  0  0  0
    3.8871   54.1504   26.6460 C   0  0  0  0  0  0
    5.0935   54.1533   27.3352 C   0  0  0  0  0  0
    6.3018   54.1496   26.6462 C   0  0  0  0  0  0
    6.3011   54.1368   25.2532 C   0  0  0  0  0  0
    5.0926   54.1572   28.6882 F   0  0  0  0  0  0
    1.1441   54.3771   15.9066 H   0  0  0  0  0  0
    1.4674   52.4259   17.3915 H   0  0  0  0  0  0
    3.6440   52.0488   18.4678 H   0  0  0  0  0  0
    5.1882   55.5826   16.5671 H   0  0  0  0  0  0
    3.0033   55.9535   15.4918 H   0  0  0  0  0  0
    6.9990   51.3695   17.6101 H   0  0  0  0  0  0
    9.3669   50.4055   17.8865 H   0  0  0  0  0  0
   11.2860   49.6246   16.5541 H   0  0  0  0  0  0
   10.0508   52.0859   13.2774 H   0  0  0  0  0  0
    8.1084   52.8753   14.5872 H   0  0  0  0  0  0
    7.9622   54.8978   22.3408 H   0  0  0  0  0  0
    7.0984   56.3116   22.0568 H   0  0  0  0  0  0
    2.9427   54.1326   24.7256 H   0  0  0  0  0  0
    2.9538   54.1500   27.1903 H   0  0  0  0  0  0
    7.2308   54.1411   27.1957 H   0  0  0  0  0  0
    7.2453   54.1028   24.7313 H   0  0  0  0  0  0
  1  6  2  0  0  0
  1  2  1  0  0  0
  1 33  1  0  0  0
  2  3  2  0  0  0
  2 34  1  0  0  0
  3  4  1  0  0  0
  3 35  1  0  0  0
  4  5  2  0  0  0
  4  7  1  0  0  0
  5  6  1  0  0  0
  5 36  1  0  0  0
  6 37  1  0  0  0
  7  8  1  0  0  0
  7  9  1  0  0  0
  7 19  1  0  0  0
  9 10  2  0  0  0
  9 11  1  0  0  0
 11 12  1  0  0  0
 11 38  1  0  0  0
 12 17  2  0  0  0
 12 13  1  0  0  0
 13 14  2  0  0  0
 13 39  1  0  0  0
 14 15  1  0  0  0
 14 40  1  0  0  0
 15 16  2  0  0  0
 15 18  1  0  0  0
 16 17  1  0  0  0
 16 41  1  0  0  0
 17 42  1  0  0  0
 19 20  1  0  0  0
 20 24  1  0  0  0
 20 21  2  0  0  0
 21 22  1  0  0  0
 22 23  2  0  0  0
 23 24  1  0  0  0
 23 26  1  0  0  0
 24 25  1  0  0  0
 25 43  1  0  0  0
 25 44  1  0  0  0
 26 31  2  0  0  0
 26 27  1  0  0  0
 27 28  2  0  0  0
 27 45  1  0  0  0
 28 29  1  0  0  0
 28 46  1  0  0  0
 29 30  2  0  0  0
 29 32  1  0  0  0
 30 31  1  0  0  0
 30 47  1  0  0  0
 31 48  1  0  0  0
M  END
> <i_i_glide_confnum>
41

> <i_i_glide_lignum>
2340

> <i_i_glide_posenum>
381

> <i_i_glide_rotatable_bonds>
7

> <i_m_Source_File_Index>
853

> <b_m_subgroup_collapsed>
0

> <r_i_docking_score>
-5.17019

> <r_i_glide_ecoul>
-1.02038

> <r_i_glide_eff_state_penalty>
0

> <r_i_glide_einternal>
5.95011

> <r_i_glide_emodel>
-50.2916

> <r_i_glide_energy>
-39.5825

> <r_i_glide_erotb>
0.625204

> <r_i_glide_esite>
-0.13622

> <r_i_glide_evdw>
-38.5621

> <r_i_glide_gscore>
-5.17019

> <r_i_glide_hbond>
-0.242736

> <r_i_glide_ligand_efficiency>
-0.16678

> <r_i_glide_ligand_efficiency_ln>
-1.16604

> <r_i_glide_ligand_efficiency_sa>
-0.52392

> <r_i_glide_lipo>
-2.04796

> <r_i_glide_metal>
0

> <r_i_glide_rewards>
-1.28732

> <s_i_glide_gridfile>
wee1_glide-grid

> <s_m_Source_File>
wee1_decoys_glide_SP.sdf

> <s_m_Source_Path>
/Users/zhangxujun/Desktop

> <s_m_entry_id>
1128

> <s_m_entry_name>
wee1_decoys_glide_SP.853

> <s_m_subgroup_title>
wee1_decoys_glide_SP

> <s_m_subgroupid>
wee1_decoys_glide_SP


$$$$
