@<TRIPOS>MOLECULE
ZINC14543915_5186
67   72    1
SMALL
USER_CHARGES


@<TRIPOS>ATOM
      1 C1          0.4684   51.9602   20.2187 C.3       1 UNK         0.0000 
      2 O2          0.4364   52.1520   21.6282 O.3       1 UNK         0.0000 
      3 C3          1.5450   52.6550   22.2915 C.ar      1 UNK         0.0000 
      4 C4          2.7513   52.8982   21.6244 C.ar      1 UNK         0.0000 
      5 C5          3.8471   53.4445   22.2731 C.ar      1 UNK         0.0000 
      6 C6          3.7920   53.7260   23.6506 C.ar      1 UNK         0.0000 
      7 C7          4.9253   54.2611   24.3175 C.ar      1 UNK         0.0000 
      8 C8          4.8923   54.4980   25.6860 C.ar      1 UNK         0.0000 
      9 C9          3.7482   54.2129   26.4181 C.ar      1 UNK         0.0000 
     10 C10         2.6174   53.6968   25.7914 C.ar      1 UNK         0.0000 
     11 C11         2.5932   53.4427   24.3832 C.ar      1 UNK         0.0000 
     12 C12         1.4505   52.9090   23.6774 C.ar      1 UNK         0.0000 
     13 C13         0.1742   52.5564   24.4823 C.3       1 UNK         0.0000 
     14 H14         0.1120   53.2966   25.2770 H         1 UNK         0.0000 
     15 C15         0.2666   51.1361   25.1102 C.3       1 UNK         0.0000 
     16 H16         1.1044   51.1597   25.8048 H         1 UNK         0.0000 
     17 C17         0.5555   49.9841   24.1314 C.3       1 UNK         0.0000 
     18 C18        -0.2185   48.8253   24.7067 C.2       1 UNK         0.0000 
     19 C19        -1.0464   49.2275   25.6810 C.2       1 UNK         0.0000 
     20 C20        -0.9513   50.7170   25.9511 C.3       1 UNK         0.0000 
     21 H21        -0.7532   50.9047   27.0083 H         1 UNK         0.0000 
     22 C22        -2.2362   51.4602   25.5938 C.ar      1 UNK         0.0000 
     23 C23        -3.4131   51.2278   26.3204 C.ar      1 UNK         0.0000 
     24 C24        -4.6116   51.8621   25.9859 C.ar      1 UNK         0.0000 
     25 C25        -4.6289   52.7794   24.9336 C.ar      1 UNK         0.0000 
     26 C26        -3.4650   53.0449   24.2160 C.ar      1 UNK         0.0000 
     27 C27        -2.2802   52.3759   24.5237 C.ar      1 UNK         0.0000 
     28 N28        -1.1186   52.7314   23.8148 N.pl3     1 UNK         0.0000 
     29 S29        -6.1297   51.5207   26.8873 S.o2      1 UNK         0.0000 
     30 O30        -5.9802   52.0971   28.2279 O.2       1 UNK         0.0000 
     31 O31        -7.2347   51.9330   26.0147 O.2       1 UNK         0.0000 
     32 N32        -6.2396   49.7719   27.0644 N.pl3     1 UNK         0.0000 
     33 C33        -5.5698   49.1067   28.2054 C.3       1 UNK         0.0000 
     34 C34        -6.6120   49.0747   29.3476 C.3       1 UNK         0.0000 
     35 C35        -6.0240   48.3659   30.5851 C.3       1 UNK         0.0000 
     36 C36        -5.5491   46.9376   30.2356 C.3       1 UNK         0.0000 
     37 C37        -4.6151   46.9091   29.0036 C.3       1 UNK         0.0000 
     38 C38        -5.2315   47.6563   27.8017 C.3       1 UNK         0.0000 
     39 H39        -0.5074   51.6091   19.8848 H         1 UNK         0.0000 
     40 H40         0.6839   52.8923   19.6933 H         1 UNK         0.0000 
     41 H41         1.2030   51.2072   19.9304 H         1 UNK         0.0000 
     42 H42         2.8558   52.7031   20.5669 H         1 UNK         0.0000 
     43 H43         4.7558   53.6432   21.7219 H         1 UNK         0.0000 
     44 H44         5.8259   54.4713   23.7578 H         1 UNK         0.0000 
     45 H45         5.7611   54.8998   26.1845 H         1 UNK         0.0000 
     46 H46         3.7388   54.3935   27.4830 H         1 UNK         0.0000 
     47 H47         1.7637   53.4815   26.4128 H         1 UNK         0.0000 
     48 H48         0.2061   50.1914   23.1219 H         1 UNK         0.0000 
     49 H49         1.6240   49.7658   24.0801 H         1 UNK         0.0000 
     50 H50        -0.1056   47.8167   24.3391 H         1 UNK         0.0000 
     51 H51        -1.7229   48.5899   26.2299 H         1 UNK         0.0000 
     52 H52        -3.3794   50.5261   27.1401 H         1 UNK         0.0000 
     53 H53        -5.5436   53.2929   24.6698 H         1 UNK         0.0000 
     54 H54        -3.4877   53.7713   23.4194 H         1 UNK         0.0000 
     55 H55        -1.1304   53.4642   23.1227 H         1 UNK         0.0000 
     56 H56        -6.1731   49.2673   26.1780 H         1 UNK         0.0000 
     57 H57        -4.7347   49.6827   28.6101 H         1 UNK         0.0000 
     58 H58        -6.9295   50.0822   29.6175 H         1 UNK         0.0000 
     59 H59        -7.5154   48.5500   29.0311 H         1 UNK         0.0000 
     60 H60        -5.1846   48.9444   30.9770 H         1 UNK         0.0000 
     61 H61        -6.7650   48.3270   31.3850 H         1 UNK         0.0000 
     62 H62        -5.0447   46.4979   31.0974 H         1 UNK         0.0000 
     63 H63        -6.4225   46.3128   30.0406 H         1 UNK         0.0000 
     64 H64        -3.6676   47.3789   29.2689 H         1 UNK         0.0000 
     65 H65        -4.3763   45.8825   28.7249 H         1 UNK         0.0000 
     66 H66        -6.1238   47.1256   27.4650 H         1 UNK         0.0000 
     67 H67        -4.5354   47.6523   26.9620 H         1 UNK         0.0000 
@<TRIPOS>BOND
     1    1    2 1    
     2    1   39 1    
     3    1   40 1    
     4    1   41 1    
     5    2    3 1    
     6    3   12 ar   
     7    3    4 ar   
     8    4    5 ar   
     9    4   42 1    
    10    5    6 ar   
    11    5   43 1    
    12    6   11 ar   
    13    6    7 ar   
    14    7    8 ar   
    15    7   44 1    
    16    8    9 ar   
    17    8   45 1    
    18    9   10 ar   
    19    9   46 1    
    20   10   11 ar   
    21   10   47 1    
    22   11   12 ar   
    23   12   13 1    
    24   13   14 1    
    25   13   28 1    
    26   13   15 1    
    27   15   16 1    
    28   15   20 1    
    29   15   17 1    
    30   17   18 1    
    31   17   48 1    
    32   17   49 1    
    33   18   19 2    
    34   18   50 1    
    35   19   20 1    
    36   19   51 1    
    37   20   21 1    
    38   20   22 1    
    39   22   27 ar   
    40   22   23 ar   
    41   23   24 ar   
    42   23   52 1    
    43   24   25 ar   
    44   24   29 1    
    45   25   26 ar   
    46   25   53 1    
    47   26   27 ar   
    48   26   54 1    
    49   27   28 1    
    50   28   55 1    
    51   29   30 2    
    52   29   31 2    
    53   29   32 1    
    54   32   33 1    
    55   32   56 1    
    56   33   38 1    
    57   33   34 1    
    58   33   57 1    
    59   34   35 1    
    60   34   58 1    
    61   34   59 1    
    62   35   36 1    
    63   35   60 1    
    64   35   61 1    
    65   36   37 1    
    66   36   62 1    
    67   36   63 1    
    68   37   38 1    
    69   37   64 1    
    70   37   65 1    
    71   38   66 1    
    72   38   67 1    
@<TRIPOS>SUBSTRUCTURE
     1 UNK         1 GROUP             0       ****    0 ROOT    
