@<TRIPOS>MOLECULE
ZINC39689491_4085
69   73    1
SMALL
USER_CHARGES


@<TRIPOS>ATOM
      1 C1          4.8418   54.5261   28.7775 C.3       1 UNK         0.0000 
      2 C2          4.9888   54.4964   27.2667 C.ar      1 UNK         0.0000 
      3 C3          6.1687   54.9401   26.6654 C.ar      1 UNK         0.0000 
      4 C4          6.2850   54.9618   25.2751 C.ar      1 UNK         0.0000 
      5 C5          5.2360   54.4962   24.4818 C.ar      1 UNK         0.0000 
      6 C6          4.0718   53.9961   25.0753 C.ar      1 UNK         0.0000 
      7 C7          3.9421   54.0279   26.4683 C.ar      1 UNK         0.0000 
      8 C8          3.0156   53.2891   24.2333 C.3       1 UNK         0.0000 
      9 C9          1.7017   54.0522   24.0267 C.3       1 UNK         0.0000 
     10 N10         0.6123   53.1749   23.5992 N.am      1 UNK         0.0000 
     11 C11        -0.1434   52.4319   24.4285 C.2       1 UNK         0.0000 
     12 O12        -0.0092   52.4724   25.6502 O.2       1 UNK         0.0000 
     13 C13        -1.1480   51.4225   23.8137 C.3       1 UNK         0.0000 
     14 H14        -1.9292   51.2934   24.5600 H         1 UNK         0.0000 
     15 C15        -1.7950   51.9131   22.5047 C.3       1 UNK         0.0000 
     16 N16        -0.9201   51.3868   21.4502 N.am      1 UNK         0.0000 
     17 C17         0.0142   50.3790   21.9794 C.3       1 UNK         0.0000 
     18 C18        -0.4784   50.0701   23.4134 C.3       1 UNK         0.0000 
     19 C19         0.6720   49.4912   24.2816 C.3       1 UNK         0.0000 
     20 C20         0.2107   49.2027   25.7232 C.3       1 UNK         0.0000 
     21 N21        -0.9509   48.1909   25.6816 N.4       1 UNK         0.0000 
     22 C22        -2.1028   48.5459   24.7138 C.3       1 UNK         0.0000 
     23 C23        -1.5063   48.9001   23.3311 C.3       1 UNK         0.0000 
     24 C24        -1.1159   51.6919   20.1385 C.2       1 UNK         0.0000 
     25 O25        -2.0970   52.3327   19.7528 O.2       1 UNK         0.0000 
     26 C26        -0.1138   51.2888   19.1700 C.2       1 UNK         0.0000 
     27 C27         1.2391   50.9636   19.2646 C.2       1 UNK         0.0000 
     28 C28         1.6992   50.7646   17.9663 C.2       1 UNK         0.0000 
     29 C29         0.6381   51.0076   17.1076 C.2       1 UNK         0.0000 
     30 O30        -0.4517   51.3490   17.8497 O.3       1 UNK         0.0000 
     31 C31         0.4982   50.9880   15.6205 C.ar      1 UNK         0.0000 
     32 C32         1.5896   50.6114   14.8299 C.ar      1 UNK         0.0000 
     33 C33         1.4759   50.5955   13.4415 C.ar      1 UNK         0.0000 
     34 C34         0.2730   50.9592   12.8407 C.ar      1 UNK         0.0000 
     35 C35        -0.8200   51.3343   13.6182 C.ar      1 UNK         0.0000 
     36 C36        -0.7092   51.3468   15.0080 C.ar      1 UNK         0.0000 
     37 F37         0.1651   50.9522   11.4920 F         1 UNK         0.0000 
     38 H38         3.8241   54.8003   29.0566 H         1 UNK         0.0000 
     39 H39         5.0625   53.5462   29.2002 H         1 UNK         0.0000 
     40 H40         5.5022   55.2665   29.2311 H         1 UNK         0.0000 
     41 H41         6.9805   55.2932   27.2834 H         1 UNK         0.0000 
     42 H42         7.1917   55.3193   24.8082 H         1 UNK         0.0000 
     43 H43         5.3528   54.4763   23.4076 H         1 UNK         0.0000 
     44 H44         3.0456   53.6410   26.9314 H         1 UNK         0.0000 
     45 H45         3.4293   52.9842   23.2705 H         1 UNK         0.0000 
     46 H46         2.7822   52.3590   24.7516 H         1 UNK         0.0000 
     47 H47         1.4197   54.4966   24.9791 H         1 UNK         0.0000 
     48 H48         1.8464   54.8957   23.3555 H         1 UNK         0.0000 
     49 H49         0.4668   53.0825   22.6042 H         1 UNK         0.0000 
     50 H50        -2.7870   51.4687   22.4085 H         1 UNK         0.0000 
     51 H51        -1.9387   52.9941   22.4835 H         1 UNK         0.0000 
     52 H52         0.9925   50.8473   22.0938 H         1 UNK         0.0000 
     53 H53         0.1241   49.4645   21.3944 H         1 UNK         0.0000 
     54 H54         1.1016   48.5986   23.8246 H         1 UNK         0.0000 
     55 H55         1.4984   50.1992   24.3265 H         1 UNK         0.0000 
     56 H56         0.9917   48.7391   26.3283 H         1 UNK         0.0000 
     57 H57        -0.1760   50.0696   26.2570 H         1 UNK         0.0000 
     58 H58        -0.5625   47.2855   25.4607 H         1 UNK         0.0000 
     59 H59        -2.7500   47.6690   24.6794 H         1 UNK         0.0000 
     60 H60        -2.6566   49.3582   25.1846 H         1 UNK         0.0000 
     61 H61        -2.3264   49.1652   22.6615 H         1 UNK         0.0000 
     62 H62        -1.0581   48.0147   22.8755 H         1 UNK         0.0000 
     63 H63         1.8498   50.8914   20.1507 H         1 UNK         0.0000 
     64 H64         2.7055   50.4937   17.6811 H         1 UNK         0.0000 
     65 H65         2.5314   50.3279   15.2824 H         1 UNK         0.0000 
     66 H66         2.3186   50.3056   12.8315 H         1 UNK         0.0000 
     67 H67        -1.7501   51.6092   13.1433 H         1 UNK         0.0000 
     68 H68        -1.5620   51.6391   15.6034 H         1 UNK         0.0000 
     69 H69        -1.2950   48.0979   26.6440 H         1 UNK         0.0000 
@<TRIPOS>BOND
     1    1    2 1    
     2    1   38 1    
     3    1   39 1    
     4    1   40 1    
     5    2    7 ar   
     6    2    3 ar   
     7    3    4 ar   
     8    3   41 1    
     9    4    5 ar   
    10    4   42 1    
    11    5    6 ar   
    12    5   43 1    
    13    6    7 ar   
    14    6    8 1    
    15    7   44 1    
    16    8    9 1    
    17    8   45 1    
    18    8   46 1    
    19    9   10 1    
    20    9   47 1    
    21    9   48 1    
    22   10   11 am   BACKBONE|DICT|INTERRES
    23   10   49 1    
    24   11   12 2    
    25   11   13 1    
    26   13   14 1    
    27   13   18 1    
    28   13   15 1    
    29   15   16 1    
    30   15   50 1    
    31   15   51 1    
    32   16   17 1    
    33   16   24 am   BACKBONE|DICT|INTERRES
    34   17   18 1    
    35   17   52 1    
    36   17   53 1    
    37   18   23 1    
    38   18   19 1    
    39   19   20 1    
    40   19   54 1    
    41   19   55 1    
    42   20   21 1    
    43   20   56 1    
    44   20   57 1    
    45   21   22 1    
    46   21   58 1    
    47   21   69 1    
    48   22   23 1    
    49   22   59 1    
    50   22   60 1    
    51   23   61 1    
    52   23   62 1    
    53   24   25 2    
    54   24   26 1    
    55   26   30 1    
    56   26   27 2    
    57   27   28 1    
    58   27   63 1    
    59   28   29 2    
    60   28   64 1    
    61   29   30 1    
    62   29   31 1    
    63   31   36 ar   
    64   31   32 ar   
    65   32   33 ar   
    66   32   65 1    
    67   33   34 ar   
    68   33   66 1    
    69   34   35 ar   
    70   34   37 1    
    71   35   36 ar   
    72   35   67 1    
    73   36   68 1    
@<TRIPOS>SUBSTRUCTURE
     1 UNK         1 GROUP             0       ****    0 ROOT    
