@<TRIPOS>MOLECULE
ZINC08829070_3021
60   64    1
SMALL
USER_CHARGES


@<TRIPOS>ATOM
      1 C1          8.9525   56.0420   17.3093 C.3       1 UNK         0.0000 
      2 C2          7.9497   55.6790   18.3963 C.ar      1 UNK         0.0000 
      3 C3          8.3814   55.7331   19.7276 C.ar      1 UNK         0.0000 
      4 C4          7.4521   55.3872   20.7076 C.ar      1 UNK         0.0000 
      5 C5          6.1320   54.9919   20.3978 C.ar      1 UNK         0.0000 
      6 C6          5.7172   54.9477   19.0629 C.ar      1 UNK         0.0000 
      7 C7          6.6357   55.2934   18.0649 C.ar      1 UNK         0.0000 
      8 C8          6.1760   55.2411   16.6141 C.3       1 UNK         0.0000 
      9 N9          5.4326   54.6867   21.5344 N.2       1 UNK         0.0000 
     10 C10         6.2718   54.8968   22.5230 C.ar      1 UNK         0.0000 
     11 N11         7.5042   55.3092   22.0784 N.pl3     1 UNK         0.0000 
     12 H12         8.2921   55.4766   22.6955 H         1 UNK         0.0000 
     13 C13         5.9206   54.7560   23.9672 C.ar      1 UNK         0.0000 
     14 C14         4.7589   54.0830   24.3444 C.ar      1 UNK         0.0000 
     15 C15         4.4598   53.9051   25.6917 C.ar      1 UNK         0.0000 
     16 C16         5.3031   54.4572   26.6592 C.ar      1 UNK         0.0000 
     17 N17         6.4116   55.1637   26.3122 N.ar      1 UNK         0.0000 
     18 C18         6.7044   55.2976   24.9913 C.ar      1 UNK         0.0000 
     19 S19         4.9834   54.2972   28.4062 S.3       1 UNK         0.0000 
     20 C20         3.6590   53.0931   28.8119 C.3       1 UNK         0.0000 
     21 C21         2.3230   53.2688   28.0794 C.2       1 UNK         0.0000 
     22 O22         1.8948   54.3962   27.8329 O.2       1 UNK         0.0000 
     23 N23         1.7133   52.1259   27.6985 N.am      1 UNK         0.0000 
     24 C24         0.7376   51.9707   26.7009 C.ar      1 UNK         0.0000 
     25 C25         0.7047   52.7766   25.5542 C.ar      1 UNK         0.0000 
     26 C26        -0.2382   52.5364   24.5608 C.ar      1 UNK         0.0000 
     27 C27        -1.1486   51.4902   24.7056 C.ar      1 UNK         0.0000 
     28 C28        -1.0951   50.6604   25.8288 C.ar      1 UNK         0.0000 
     29 C29        -0.1460   50.8969   26.8204 C.ar      1 UNK         0.0000 
     30 S30        -2.4063   51.2260   23.4585 S.o2      1 UNK         0.0000 
     31 O31        -2.5497   49.7760   23.2884 O.2       1 UNK         0.0000 
     32 O32        -2.0944   52.0946   22.3166 O.2       1 UNK         0.0000 
     33 N33        -3.8831   51.8454   24.1847 N.pl3     1 UNK         0.0000 
     34 C34        -4.4677   51.1878   25.3663 C.3       1 UNK         0.0000 
     35 C35        -5.9760   51.0751   25.3884 C.3       1 UNK         0.0000 
     36 C36        -5.1373   49.8493   25.1393 C.3       1 UNK         0.0000 
     37 H37         8.6165   56.9233   16.7627 H         1 UNK         0.0000 
     38 H38         9.9466   56.2439   17.7105 H         1 UNK         0.0000 
     39 H39         9.0464   55.2251   16.5935 H         1 UNK         0.0000 
     40 H40         9.3918   56.0220   19.9814 H         1 UNK         0.0000 
     41 H41         4.7108   54.6431   18.8150 H         1 UNK         0.0000 
     42 H42         5.1166   54.9986   16.5218 H         1 UNK         0.0000 
     43 H43         6.3370   56.2044   16.1302 H         1 UNK         0.0000 
     44 H44         6.7471   54.4942   16.0628 H         1 UNK         0.0000 
     45 H45         4.1082   53.6509   23.5976 H         1 UNK         0.0000 
     46 H46         3.5998   53.3136   25.9303 H         1 UNK         0.0000 
     47 H47         7.5878   55.8696   24.7565 H         1 UNK         0.0000 
     48 H48         3.4647   53.1584   29.8818 H         1 UNK         0.0000 
     49 H49         4.0669   52.0980   28.6337 H         1 UNK         0.0000 
     50 H50         1.9792   51.2755   28.1695 H         1 UNK         0.0000 
     51 H51         1.3989   53.5928   25.4217 H         1 UNK         0.0000 
     52 H52        -0.2626   53.1756   23.6903 H         1 UNK         0.0000 
     53 H53        -1.7841   49.8341   25.9422 H         1 UNK         0.0000 
     54 H54        -0.1152   50.2417   27.6800 H         1 UNK         0.0000 
     55 H55        -4.0452   52.8506   24.0923 H         1 UNK         0.0000 
     56 H56        -3.9409   51.3555   26.3076 H         1 UNK         0.0000 
     57 H57        -6.5481   51.5028   24.5636 H         1 UNK         0.0000 
     58 H58        -6.4878   51.1825   26.3453 H         1 UNK         0.0000 
     59 H59        -5.0459   49.0934   25.9205 H         1 UNK         0.0000 
     60 H60        -5.1185   49.4130   24.1396 H         1 UNK         0.0000 
@<TRIPOS>BOND
     1    1    2 1    
     2    1   37 1    
     3    1   38 1    
     4    1   39 1    
     5    2    7 ar   
     6    2    3 ar   
     7    3    4 ar   
     8    3   40 1    
     9    4   11 ar   
    10    4    5 ar   
    11    5    6 ar   
    12    5    9 ar   
    13    6    7 ar   
    14    6   41 1    
    15    7    8 1    
    16    8   42 1    
    17    8   43 1    
    18    8   44 1    
    19    9   10 ar   
    20   10   11 ar   
    21   10   13 1    
    22   11   12 1    
    23   13   18 ar   
    24   13   14 ar   
    25   14   15 ar   
    26   14   45 1    
    27   15   16 ar   
    28   15   46 1    
    29   16   17 ar   
    30   16   19 1    
    31   17   18 ar   
    32   18   47 1    
    33   19   20 1    
    34   20   21 1    
    35   20   48 1    
    36   20   49 1    
    37   21   22 2    
    38   21   23 am   BACKBONE|DICT|INTERRES
    39   23   24 1    
    40   23   50 1    
    41   24   29 ar   
    42   24   25 ar   
    43   25   26 ar   
    44   25   51 1    
    45   26   27 ar   
    46   26   52 1    
    47   27   28 ar   
    48   27   30 1    
    49   28   29 ar   
    50   28   53 1    
    51   29   54 1    
    52   30   31 2    
    53   30   32 2    
    54   30   33 1    
    55   33   34 1    
    56   33   55 1    
    57   34   36 1    
    58   34   35 1    
    59   34   56 1    
    60   35   36 1    
    61   35   57 1    
    62   35   58 1    
    63   36   59 1    
    64   36   60 1    
@<TRIPOS>SUBSTRUCTURE
     1 UNK         1 GROUP             0       ****    0 ROOT    
