@<TRIPOS>MOLECULE
ZINC59218814_1148
70   74    1
SMALL
USER_CHARGES


@<TRIPOS>ATOM
      1 C1         -1.7099   51.4103   24.4654 C.3       1 UNK         0.0000 
      2 C2         -0.3562   52.0860   24.5719 C.ar      1 UNK         0.0000 
      3 C3          0.2588   52.2208   25.8168 C.ar      1 UNK         0.0000 
      4 C4          1.5065   52.8321   25.9145 C.ar      1 UNK         0.0000 
      5 C5          2.1649   53.2982   24.7689 C.ar      1 UNK         0.0000 
      6 C6          1.5331   53.1605   23.5240 C.ar      1 UNK         0.0000 
      7 C7          0.2831   52.5547   23.4247 C.ar      1 UNK         0.0000 
      8 C8          3.5452   53.8888   24.8815 C.2       1 UNK         0.0000 
      9 C9          4.2154   54.2313   26.0611 C.2       1 UNK         0.0000 
     10 S10         5.8335   54.7566   25.7065 S.3       1 UNK         0.0000 
     11 C11         5.4846   54.5213   24.0276 C.2       1 UNK         0.0000 
     12 N12         4.2691   54.0961   23.7906 N.2       1 UNK         0.0000 
     13 S13         6.7043   54.8943   22.8094 S.3       1 UNK         0.0000 
     14 C14         5.6903   54.9665   21.2880 C.3       1 UNK         0.0000 
     15 C15         6.2148   55.9741   20.2614 C.2       1 UNK         0.0000 
     16 O16         6.7045   57.0405   20.6354 O.2       1 UNK         0.0000 
     17 N17         6.0842   55.6352   18.9648 N.am      1 UNK         0.0000 
     18 C18         6.5624   56.4238   17.9072 C.ar      1 UNK         0.0000 
     19 C19         5.9492   57.6576   17.6502 C.ar      1 UNK         0.0000 
     20 C20         6.4388   58.4967   16.6540 C.ar      1 UNK         0.0000 
     21 C21         7.5447   58.1081   15.9033 C.ar      1 UNK         0.0000 
     22 C22         8.1400   56.8691   16.1322 C.ar      1 UNK         0.0000 
     23 C23         7.6423   55.9922   17.1064 C.ar      1 UNK         0.0000 
     24 N24         8.2529   54.7499   17.2482 N.pl3     1 UNK         0.0000 
     25 C25         7.5123   53.4910   17.4206 C.3       1 UNK         0.0000 
     26 C26         8.0994   52.2862   16.6587 C.3       1 UNK         0.0000 
     27 N27         9.6267   52.1590   16.8815 N.4       1 UNK         0.0000 
     28 C28        10.3395   53.5150   16.6462 C.3       1 UNK         0.0000 
     29 C29         9.6909   54.6098   17.5046 C.3       1 UNK         0.0000 
     30 C30        10.1960   50.9716   16.0477 C.3       1 UNK         0.0000 
     31 C31        10.2439   51.2848   14.5236 C.3       1 UNK         0.0000 
     32 C32        10.8819   50.1550   13.7035 C.3       1 UNK         0.0000 
     33 C33        12.2613   49.7439   14.2588 C.3       1 UNK         0.0000 
     34 C34        12.2041   49.4057   15.7644 C.3       1 UNK         0.0000 
     35 C35        11.5767   50.5445   16.5981 C.3       1 UNK         0.0000 
     36 H36        -1.8006   50.8626   23.5255 H         1 UNK         0.0000 
     37 H37        -2.5111   52.1474   24.5182 H         1 UNK         0.0000 
     38 H38        -1.8493   50.6801   25.2643 H         1 UNK         0.0000 
     39 H39        -0.2269   51.8476   26.7098 H         1 UNK         0.0000 
     40 H40         1.9652   52.9135   26.8866 H         1 UNK         0.0000 
     41 H41         2.0088   53.5129   22.6197 H         1 UNK         0.0000 
     42 H42        -0.1826   52.4505   22.4548 H         1 UNK         0.0000 
     43 H43         3.8732   54.1666   27.0839 H         1 UNK         0.0000 
     44 H44         5.6161   53.9670   20.8629 H         1 UNK         0.0000 
     45 H45         4.6796   55.2944   21.5314 H         1 UNK         0.0000 
     46 H46         5.6696   54.7486   18.7247 H         1 UNK         0.0000 
     47 H47         5.1063   57.9815   18.2393 H         1 UNK         0.0000 
     48 H48         5.9677   59.4558   16.4786 H         1 UNK         0.0000 
     49 H49         7.9294   58.7625   15.1341 H         1 UNK         0.0000 
     50 H50         8.9833   56.5785   15.5228 H         1 UNK         0.0000 
     51 H51         7.5647   53.2986   18.4870 H         1 UNK         0.0000 
     52 H52         6.4538   53.6108   17.1740 H         1 UNK         0.0000 
     53 H53         7.9125   52.3804   15.5903 H         1 UNK         0.0000 
     54 H54         7.6651   51.3595   17.0377 H         1 UNK         0.0000 
     55 H55        10.2752   53.7759   15.5902 H         1 UNK         0.0000 
     56 H56        11.3773   53.3837   16.9495 H         1 UNK         0.0000 
     57 H57        10.2090   55.5616   17.3725 H         1 UNK         0.0000 
     58 H58         9.7866   54.3667   18.5652 H         1 UNK         0.0000 
     59 H59         9.5378   50.1112   16.1879 H         1 UNK         0.0000 
     60 H60         9.2636   51.5470   14.1270 H         1 UNK         0.0000 
     61 H61        10.8560   52.1691   14.3466 H         1 UNK         0.0000 
     62 H62        10.2207   49.2869   13.6778 H         1 UNK         0.0000 
     63 H63        10.9811   50.4970   12.6729 H         1 UNK         0.0000 
     64 H64        12.6437   48.8945   13.6905 H         1 UNK         0.0000 
     65 H65        12.9727   50.5552   14.0929 H         1 UNK         0.0000 
     66 H66        11.6166   48.4964   15.9087 H         1 UNK         0.0000 
     67 H67        13.2058   49.1822   16.1346 H         1 UNK         0.0000 
     68 H68        12.2628   51.3916   16.5722 H         1 UNK         0.0000 
     69 H69        11.5080   50.2833   17.6560 H         1 UNK         0.0000 
     70 H70         9.7622   51.9330   17.8611 H         1 UNK         0.0000 
@<TRIPOS>BOND
     1    1    2 1    
     2    1   36 1    
     3    1   37 1    
     4    1   38 1    
     5    2    7 ar   
     6    2    3 ar   
     7    3    4 ar   
     8    3   39 1    
     9    4    5 ar   
    10    4   40 1    
    11    5    6 ar   
    12    5    8 1    
    13    6    7 ar   
    14    6   41 1    
    15    7   42 1    
    16    8   12 1    
    17    8    9 2    
    18    9   10 1    
    19    9   43 1    
    20   10   11 1    
    21   11   12 2    
    22   11   13 1    
    23   13   14 1    
    24   14   15 1    
    25   14   44 1    
    26   14   45 1    
    27   15   16 2    
    28   15   17 am   BACKBONE|DICT|INTERRES
    29   17   18 1    
    30   17   46 1    
    31   18   23 ar   
    32   18   19 ar   
    33   19   20 ar   
    34   19   47 1    
    35   20   21 ar   
    36   20   48 1    
    37   21   22 ar   
    38   21   49 1    
    39   22   23 ar   
    40   22   50 1    
    41   23   24 1    
    42   24   29 1    
    43   24   25 1    
    44   25   26 1    
    45   25   51 1    
    46   25   52 1    
    47   26   27 1    
    48   26   53 1    
    49   26   54 1    
    50   27   28 1    
    51   27   30 1    
    52   27   70 1    
    53   28   29 1    
    54   28   55 1    
    55   28   56 1    
    56   29   57 1    
    57   29   58 1    
    58   30   35 1    
    59   30   31 1    
    60   30   59 1    
    61   31   32 1    
    62   31   60 1    
    63   31   61 1    
    64   32   33 1    
    65   32   62 1    
    66   32   63 1    
    67   33   34 1    
    68   33   64 1    
    69   33   65 1    
    70   34   35 1    
    71   34   66 1    
    72   34   67 1    
    73   35   68 1    
    74   35   69 1    
@<TRIPOS>SUBSTRUCTURE
     1 UNK         1 GROUP             0       ****    0 ROOT    
