@<TRIPOS>MOLECULE
ZINC12490061_4373
44   45    1
SMALL
USER_CHARGES


@<TRIPOS>ATOM
      1 C1          2.1478   49.4721   20.5605 C.3       1 UNK         0.0000 
      2 C2          2.3487   50.7935   21.2838 C.ar      1 UNK         0.0000 
      3 C3          3.3685   51.6479   20.8515 C.ar      1 UNK         0.0000 
      4 C4          3.5504   52.8875   21.4560 C.ar      1 UNK         0.0000 
      5 C5          2.7043   53.2942   22.4835 C.ar      1 UNK         0.0000 
      6 C6          1.6791   52.4534   22.9289 C.ar      1 UNK         0.0000 
      7 C7          1.5087   51.1862   22.3438 C.ar      1 UNK         0.0000 
      8 O8          0.5193   50.3462   22.8107 O.3       1 UNK         0.0000 
      9 C9          1.0006   49.2969   23.6512 C.3       1 UNK         0.0000 
     10 C10        -0.1828   48.5871   24.3447 C.2       1 UNK         0.0000 
     11 O11        -0.8892   47.8289   23.6811 O.2       1 UNK         0.0000 
     12 N12        -0.4056   48.7168   25.6704 N.am      1 UNK         0.0000 
     13 N13         0.3044   49.6312   26.4432 N.am      1 UNK         0.0000 
     14 C14        -0.3080   50.8068   26.6987 C.2       1 UNK         0.0000 
     15 O15        -1.3843   51.1428   26.1858 O.2       1 UNK         0.0000 
     16 C16         0.3998   51.7564   27.6389 C.ar      1 UNK         0.0000 
     17 C17        -0.1784   53.0002   27.8567 C.ar      1 UNK         0.0000 
     18 C18         0.4319   53.9520   28.6563 C.ar      1 UNK         0.0000 
     19 C19         1.6492   53.6908   29.2932 C.ar      1 UNK         0.0000 
     20 C20         2.2309   52.4297   29.1075 C.ar      1 UNK         0.0000 
     21 C21         1.6116   51.4695   28.2918 C.ar      1 UNK         0.0000 
     22 Br22        3.8909   52.0082   29.9438 Br        1 UNK         0.0000 
     23 O23         2.2996   54.6270   30.0813 O.3       1 UNK         0.0000 
     24 C24         1.7044   55.9204   30.2323 C.3       1 UNK         0.0000 
     25 C25         0.7595   52.9520   24.0292 C.3       1 UNK         0.0000 
     26 Br26        4.9472   54.0371   20.8652 Br        1 UNK         0.0000 
     27 H27         1.0923   49.1936   20.5397 H         1 UNK         0.0000 
     28 H28         2.4778   49.5288   19.5213 H         1 UNK         0.0000 
     29 H29         2.7047   48.6773   21.0565 H         1 UNK         0.0000 
     30 H30         4.0165   51.3558   20.0377 H         1 UNK         0.0000 
     31 H31         2.8461   54.2694   22.9275 H         1 UNK         0.0000 
     32 H32         1.5050   48.5431   23.0521 H         1 UNK         0.0000 
     33 H33         1.7335   49.6720   24.3661 H         1 UNK         0.0000 
     34 H34        -1.0542   48.1608   26.2163 H         1 UNK         0.0000 
     35 H35         0.8993   49.1702   27.1167 H         1 UNK         0.0000 
     36 H36        -1.1051   53.2737   27.3712 H         1 UNK         0.0000 
     37 H37        -0.0687   54.8958   28.7415 H         1 UNK         0.0000 
     38 H38         2.0920   50.5108   28.1639 H         1 UNK         0.0000 
     39 H39         2.3043   56.5570   30.8776 H         1 UNK         0.0000 
     40 H40         1.6137   56.4353   29.2735 H         1 UNK         0.0000 
     41 H41         0.7187   55.8522   30.6938 H         1 UNK         0.0000 
     42 H42        -0.2129   52.4597   24.0010 H         1 UNK         0.0000 
     43 H43         1.2188   52.7931   25.0052 H         1 UNK         0.0000 
     44 H44         0.5595   54.0176   23.9106 H         1 UNK         0.0000 
@<TRIPOS>BOND
     1    1    2 1    
     2    1   27 1    
     3    1   28 1    
     4    1   29 1    
     5    2    7 ar   
     6    2    3 ar   
     7    3    4 ar   
     8    3   30 1    
     9    4    5 ar   
    10    4   26 1    
    11    5    6 ar   
    12    5   31 1    
    13    6    7 ar   
    14    6   25 1    
    15    7    8 1    
    16    8    9 1    
    17    9   10 1    
    18    9   32 1    
    19    9   33 1    
    20   10   11 2    
    21   10   12 am   BACKBONE|DICT|INTERRES
    22   12   13 1    
    23   12   34 1    
    24   13   14 am   BACKBONE|DICT|INTERRES
    25   13   35 1    
    26   14   15 2    
    27   14   16 1    
    28   16   21 ar   
    29   16   17 ar   
    30   17   18 ar   
    31   17   36 1    
    32   18   19 ar   
    33   18   37 1    
    34   19   20 ar   
    35   19   23 1    
    36   20   21 ar   
    37   20   22 1    
    38   21   38 1    
    39   23   24 1    
    40   24   39 1    
    41   24   40 1    
    42   24   41 1    
    43   25   42 1    
    44   25   43 1    
    45   25   44 1    
@<TRIPOS>SUBSTRUCTURE
     1 UNK         1 GROUP             0       ****    0 ROOT    
