ZINC01063542_3144
                    3D
 Schrodinger Suite 2024-2.
 52 54  0  0  1  0            999 V2000
    1.5039   56.2143   30.3617 C   0  0  0  0  0  0
    1.6766   56.1464   29.0329 C   0  0  0  0  0  0
    1.9506   54.9036   28.1965 C   0  0  0  0  0  0
    2.5704   53.7905   28.9182 N   0  0  0  0  0  0
    1.9842   52.7534   29.6189 C   0  0  0  0  0  0
    2.8935   52.0916   30.2822 N   0  0  0  0  0  0
    4.1325   52.5724   29.9093 N   0  0  0  0  0  0
    3.9227   53.5689   29.0950 C   0  0  0  0  0  0
    5.2223   54.4965   28.3794 S   0  0  0  0  0  0
    5.0333   53.8524   26.6775 C   0  0  0  0  0  0
    5.8270   54.7134   25.6775 C   0  0  0  0  0  0
    6.7051   55.4769   26.0810 O   0  0  0  0  0  0
    5.5610   54.5320   24.2158 C   0  0  0  0  0  0
    4.3193   54.0947   23.7301 C   0  0  0  0  0  0
    4.0799   54.0490   22.3582 C   0  0  0  0  0  0
    5.0714   54.4525   21.4670 C   0  0  0  0  0  0
    6.3049   54.8967   21.9341 C   0  0  0  0  0  0
    6.5492   54.9258   23.3023 C   0  0  0  0  0  0
    4.7302   54.4175   19.5963 Br  0  0  0  0  0  0
    0.5067   52.3571   29.6678 C   0  0  1  0  0  0
    0.4573   51.2998   29.9372 H   0  0  0  0  0  0
   -0.2691   53.0855   30.7684 C   0  0  0  0  0  0
    0.3044   52.9178   32.0480 O   0  0  0  0  0  0
   -0.1851   52.4360   28.3749 N   0  0  0  0  0  0
    0.1521   51.7173   27.2887 C   0  0  0  0  0  0
    1.1043   50.9418   27.2795 O   0  0  0  0  0  0
   -0.6518   51.9842   26.0414 C   0  0  0  0  0  0
   -0.0108   51.9784   24.7958 C   0  0  0  0  0  0
   -0.7298   52.2457   23.6341 C   0  0  0  0  0  0
   -2.0953   52.5059   23.7120 C   0  0  0  0  0  0
   -2.7497   52.4977   24.9405 C   0  0  0  0  0  0
   -2.0309   52.2350   26.1039 C   0  0  0  0  0  0
    1.3295   57.1633   30.8497 H   0  0  0  0  0  0
    1.5209   55.3341   30.9831 H   0  0  0  0  0  0
    1.6158   57.0728   28.4820 H   0  0  0  0  0  0
    2.6170   55.1951   27.3881 H   0  0  0  0  0  0
    1.0378   54.5723   27.7092 H   0  0  0  0  0  0
    5.3699   52.8180   26.6312 H   0  0  0  0  0  0
    3.9783   53.8460   26.4190 H   0  0  0  0  0  0
    3.5159   53.8023   24.3907 H   0  0  0  0  0  0
    3.1214   53.7192   21.9828 H   0  0  0  0  0  0
    7.0671   55.2157   21.2382 H   0  0  0  0  0  0
    7.5042   55.2961   23.6436 H   0  0  0  0  0  0
   -0.3956   54.1419   30.5382 H   0  0  0  0  0  0
   -1.2657   52.6518   30.8043 H   0  0  0  0  0  0
   -0.3532   52.4243   32.5812 H   0  0  0  0  0  0
   -1.1213   52.8054   28.3851 H   0  0  0  0  0  0
    1.0477   51.7725   24.7212 H   0  0  0  0  0  0
   -0.2291   52.2439   22.6772 H   0  0  0  0  0  0
   -2.6532   52.7083   22.8111 H   0  0  0  0  0  0
   -3.8124   52.6863   24.9907 H   0  0  0  0  0  0
   -2.5592   52.2151   27.0453 H   0  0  0  0  0  0
  1  2  2  0  0  0
  1 33  1  0  0  0
  1 34  1  0  0  0
  2  3  1  0  0  0
  2 35  1  0  0  0
  3  4  1  0  0  0
  3 36  1  0  0  0
  3 37  1  0  0  0
  4  8  1  0  0  0
  4  5  1  0  0  0
  5  6  2  0  0  0
  5 20  1  0  0  0
  6  7  1  0  0  0
  7  8  2  0  0  0
  8  9  1  0  0  0
  9 10  1  0  0  0
 10 11  1  0  0  0
 10 38  1  0  0  0
 10 39  1  0  0  0
 11 12  2  0  0  0
 11 13  1  0  0  0
 13 18  2  0  0  0
 13 14  1  0  0  0
 14 15  2  0  0  0
 14 40  1  0  0  0
 15 16  1  0  0  0
 15 41  1  0  0  0
 16 17  2  0  0  0
 16 19  1  0  0  0
 17 18  1  0  0  0
 17 42  1  0  0  0
 18 43  1  0  0  0
 20 21  1  0  0  0
 20 22  1  0  0  0
 20 24  1  0  0  0
 22 23  1  0  0  0
 22 44  1  0  0  0
 22 45  1  0  0  0
 23 46  1  0  0  0
 24 25  1  0  0  0
 24 47  1  0  0  0
 25 26  2  0  0  0
 25 27  1  0  0  0
 27 32  2  0  0  0
 27 28  1  0  0  0
 28 29  2  0  0  0
 28 48  1  0  0  0
 29 30  1  0  0  0
 29 49  1  0  0  0
 30 31  2  0  0  0
 30 50  1  0  0  0
 31 32  1  0  0  0
 31 51  1  0  0  0
 32 52  1  0  0  0
M  END
> <i_i_glide_confnum>
238

> <i_i_glide_lignum>
3145

> <i_i_glide_posenum>
51

> <i_i_glide_rotatable_bonds>
12

> <i_m_Source_File_Index>
1426

> <b_m_subgroup_collapsed>
0

> <r_i_docking_score>
-8.60317

> <r_i_glide_ecoul>
-9.52717

> <r_i_glide_eff_state_penalty>
0

> <r_i_glide_einternal>
10.116

> <r_i_glide_emodel>
-86.0566

> <r_i_glide_energy>
-60.942

> <r_i_glide_erotb>
0.731249

> <r_i_glide_esite>
-0.00906629

> <r_i_glide_evdw>
-51.4148

> <r_i_glide_gscore>
-8.60317

> <r_i_glide_hbond>
-0.456

> <r_i_glide_ligand_efficiency>
-0.277522

> <r_i_glide_ligand_efficiency_ln>
-1.94028

> <r_i_glide_ligand_efficiency_sa>
-0.871801

> <r_i_glide_lipo>
-3.12853

> <r_i_glide_metal>
0

> <r_i_glide_rewards>
-1.74101

> <s_i_glide_gridfile>
wee1_glide-grid

> <s_m_Source_File>
wee1_decoys_glide_SP.sdf

> <s_m_Source_Path>
/Users/zhangxujun/Desktop

> <s_m_entry_id>
1701

> <s_m_entry_name>
wee1_decoys_glide_SP.1426

> <s_m_subgroup_title>
wee1_decoys_glide_SP

> <s_m_subgroupid>
wee1_decoys_glide_SP


$$$$
