ZINC13598436_2011
                    3D
 Schrodinger Suite 2024-2.
 45 48  0  0  1  0            999 V2000
    2.7460   52.4912   19.2299 C   0  0  0  0  0  0
    3.9946   53.2967   18.9243 C   0  0  0  0  0  0
    4.4112   53.4351   17.6029 C   0  0  0  0  0  0
    5.5675   54.1332   17.2634 C   0  0  0  0  0  0
    6.2990   54.6955   18.3127 C   0  0  0  0  0  0
    5.9053   54.5863   19.6851 C   0  0  0  0  0  0
    4.7299   53.8652   19.9647 C   0  0  0  0  0  0
    6.8950   55.2967   20.4915 C   0  0  0  0  0  0
    7.8114   55.7694   19.5627 C   0  0  0  0  0  0
    7.4644   55.4180   18.2925 N   0  0  0  0  0  0
    8.0161   55.6874   17.4914 H   0  0  0  0  0  0
    8.9635   56.4945   19.6817 O   0  0  0  0  0  0
    6.9637   55.4923   21.8443 N   0  0  0  0  0  0
    6.2184   54.7123   22.5218 N   0  0  0  0  0  0
    6.2038   54.8966   23.9006 C   0  0  0  0  0  0
    7.1044   55.4335   24.5503 O   0  0  0  0  0  0
    4.9676   54.3880   24.6101 C   0  0  0  0  0  0
    3.7680   54.1519   23.9272 C   0  0  0  0  0  0
    2.6459   53.6958   24.6087 C   0  0  0  0  0  0
    2.6762   53.4469   25.9816 C   0  0  0  0  0  0
    3.8775   53.6966   26.6624 C   0  0  0  0  0  0
    5.0038   54.1650   25.9920 C   0  0  0  0  0  0
    1.5039   53.0152   26.5491 N   0  5  0  0  0  0
    1.3058   52.5801   28.0449 S   0  0  0  0  0  0
   -0.0321   52.0356   28.2905 O   0  0  0  0  0  0
    2.4333   51.8476   28.6331 O   0  0  0  0  0  0
    1.2831   54.1167   28.9986 C   0  0  0  0  0  0
    1.8295   55.3404   28.6269 C   0  0  0  0  0  0
    1.7364   56.3023   29.6257 C   0  0  0  0  0  0
    1.1044   55.8265   30.7549 C   0  0  0  0  0  0
    0.6125   54.1706   30.5937 S   0  0  0  0  0  0
    2.7895   51.5320   18.7102 H   0  0  0  0  0  0
    1.8575   53.0193   18.8814 H   0  0  0  0  0  0
    2.6423   52.2805   20.2959 H   0  0  0  0  0  0
    3.8321   52.9707   16.8172 H   0  0  0  0  0  0
    5.8793   54.2219   16.2335 H   0  0  0  0  0  0
    4.3984   53.7333   20.9792 H   0  0  0  0  0  0
    9.7285   55.9384   19.8673 H   0  0  0  0  0  0
    3.6754   54.3487   22.8715 H   0  0  0  0  0  0
    1.7327   53.5333   24.0538 H   0  0  0  0  0  0
    3.9571   53.5317   27.7251 H   0  0  0  0  0  0
    5.9068   54.3403   26.5607 H   0  0  0  0  0  0
    2.3046   55.5356   27.6817 H   0  0  0  0  0  0
    2.1371   57.2967   29.5337 H   0  0  0  0  0  0
    0.9728   56.3577   31.6817 H   0  0  0  0  0  0
  1  2  1  0  0  0
  1 32  1  0  0  0
  1 33  1  0  0  0
  1 34  1  0  0  0
  2  7  2  0  0  0
  2  3  1  0  0  0
  3  4  2  0  0  0
  3 35  1  0  0  0
  4  5  1  0  0  0
  4 36  1  0  0  0
  5 10  1  0  0  0
  5  6  2  0  0  0
  6  7  1  0  0  0
  6  8  1  0  0  0
  7 37  1  0  0  0
  8  9  2  0  0  0
  8 13  1  0  0  0
  9 10  1  0  0  0
  9 12  1  0  0  0
 10 11  1  0  0  0
 12 38  1  0  0  0
 13 14  2  0  0  0
 14 15  1  0  0  0
 15 16  2  0  0  0
 15 17  1  0  0  0
 17 22  2  0  0  0
 17 18  1  0  0  0
 18 19  2  0  0  0
 18 39  1  0  0  0
 19 20  1  0  0  0
 19 40  1  0  0  0
 20 21  2  0  0  0
 20 23  1  0  0  0
 21 22  1  0  0  0
 21 41  1  0  0  0
 22 42  1  0  0  0
 23 24  1  0  0  0
 24 25  2  0  0  0
 24 26  2  0  0  0
 24 27  1  0  0  0
 27 31  1  0  0  0
 27 28  2  0  0  0
 28 29  1  0  0  0
 28 43  1  0  0  0
 29 30  2  0  0  0
 29 44  1  0  0  0
 30 31  1  0  0  0
 30 45  1  0  0  0
M  CHG  1  23  -1
M  END
> <i_i_glide_confnum>
42

> <i_i_glide_lignum>
2012

> <i_i_glide_posenum>
77

> <i_i_glide_rotatable_bonds>
7

> <i_m_Source_File_Index>
4678

> <b_m_subgroup_collapsed>
0

> <r_i_docking_score>
-6.18147

> <r_i_glide_ecoul>
-6.08882

> <r_i_glide_eff_state_penalty>
0

> <r_i_glide_einternal>
7.00151

> <r_i_glide_emodel>
-69.0335

> <r_i_glide_energy>
-51.765

> <r_i_glide_erotb>
0.619992

> <r_i_glide_esite>
-0.00265834

> <r_i_glide_evdw>
-45.6762

> <r_i_glide_gscore>
-6.18147

> <r_i_glide_hbond>
-0.448957

> <r_i_glide_ligand_efficiency>
-0.206049

> <r_i_glide_ligand_efficiency_ln>
-1.4045

> <r_i_glide_ligand_efficiency_sa>
-0.640243

> <r_i_glide_lipo>
-2.80601

> <r_i_glide_metal>
0

> <r_i_glide_rewards>
-0.346706

> <s_i_glide_gridfile>
wee1_glide-grid

> <s_m_Source_File>
wee1_decoys_glide_SP.sdf

> <s_m_Source_Path>
/Users/zhangxujun/Desktop

> <s_m_entry_id>
4953

> <s_m_entry_name>
wee1_decoys_glide_SP.4678

> <s_m_subgroup_title>
wee1_decoys_glide_SP

> <s_m_subgroupid>
wee1_decoys_glide_SP


$$$$
