@<TRIPOS>MOLECULE
ZINC20435660_947
39   40    1
SMALL
USER_CHARGES


@<TRIPOS>ATOM
      1 C1         -0.4739   47.5998   19.8925 C.ar      1 UNK         0.0000 
      2 C2          0.5656   47.3734   18.9730 C.ar      1 UNK         0.0000 
      3 C3          0.7221   46.0788   18.4620 C.ar      1 UNK         0.0000 
      4 C4         -0.1032   45.0333   18.8796 C.ar      1 UNK         0.0000 
      5 C5         -1.1258   45.2766   19.7986 C.ar      1 UNK         0.0000 
      6 C6         -1.3117   46.5615   20.3011 C.ar      1 UNK         0.0000 
      7 F7         -1.9249   44.2695   20.2213 F         1 UNK         0.0000 
      8 Br8         0.1882   43.2755   18.2040 Br        1 UNK         0.0000 
      9 C9          1.4866   48.4410   18.5503 C.2       1 UNK         0.0000 
     10 N10         1.3601   49.6446   18.9416 N.2       1 UNK         0.0000 
     11 N11         2.3044   50.4947   18.4812 N.am      1 UNK         0.0000 
     12 C12         2.2819   51.8018   18.8218 C.2       1 UNK         0.0000 
     13 O13         1.4027   52.3125   19.5303 O.2       1 UNK         0.0000 
     14 C14         3.4335   52.6941   18.3212 C.3       1 UNK         0.0000 
     15 C15         4.4179   53.2061   19.3936 C.2       1 UNK         0.0000 
     16 O16         5.6159   53.2966   19.1176 O.2       1 UNK         0.0000 
     17 N17         3.9052   53.5587   20.5921 N.am      1 UNK         0.0000 
     18 N18         4.6645   53.7904   21.6802 N.2       1 UNK         0.0000 
     19 C19         3.9643   53.9661   22.7282 C.2       1 UNK         0.0000 
     20 C20         4.5399   54.1497   24.0632 C.ar      1 UNK         0.0000 
     21 C21         3.6879   54.2008   25.1745 C.ar      1 UNK         0.0000 
     22 C22         4.1996   54.3510   26.4642 C.ar      1 UNK         0.0000 
     23 C23         5.5770   54.4497   26.6604 C.ar      1 UNK         0.0000 
     24 C24         6.4368   54.4233   25.5646 C.ar      1 UNK         0.0000 
     25 C25         5.9231   54.2780   24.2761 C.ar      1 UNK         0.0000 
     26 F26         6.0858   54.5689   27.9066 F         1 UNK         0.0000 
     27 Br27        3.0064   54.4184   27.9496 Br        1 UNK         0.0000 
     28 H28        -0.6341   48.5867   20.3086 H         1 UNK         0.0000 
     29 H29         1.5023   45.8680   17.7446 H         1 UNK         0.0000 
     30 H30        -2.1002   46.7569   21.0115 H         1 UNK         0.0000 
     31 H31         2.2875   48.1244   17.8816 H         1 UNK         0.0000 
     32 H32         3.0376   50.0922   17.9023 H         1 UNK         0.0000 
     33 H33         4.0076   52.1486   17.5735 H         1 UNK         0.0000 
     34 H34         3.0055   53.5540   17.8074 H         1 UNK         0.0000 
     35 H35         2.9052   53.5366   20.7457 H         1 UNK         0.0000 
     36 H36         2.8743   53.9791   22.7107 H         1 UNK         0.0000 
     37 H37         2.6176   54.1097   25.0529 H         1 UNK         0.0000 
     38 H38         7.5034   54.4973   25.7141 H         1 UNK         0.0000 
     39 H39         6.6127   54.2472   23.4444 H         1 UNK         0.0000 
@<TRIPOS>BOND
     1    1    6 ar   
     2    1    2 ar   
     3    1   28 1    
     4    2    3 ar   
     5    2    9 1    
     6    3    4 ar   
     7    3   29 1    
     8    4    5 ar   
     9    4    8 1    
    10    5    6 ar   
    11    5    7 1    
    12    6   30 1    
    13    9   10 2    
    14    9   31 1    
    15   10   11 1    
    16   11   12 am   BACKBONE|DICT|INTERRES
    17   11   32 1    
    18   12   13 2    
    19   12   14 1    
    20   14   15 1    
    21   14   33 1    
    22   14   34 1    
    23   15   16 2    
    24   15   17 am   BACKBONE|DICT|INTERRES
    25   17   18 1    
    26   17   35 1    
    27   18   19 2    
    28   19   20 1    
    29   19   36 1    
    30   20   25 ar   
    31   20   21 ar   
    32   21   22 ar   
    33   21   37 1    
    34   22   23 ar   
    35   22   27 1    
    36   23   24 ar   
    37   23   26 1    
    38   24   25 ar   
    39   24   38 1    
    40   25   39 1    
@<TRIPOS>SUBSTRUCTURE
     1 UNK         1 GROUP             0       ****    0 ROOT    
