@<TRIPOS>MOLECULE
ZINC38678571_4141
51   54    1
SMALL
USER_CHARGES


@<TRIPOS>ATOM
      1 C1          2.1065   56.3355   29.4077 C.3       1 UNK         0.0000 
      2 C2          2.0737   54.8254   29.2151 C.ar      1 UNK         0.0000 
      3 C3          0.9697   54.1105   29.6928 C.ar      1 UNK         0.0000 
      4 C4          0.8908   52.7319   29.5136 C.ar      1 UNK         0.0000 
      5 C5          1.9159   52.0607   28.8539 C.ar      1 UNK         0.0000 
      6 C6          3.0261   52.7637   28.3886 C.ar      1 UNK         0.0000 
      7 C7          3.1274   54.1519   28.5670 C.ar      1 UNK         0.0000 
      8 O8          4.2230   54.8967   28.1608 O.3       1 UNK         0.0000 
      9 C9          5.2438   54.3542   27.3045 C.3       1 UNK         0.0000 
     10 C10         4.8900   54.4952   25.8127 C.2       1 UNK         0.0000 
     11 O11         3.7818   54.8941   25.4482 O.2       1 UNK         0.0000 
     12 O12         5.9379   54.1640   24.9911 O.3       1 UNK         0.0000 
     13 C13         5.8165   54.2861   23.6177 C.ar      1 UNK         0.0000 
     14 C14         6.7044   55.1147   22.9282 C.ar      1 UNK         0.0000 
     15 C15         6.5764   55.2969   21.5486 C.ar      1 UNK         0.0000 
     16 C16         5.5846   54.6355   20.8073 C.ar      1 UNK         0.0000 
     17 C17         4.7481   53.7452   21.5063 C.ar      1 UNK         0.0000 
     18 C18         4.8508   53.5840   22.8844 C.ar      1 UNK         0.0000 
     19 O19         3.7869   52.9775   20.8822 O.3       1 UNK         0.0000 
     20 C20         3.5079   53.2117   19.5786 C.2       1 UNK         0.0000 
     21 C21         4.1732   54.0714   18.7848 C.2       1 UNK         0.0000 
     22 C22         5.3814   54.8595   19.2943 C.3       1 UNK         0.0000 
     23 H23         5.0878   55.8985   19.1549 H         1 UNK         0.0000 
     24 C24         6.6648   54.6457   18.4787 C.ar      1 UNK         0.0000 
     25 C25         6.9759   53.3613   18.0012 C.ar      1 UNK         0.0000 
     26 C26         8.1445   53.1393   17.2756 C.ar      1 UNK         0.0000 
     27 C27         9.0150   54.1940   17.0130 C.ar      1 UNK         0.0000 
     28 C28         8.7056   55.4776   17.4596 C.ar      1 UNK         0.0000 
     29 C29         7.5343   55.7133   18.1794 C.ar      1 UNK         0.0000 
     30 Br30        7.1590   57.5091   18.7144 Br        1 UNK         0.0000 
     31 C31         3.7594   54.2659   17.4311 C.1       1 UNK         0.0000 
     32 N32         3.4058   54.4396   16.3431 N.1       1 UNK         0.0000 
     33 N33         2.4518   52.4200   19.2240 N.pl3     1 UNK         0.0000 
     34 H34         1.4385   56.6619   30.2038 H         1 UNK         0.0000 
     35 H35         3.1039   56.6680   29.6816 H         1 UNK         0.0000 
     36 H36         1.8359   56.8408   28.4816 H         1 UNK         0.0000 
     37 H37         0.1648   54.6233   30.1991 H         1 UNK         0.0000 
     38 H38         0.0327   52.1856   29.8793 H         1 UNK         0.0000 
     39 H39         1.8492   50.9926   28.7047 H         1 UNK         0.0000 
     40 H40         3.8013   52.2022   27.8946 H         1 UNK         0.0000 
     41 H41         5.4717   53.3178   27.5439 H         1 UNK         0.0000 
     42 H42         6.1557   54.9190   27.4951 H         1 UNK         0.0000 
     43 H43         7.4763   55.6479   23.4673 H         1 UNK         0.0000 
     44 H44         7.2654   55.9642   21.0557 H         1 UNK         0.0000 
     45 H45         4.1735   52.9029   23.3792 H         1 UNK         0.0000 
     46 H46         6.3263   52.5132   18.1984 H         1 UNK         0.0000 
     47 H47         8.3782   52.1440   16.9246 H         1 UNK         0.0000 
     48 H48         9.9252   54.0203   16.4566 H         1 UNK         0.0000 
     49 H49         9.3758   56.2958   17.2412 H         1 UNK         0.0000 
     50 H50         2.0597   52.4990   18.2980 H         1 UNK         0.0000 
     51 H51         2.2932   51.5570   19.7173 H         1 UNK         0.0000 
@<TRIPOS>BOND
     1    1    2 1    
     2    1   34 1    
     3    1   35 1    
     4    1   36 1    
     5    2    7 ar   
     6    2    3 ar   
     7    3    4 ar   
     8    3   37 1    
     9    4    5 ar   
    10    4   38 1    
    11    5    6 ar   
    12    5   39 1    
    13    6    7 ar   
    14    6   40 1    
    15    7    8 1    
    16    8    9 1    
    17    9   10 1    
    18    9   41 1    
    19    9   42 1    
    20   10   11 2    
    21   10   12 1    
    22   12   13 1    
    23   13   18 ar   
    24   13   14 ar   
    25   14   15 ar   
    26   14   43 1    
    27   15   16 ar   
    28   15   44 1    
    29   16   22 1    
    30   16   17 ar   
    31   17   18 ar   
    32   17   19 1    
    33   18   45 1    
    34   19   20 1    
    35   20   21 2    
    36   20   33 1    
    37   21   22 1    
    38   21   31 1    
    39   22   23 1    
    40   22   24 1    
    41   24   29 ar   
    42   24   25 ar   
    43   25   26 ar   
    44   25   46 1    
    45   26   27 ar   
    46   26   47 1    
    47   27   28 ar   
    48   27   48 1    
    49   28   29 ar   
    50   28   49 1    
    51   29   30 1    
    52   31   32 3    
    53   33   50 1    
    54   33   51 1    
@<TRIPOS>SUBSTRUCTURE
     1 UNK         1 GROUP             0       ****    0 ROOT    
