ZINC39624659_129
                    3D
 Schrodinger Suite 2024-2.
 62 65  0  0  1  0            999 V2000
    2.6463   58.0758   16.4326 C   0  0  0  0  0  0
    3.2726   58.5373   15.0993 C   0  0  0  0  0  0
    2.4534   59.6999   14.5072 C   0  0  0  0  0  0
    4.7685   58.9334   15.2279 C   0  0  0  0  0  0
    5.6841   57.8289   15.5110 N   0  0  0  0  0  0
    5.9795   57.3774   16.7405 C   0  0  0  0  0  0
    5.5145   57.8731   17.7648 O   0  0  0  0  0  0
    7.0042   56.2188   16.8179 C   0  0  1  0  0  0
    7.6879   56.3055   15.9714 H   0  0  0  0  0  0
    7.7485   56.1955   18.1716 C   0  0  0  0  0  0
    6.8751   55.3959   19.0459 N   0  0  0  0  0  0
    5.8887   54.6439   18.2666 C   0  0  0  0  0  0
    6.3046   54.8283   16.7806 C   0  0  0  0  0  0
    7.3601   53.7801   16.3078 C   0  0  0  0  0  0
    6.8612   52.3371   16.4732 C   0  0  0  0  0  0
    5.5429   52.1628   15.6787 N   0  3  0  0  0  0
    4.4770   53.2485   15.9387 C   0  0  0  0  0  0
    5.1347   54.6325   15.7700 C   0  0  0  0  0  0
    6.9725   55.4924   20.3976 C   0  0  0  0  0  0
    7.9056   56.0962   20.9286 O   0  0  0  0  0  0
    5.9755   54.8783   21.2587 C   0  0  0  0  0  0
    4.7201   54.2935   21.0697 C   0  0  0  0  0  0
    4.2431   53.9377   22.3311 C   0  0  0  0  0  0
    5.1992   54.3250   23.2585 C   0  0  0  0  0  0
    6.2423   54.8874   22.5959 O   0  0  0  0  0  0
    5.2609   54.3073   24.7488 C   0  0  0  0  0  0
    6.4712   54.5070   25.4219 C   0  0  0  0  0  0
    6.5058   54.4962   26.8159 C   0  0  0  0  0  0
    5.3297   54.2915   27.5330 C   0  0  0  0  0  0
    4.1213   54.0972   26.8707 C   0  0  0  0  0  0
    4.0862   54.1014   25.4792 C   0  0  0  0  0  0
    5.3599   54.2857   28.8835 F   0  0  0  0  0  0
    2.7989   58.8182   17.2180 H   0  0  0  0  0  0
    1.5721   57.9126   16.3397 H   0  0  0  0  0  0
    3.0751   57.1392   16.7820 H   0  0  0  0  0  0
    3.2062   57.7064   14.3948 H   0  0  0  0  0  0
    2.4609   60.5663   15.1696 H   0  0  0  0  0  0
    2.8469   60.0184   13.5422 H   0  0  0  0  0  0
    1.4123   59.4129   14.3543 H   0  0  0  0  0  0
    4.8868   59.6965   15.9956 H   0  0  0  0  0  0
    5.1042   59.4101   14.3061 H   0  0  0  0  0  0
    6.1482   57.4176   14.7162 H   0  0  0  0  0  0
    8.7115   55.7025   18.0381 H   0  0  0  0  0  0
    7.9341   57.2114   18.5272 H   0  0  0  0  0  0
    4.9295   55.1486   18.3888 H   0  0  0  0  0  0
    5.7406   53.6104   18.5715 H   0  0  0  0  0  0
    8.2604   53.8508   16.9193 H   0  0  0  0  0  0
    7.6963   53.9747   15.2879 H   0  0  0  0  0  0
    6.6600   52.0967   17.5149 H   0  0  0  0  0  0
    7.5633   51.6003   16.0778 H   0  0  0  0  0  0
    5.1411   51.2608   15.9121 H   0  0  0  0  0  0
    4.0884   53.0653   16.9419 H   0  0  0  0  0  0
    3.6768   53.0725   15.2187 H   0  0  0  0  0  0
    5.4512   54.8098   14.7413 H   0  0  0  0  0  0
    4.3496   55.3637   15.9589 H   0  0  0  0  0  0
    4.1778   54.1482   20.1483 H   0  0  0  0  0  0
    3.2918   53.4726   22.5432 H   0  0  0  0  0  0
    7.3854   54.6644   24.8670 H   0  0  0  0  0  0
    7.4328   54.6459   27.3507 H   0  0  0  0  0  0
    3.2154   53.9415   27.4371 H   0  0  0  0  0  0
    3.1428   53.9467   24.9757 H   0  0  0  0  0  0
    5.7554   52.1397   14.6913 H   0  0  0  0  0  0
  1  2  1  0  0  0
  1 33  1  0  0  0
  1 34  1  0  0  0
  1 35  1  0  0  0
  2  3  1  0  0  0
  2  4  1  0  0  0
  2 36  1  0  0  0
  3 37  1  0  0  0
  3 38  1  0  0  0
  3 39  1  0  0  0
  4  5  1  0  0  0
  4 40  1  0  0  0
  4 41  1  0  0  0
  5  6  1  0  0  0
  5 42  1  0  0  0
  6  7  2  0  0  0
  6  8  1  0  0  0
  8  9  1  0  0  0
  8 13  1  0  0  0
  8 10  1  0  0  0
 10 11  1  0  0  0
 10 43  1  0  0  0
 10 44  1  0  0  0
 11 12  1  0  0  0
 11 19  1  0  0  0
 12 13  1  0  0  0
 12 45  1  0  0  0
 12 46  1  0  0  0
 13 18  1  0  0  0
 13 14  1  0  0  0
 14 15  1  0  0  0
 14 47  1  0  0  0
 14 48  1  0  0  0
 15 16  1  0  0  0
 15 49  1  0  0  0
 15 50  1  0  0  0
 16 17  1  0  0  0
 16 51  1  0  0  0
 16 62  1  0  0  0
 17 18  1  0  0  0
 17 52  1  0  0  0
 17 53  1  0  0  0
 18 54  1  0  0  0
 18 55  1  0  0  0
 19 20  2  0  0  0
 19 21  1  0  0  0
 21 25  1  0  0  0
 21 22  2  0  0  0
 22 23  1  0  0  0
 22 56  1  0  0  0
 23 24  2  0  0  0
 23 57  1  0  0  0
 24 25  1  0  0  0
 24 26  1  0  0  0
 26 31  2  0  0  0
 26 27  1  0  0  0
 27 28  2  0  0  0
 27 58  1  0  0  0
 28 29  1  0  0  0
 28 59  1  0  0  0
 29 30  2  0  0  0
 29 32  1  0  0  0
 30 31  1  0  0  0
 30 60  1  0  0  0
 31 61  1  0  0  0
M  CHG  1  16   1
M  END
> <i_i_glide_confnum>
187

> <i_i_glide_lignum>
130

> <i_i_glide_posenum>
221

> <i_i_glide_rotatable_bonds>
7

> <i_m_Source_File_Index>
1418

> <b_m_subgroup_collapsed>
0

> <r_i_docking_score>
-5.2891

> <r_i_glide_ecoul>
-4.32253

> <r_i_glide_eff_state_penalty>
0

> <r_i_glide_einternal>
2.89795

> <r_i_glide_emodel>
-53.1127

> <r_i_glide_energy>
-37.853

> <r_i_glide_erotb>
0.649061

> <r_i_glide_esite>
-0.0810405

> <r_i_glide_evdw>
-33.5305

> <r_i_glide_gscore>
-5.2891

> <r_i_glide_hbond>
-0.168093

> <r_i_glide_ligand_efficiency>
-0.170616

> <r_i_glide_ligand_efficiency_ln>
-1.19285

> <r_i_glide_ligand_efficiency_sa>
-0.53597

> <r_i_glide_lipo>
-2.36896

> <r_i_glide_metal>
0

> <r_i_glide_rewards>
-0.995172

> <s_i_glide_gridfile>
wee1_glide-grid

> <s_m_Source_File>
wee1_decoys_glide_SP.sdf

> <s_m_Source_Path>
/Users/zhangxujun/Desktop

> <s_m_entry_id>
1693

> <s_m_entry_name>
wee1_decoys_glide_SP.1418

> <s_m_subgroup_title>
wee1_decoys_glide_SP

> <s_m_subgroupid>
wee1_decoys_glide_SP


$$$$
