@<TRIPOS>MOLECULE
ZINC22620731_4065
64   66    1
SMALL
USER_CHARGES


@<TRIPOS>ATOM
      1 C1          0.7051   49.6359   26.3749 C.3       1 UNK         0.0000 
      2 C2         -0.1287   50.6049   25.5078 C.3       1 UNK         0.0000 
      3 H3         -0.9500   50.9908   26.1104 H         1 UNK         0.0000 
      4 C4          0.7325   51.7372   24.9001 C.ar      1 UNK         0.0000 
      5 N5          0.9686   51.8837   23.6172 N.2       1 UNK         0.0000 
      6 N6          1.7935   52.9860   23.4622 N.2       1 UNK         0.0000 
      7 C7          2.0703   53.4544   24.6516 C.ar      1 UNK         0.0000 
      8 N8          1.3861   52.7325   25.6250 N.pl3     1 UNK         0.0000 
      9 C9          1.3965   52.8763   27.0347 C.ar      1 UNK         0.0000 
     10 C10         0.1829   52.8849   27.7355 C.ar      1 UNK         0.0000 
     11 C11         0.1745   52.8061   29.1245 C.ar      1 UNK         0.0000 
     12 C12         1.3838   52.7501   29.8147 C.ar      1 UNK         0.0000 
     13 C13         2.5979   52.8293   29.1295 C.ar      1 UNK         0.0000 
     14 C14         2.6062   52.8994   27.7364 C.ar      1 UNK         0.0000 
     15 Cl15        1.3696   52.5443   31.5281 Cl        1 UNK         0.0000 
     16 S16         3.1049   54.8778   24.8811 S.3       1 UNK         0.0000 
     17 C17         4.7894   54.1863   24.7028 C.3       1 UNK         0.0000 
     18 H18         4.7282   53.1686   25.0680 H         1 UNK         0.0000 
     19 C19         5.7959   54.9045   25.6322 C.3       1 UNK         0.0000 
     20 C20         5.2271   54.0983   23.2157 C.2       1 UNK         0.0000 
     21 O21         4.6451   53.3001   22.4783 O.2       1 UNK         0.0000 
     22 N22         6.2441   54.8989   22.7989 N.am      1 UNK         0.0000 
     23 C23         6.5907   55.2929   21.5467 C.2       1 UNK         0.0000 
     24 O24         7.5088   56.0956   21.3965 O.2       1 UNK         0.0000 
     25 N25         5.9002   54.7951   20.4979 N.am      1 UNK         0.0000 
     26 C26         6.1065   55.1216   19.0857 C.3       1 UNK         0.0000 
     27 C27         5.5931   54.0180   18.1315 C.3       1 UNK         0.0000 
     28 C28         5.7931   54.3547   16.6401 C.3       1 UNK         0.0000 
     29 C29         5.2353   55.7415   16.2771 C.3       1 UNK         0.0000 
     30 C30         5.8365   56.8393   17.1688 C.3       1 UNK         0.0000 
     31 C31         5.6358   56.5397   18.6681 C.3       1 UNK         0.0000 
     32 N32        -0.8881   49.8319   24.3830 N.4       1 UNK         0.0000 
     33 C33        -1.4211   48.4327   24.7824 C.3       1 UNK         0.0000 
     34 C34        -2.0518   50.6654   23.7872 C.3       1 UNK         0.0000 
     35 H35         1.2314   50.1596   27.1709 H         1 UNK         0.0000 
     36 H36         0.0812   48.9032   26.8822 H         1 UNK         0.0000 
     37 H37         1.4455   49.0852   25.7908 H         1 UNK         0.0000 
     38 H38        -0.7618   52.8964   27.2124 H         1 UNK         0.0000 
     39 H39        -0.7700   52.7494   29.6548 H         1 UNK         0.0000 
     40 H40         3.5332   52.7977   29.6705 H         1 UNK         0.0000 
     41 H41         3.5510   52.9035   27.2130 H         1 UNK         0.0000 
     42 H42         6.7926   54.4631   25.5651 H         1 UNK         0.0000 
     43 H43         5.8751   55.9676   25.3976 H         1 UNK         0.0000 
     44 H44         5.4842   54.8255   26.6756 H         1 UNK         0.0000 
     45 H45         6.7557   55.3754   23.5241 H         1 UNK         0.0000 
     46 H46         5.1252   54.1783   20.7045 H         1 UNK         0.0000 
     47 H47         7.1901   55.1291   18.9349 H         1 UNK         0.0000 
     48 H48         4.5254   53.8714   18.3011 H         1 UNK         0.0000 
     49 H49         6.0761   53.0648   18.3547 H         1 UNK         0.0000 
     50 H50         5.3224   53.5888   16.0226 H         1 UNK         0.0000 
     51 H51         6.8571   54.3188   16.4017 H         1 UNK         0.0000 
     52 H52         4.1498   55.7377   16.3824 H         1 UNK         0.0000 
     53 H53         5.4392   55.9625   15.2288 H         1 UNK         0.0000 
     54 H54         5.3932   57.8063   16.9205 H         1 UNK         0.0000 
     55 H55         6.9031   56.9354   16.9591 H         1 UNK         0.0000 
     56 H56         6.1425   57.3032   19.2594 H         1 UNK         0.0000 
     57 H57         4.5703   56.6323   18.8813 H         1 UNK         0.0000 
     58 H58        -2.0531   48.5494   25.6684 H         1 UNK         0.0000 
     59 H59        -1.9896   48.0314   23.9369 H         1 UNK         0.0000 
     60 H60        -0.5655   47.7897   24.9888 H         1 UNK         0.0000 
     61 H61        -2.8207   50.7613   24.5580 H         1 UNK         0.0000 
     62 H62        -1.6720   51.6416   23.4897 H         1 UNK         0.0000 
     63 H63        -2.4318   50.1255   22.9189 H         1 UNK         0.0000 
     64 H64        -0.2035   49.6888   23.6493 H         1 UNK         0.0000 
@<TRIPOS>BOND
     1    1    2 1    
     2    1   35 1    
     3    1   36 1    
     4    1   37 1    
     5    2    3 1    
     6    2    4 1    
     7    2   32 1    
     8    4    8 ar   
     9    4    5 ar   
    10    5    6 ar   
    11    6    7 ar   
    12    7    8 ar   
    13    7   16 1    
    14    8    9 1    
    15    9   14 ar   
    16    9   10 ar   
    17   10   11 ar   
    18   10   38 1    
    19   11   12 ar   
    20   11   39 1    
    21   12   13 ar   
    22   12   15 1    
    23   13   14 ar   
    24   13   40 1    
    25   14   41 1    
    26   16   17 1    
    27   17   18 1    
    28   17   19 1    
    29   17   20 1    
    30   19   42 1    
    31   19   43 1    
    32   19   44 1    
    33   20   21 2    
    34   20   22 am   BACKBONE|DICT|INTERRES
    35   22   23 am   BACKBONE|DICT|INTERRES
    36   22   45 1    
    37   23   24 2    
    38   23   25 am   BACKBONE|DICT|INTERRES
    39   25   26 1    
    40   25   46 1    
    41   26   31 1    
    42   26   27 1    
    43   26   47 1    
    44   27   28 1    
    45   27   48 1    
    46   27   49 1    
    47   28   29 1    
    48   28   50 1    
    49   28   51 1    
    50   29   30 1    
    51   29   52 1    
    52   29   53 1    
    53   30   31 1    
    54   30   54 1    
    55   30   55 1    
    56   31   56 1    
    57   31   57 1    
    58   32   33 1    
    59   32   34 1    
    60   32   64 1    
    61   33   58 1    
    62   33   59 1    
    63   33   60 1    
    64   34   61 1    
    65   34   62 1    
    66   34   63 1    
@<TRIPOS>SUBSTRUCTURE
     1 UNK         1 GROUP             0       ****    0 ROOT    
