@<TRIPOS>MOLECULE
ZINC44658374_1145
59   63    1
SMALL
USER_CHARGES


@<TRIPOS>ATOM
      1 C1          3.1852   56.2189   16.9202 C.3       1 UNK         0.0000 
      2 C2          4.3121   56.2554   17.9641 C.3       1 UNK         0.0000 
      3 H3          3.9054   56.6759   18.8813 H         1 UNK         0.0000 
      4 C4          5.4831   57.1709   17.5290 C.3       1 UNK         0.0000 
      5 C5          6.6587   57.1260   18.5285 C.3       1 UNK         0.0000 
      6 C6          7.0798   55.6721   18.8510 C.3       1 UNK         0.0000 
      7 N7          5.8765   54.9741   19.3407 N.am      1 UNK         0.0000 
      8 C8          4.8191   54.8330   18.3189 C.3       1 UNK         0.0000 
      9 C9          5.6262   54.8968   20.6760 C.2       1 UNK         0.0000 
     10 O10         6.4411   55.2896   21.5158 O.2       1 UNK         0.0000 
     11 C11         4.3496   54.1706   21.1488 C.3       1 UNK         0.0000 
     12 S12         4.3400   53.6970   22.9116 S.3       1 UNK         0.0000 
     13 C13         2.5801   53.8281   23.3934 C.3       1 UNK         0.0000 
     14 H14         2.3696   54.8924   23.5183 H         1 UNK         0.0000 
     15 N15         1.6874   53.2921   22.3805 N.pl3     1 UNK         0.0000 
     16 N16         0.6455   52.5690   22.9295 N.2       1 UNK         0.0000 
     17 C17         0.9306   52.4219   24.1457 C.2       1 UNK         0.0000 
     18 N18         2.0857   53.0791   24.5688 N.pl3     1 UNK         0.0000 
     19 C19         2.5156   53.4263   25.8873 C.ar      1 UNK         0.0000 
     20 C20         1.6074   53.4908   26.9602 C.ar      1 UNK         0.0000 
     21 C21         2.0202   53.8243   28.2470 C.ar      1 UNK         0.0000 
     22 C22         3.3614   54.0964   28.4890 C.ar      1 UNK         0.0000 
     23 C23         4.2850   54.0423   27.4542 C.ar      1 UNK         0.0000 
     24 C24         3.8623   53.7104   26.1713 C.ar      1 UNK         0.0000 
     25 Cl25        3.8882   54.4907   30.0801 Cl        1 UNK         0.0000 
     26 C26         0.0546   51.6313   24.9864 C.2       1 UNK         0.0000 
     27 C27        -1.2895   51.7556   25.0614 C.2       1 UNK         0.0000 
     28 C28        -2.2452   52.6586   24.3935 C.2       1 UNK         0.0000 
     29 C29        -3.5648   52.5915   24.6621 C.2       1 UNK         0.0000 
     30 C30        -4.0158   51.6006   25.6300 C.2       1 UNK         0.0000 
     31 C31        -3.1508   50.7596   26.2554 C.2       1 UNK         0.0000 
     32 C32        -1.7794   50.8215   25.9816 C.2       1 UNK         0.0000 
     33 N33        -0.8063   50.0967   26.4817 N.pl3     1 UNK         0.0000 
     34 C34         0.4898   50.5137   25.9148 C.3       1 UNK         0.0000 
     35 H35         3.5287   55.7989   15.9740 H         1 UNK         0.0000 
     36 H36         2.8028   57.2206   16.7202 H         1 UNK         0.0000 
     37 H37         2.3464   55.6148   17.2679 H         1 UNK         0.0000 
     38 H38         5.8470   56.8372   16.5556 H         1 UNK         0.0000 
     39 H39         5.1369   58.1932   17.3646 H         1 UNK         0.0000 
     40 H40         7.5100   57.6713   18.1194 H         1 UNK         0.0000 
     41 H41         6.3874   57.6470   19.4479 H         1 UNK         0.0000 
     42 H42         7.3998   55.1598   17.9423 H         1 UNK         0.0000 
     43 H43         7.9335   55.5731   19.5246 H         1 UNK         0.0000 
     44 H44         4.0342   54.1300   18.5965 H         1 UNK         0.0000 
     45 H45         5.2626   54.3621   17.4401 H         1 UNK         0.0000 
     46 H46         3.5075   54.8337   20.9575 H         1 UNK         0.0000 
     47 H47         4.1963   53.2570   20.5744 H         1 UNK         0.0000 
     48 H48         1.3538   53.8951   21.6373 H         1 UNK         0.0000 
     49 H49         0.5578   53.2969   26.8181 H         1 UNK         0.0000 
     50 H50         1.3006   53.8683   29.0515 H         1 UNK         0.0000 
     51 H51         5.3299   54.2425   27.6446 H         1 UNK         0.0000 
     52 H52         4.6313   53.6439   25.4264 H         1 UNK         0.0000 
     53 H53        -1.9137   53.3975   23.6783 H         1 UNK         0.0000 
     54 H54        -4.2694   53.2522   24.1768 H         1 UNK         0.0000 
     55 H55        -5.0707   51.5312   25.8567 H         1 UNK         0.0000 
     56 H56        -3.5356   50.0413   26.9674 H         1 UNK         0.0000 
     57 H57         0.9338   49.6536   25.4084 H         1 UNK         0.0000 
     58 H58         1.1131   50.8308   26.7485 H         1 UNK         0.0000 
     59 H59        -0.9326   49.3502   27.1809 H         1 UNK         0.0000 
@<TRIPOS>BOND
     1    1    2 1    
     2    1   35 1    
     3    1   36 1    
     4    1   37 1    
     5    2    3 1    
     6    2    8 1    
     7    2    4 1    
     8    4    5 1    
     9    4   38 1    
    10    4   39 1    
    11    5    6 1    
    12    5   40 1    
    13    5   41 1    
    14    6    7 1    
    15    6   42 1    
    16    6   43 1    
    17    7    8 1    
    18    7    9 am   BACKBONE|DICT|INTERRES
    19    8   44 1    
    20    8   45 1    
    21    9   10 2    
    22    9   11 1    
    23   11   12 1    
    24   11   46 1    
    25   11   47 1    
    26   12   13 1    
    27   13   14 1    
    28   13   18 1    
    29   13   15 1    
    30   15   16 1    
    31   15   48 1    
    32   16   17 2    
    33   17   18 1    
    34   17   26 1    
    35   18   19 1    
    36   19   24 ar   
    37   19   20 ar   
    38   20   21 ar   
    39   20   49 1    
    40   21   22 ar   
    41   21   50 1    
    42   22   23 ar   
    43   22   25 1    
    44   23   24 ar   
    45   23   51 1    
    46   24   52 1    
    47   26   34 1    
    48   26   27 2    
    49   27   32 1    
    50   27   28 1    
    51   28   29 2    
    52   28   53 1    
    53   29   30 1    
    54   29   54 1    
    55   30   31 2    
    56   30   55 1    
    57   31   32 1    
    58   31   56 1    
    59   32   33 2    
    60   33   34 1    
    61   33   59 1    
    62   34   57 1    
    63   34   58 1    
@<TRIPOS>SUBSTRUCTURE
     1 UNK         1 GROUP             0       ****    0 ROOT    
