@<TRIPOS>MOLECULE
ZINC37835134_1634
44   45    1
SMALL
USER_CHARGES


@<TRIPOS>ATOM
      1 C1          5.1264   54.3709   25.6898 C.3       1 UNK         0.0000 
      2 C2          6.1069   54.4896   26.8809 C.3       1 UNK         0.0000 
      3 C3          5.7304   53.5096   28.0077 C.3       1 UNK         0.0000 
      4 C4          4.2694   53.7667   28.4546 C.3       1 UNK         0.0000 
      5 H5          4.2059   54.8027   28.7959 H         1 UNK         0.0000 
      6 C6          3.2883   53.5168   27.2641 C.3       1 UNK         0.0000 
      7 H7          3.4104   52.5135   26.8665 H         1 UNK         0.0000 
      8 C8          3.6384   54.4967   26.1046 C.3       1 UNK         0.0000 
      9 C9          1.8027   53.7427   27.6875 C.2       1 UNK         0.0000 
     10 O10         1.4491   54.8957   27.9520 O.2       1 UNK         0.0000 
     11 N11         0.9268   52.7018   27.7126 N.am      1 UNK         0.0000 
     12 C12         1.3092   51.2822   27.6863 C.3       1 UNK         0.0000 
     13 C13         0.6798   50.6764   26.4136 C.3       1 UNK         0.0000 
     14 C14        -0.8625   50.8333   26.4100 C.3       1 UNK         0.0000 
     15 C15        -1.2136   52.3204   26.6542 C.3       1 UNK         0.0000 
     16 C16        -0.5152   52.9145   27.9048 C.3       1 UNK         0.0000 
     17 C17        -1.5657   50.2898   25.1341 C.3       1 UNK         0.0000 
     18 C18        -1.2512   48.8392   24.7400 C.2       1 UNK         0.0000 
     19 O19        -0.9858   48.5503   23.5770 O.2       1 UNK         0.0000 
     20 N20        -1.2956   47.9029   25.6817 N.am      1 UNK         0.0000 
     21 C21         3.9089   52.8900   29.6770 C.2       1 UNK         0.0000 
     22 O22         4.2817   51.6967   29.7033 O.co2     1 UNK         0.0000 
     23 O23         3.1044   53.3974   30.4817 O.co2     1 UNK         0.0000 
     24 H24         5.3654   55.1273   24.9410 H         1 UNK         0.0000 
     25 H25         5.2798   53.4084   25.2000 H         1 UNK         0.0000 
     26 H26         6.1079   55.5105   27.2646 H         1 UNK         0.0000 
     27 H27         7.1243   54.2909   26.5431 H         1 UNK         0.0000 
     28 H28         6.4269   53.6353   28.8391 H         1 UNK         0.0000 
     29 H29         5.8452   52.4967   27.6249 H         1 UNK         0.0000 
     30 H30         3.0492   54.2752   25.2128 H         1 UNK         0.0000 
     31 H31         3.5057   55.5344   26.4082 H         1 UNK         0.0000 
     32 H32         0.8472   50.8381   28.5682 H         1 UNK         0.0000 
     33 H33         2.3646   51.0768   27.8394 H         1 UNK         0.0000 
     34 H34         0.9532   49.6237   26.3294 H         1 UNK         0.0000 
     35 H35         1.1044   51.1494   25.5265 H         1 UNK         0.0000 
     36 H36        -1.2363   50.2949   27.2817 H         1 UNK         0.0000 
     37 H37        -0.9388   52.8967   25.7713 H         1 UNK         0.0000 
     38 H38        -2.2944   52.4385   26.7371 H         1 UNK         0.0000 
     39 H39        -0.8182   52.3690   28.8001 H         1 UNK         0.0000 
     40 H40        -0.7744   53.9592   28.0817 H         1 UNK         0.0000 
     41 H41        -1.2982   50.9224   24.2865 H         1 UNK         0.0000 
     42 H42        -2.6473   50.3737   25.2409 H         1 UNK         0.0000 
     43 H43        -1.4039   48.1380   26.6730 H         1 UNK         0.0000 
     44 H44        -1.0469   46.9567   25.4488 H         1 UNK         0.0000 
@<TRIPOS>BOND
     1    1    8 1    
     2    1    2 1    
     3    1   24 1    
     4    1   25 1    
     5    2    3 1    
     6    2   26 1    
     7    2   27 1    
     8    3    4 1    
     9    3   28 1    
    10    3   29 1    
    11    4    5 1    
    12    4    6 1    
    13    4   21 1    
    14    6    7 1    
    15    6    8 1    
    16    6    9 1    
    17    8   30 1    
    18    8   31 1    
    19    9   10 2    
    20    9   11 am   BACKBONE|DICT|INTERRES
    21   11   16 1    
    22   11   12 1    
    23   12   13 1    
    24   12   32 1    
    25   12   33 1    
    26   13   14 1    
    27   13   34 1    
    28   13   35 1    
    29   14   15 1    
    30   14   17 1    
    31   14   36 1    
    32   15   16 1    
    33   15   37 1    
    34   15   38 1    
    35   16   39 1    
    36   16   40 1    
    37   17   18 1    
    38   17   41 1    
    39   17   42 1    
    40   18   19 2    
    41   18   20 am   BACKBONE|DICT|INTERRES
    42   20   43 1    
    43   20   44 1    
    44   21   22 2    
    45   21   23 1    
@<TRIPOS>SUBSTRUCTURE
     1 UNK         1 GROUP             0       ****    0 ROOT    
