ZINC34921062_980
                    3D
 Schrodinger Suite 2024-2.
 53 57  0  0  1  0            999 V2000
    7.2247   53.5404   28.2436 C   0  0  0  0  0  0
    5.7996   53.8116   27.8580 C   0  0  0  0  0  0
    4.6520   54.1917   28.5330 C   0  0  0  0  0  0
    3.6590   54.3615   27.5622 C   0  0  0  0  0  0
    4.2516   54.0987   26.3320 C   0  0  0  0  0  0
    5.5273   53.6961   26.5388 O   0  0  0  0  0  0
    3.7281   54.1498   24.9664 C   0  0  0  0  0  0
    2.5087   54.0967   24.8165 O   0  0  0  0  0  0
    4.6325   54.3420   23.8012 C   0  0  0  0  0  0
    5.9106   54.7619   23.7324 C   0  0  0  0  0  0
    6.3889   54.8967   22.3660 C   0  0  0  0  0  0
    7.4975   55.2969   21.9930 O   0  0  0  0  0  0
    5.3404   54.5685   21.5649 N   0  0  0  0  0  0
    4.1521   54.2218   22.3701 C   0  0  1  0  0  0
    3.4093   54.9970   22.1682 H   0  0  0  0  0  0
    3.4367   52.9100   21.9865 C   0  0  0  0  0  0
    4.0884   51.8964   21.2814 C   0  0  0  0  0  0
    3.3738   50.8104   20.7916 C   0  0  0  0  0  0
    2.0050   50.6561   21.0594 C   0  0  0  0  0  0
    1.3491   51.6444   21.8068 C   0  0  0  0  0  0
    2.0605   52.7843   22.2086 C   0  0  0  0  0  0
    0.0086   51.4655   22.0944 O   0  0  0  0  0  0
   -0.5030   52.0389   23.2960 C   0  0  0  0  0  0
    1.2622   49.5699   20.6280 O   0  0  0  0  0  0
    1.8984   48.5547   19.8554 C   0  0  0  0  0  0
    5.3140   54.6370   20.1564 C   0  0  0  0  0  0
    4.2090   54.4970   19.4791 N   0  0  0  0  0  0
    4.4009   54.5731   18.1393 C   0  0  0  0  0  0
    3.3844   54.4543   17.1822 C   0  0  0  0  0  0
    3.7302   54.5484   15.8324 C   0  0  0  0  0  0
    5.0522   54.7635   15.4361 C   0  0  0  0  0  0
    6.0776   54.8923   16.3750 C   0  0  0  0  0  0
    5.7398   54.7941   17.7319 C   0  0  0  0  0  0
    6.7523   54.8992   19.1624 S   0  0  0  0  0  0
    5.4273   54.8728   13.7553 Cl  0  0  0  0  0  0
    6.7044   55.1699   24.6625 O   0  5  0  0  0  0
    7.4240   53.7751   29.2830 H   0  0  0  0  0  0
    7.5037   52.4994   28.0809 H   0  0  0  0  0  0
    7.9015   54.1565   27.6509 H   0  0  0  0  0  0
    4.5564   54.3533   29.5953 H   0  0  0  0  0  0
    2.6375   54.6752   27.7265 H   0  0  0  0  0  0
    5.1397   51.9752   21.0495 H   0  0  0  0  0  0
    3.9044   50.0966   20.1876 H   0  0  0  0  0  0
    1.5366   53.5955   22.6848 H   0  0  0  0  0  0
   -1.5129   51.6673   23.4633 H   0  0  0  0  0  0
    0.0981   51.7499   24.1589 H   0  0  0  0  0  0
   -0.5588   53.1256   23.2614 H   0  0  0  0  0  0
    1.1694   47.7879   19.5937 H   0  0  0  0  0  0
    2.7005   48.0697   20.4144 H   0  0  0  0  0  0
    2.3039   48.9532   18.9232 H   0  0  0  0  0  0
    2.3616   54.2867   17.4874 H   0  0  0  0  0  0
    2.9617   54.4490   15.0789 H   0  0  0  0  0  0
    7.0981   55.0585   16.0624 H   0  0  0  0  0  0
  1  2  1  0  0  0
  1 37  1  0  0  0
  1 38  1  0  0  0
  1 39  1  0  0  0
  2  6  1  0  0  0
  2  3  2  0  0  0
  3  4  1  0  0  0
  3 40  1  0  0  0
  4  5  2  0  0  0
  4 41  1  0  0  0
  5  6  1  0  0  0
  5  7  1  0  0  0
  7  8  2  0  0  0
  7  9  1  0  0  0
  9 14  1  0  0  0
  9 10  2  0  0  0
 10 11  1  0  0  0
 10 36  1  0  0  0
 11 12  2  0  0  0
 11 13  1  0  0  0
 13 14  1  0  0  0
 13 26  1  0  0  0
 14 15  1  0  0  0
 14 16  1  0  0  0
 16 21  2  0  0  0
 16 17  1  0  0  0
 17 18  2  0  0  0
 17 42  1  0  0  0
 18 19  1  0  0  0
 18 43  1  0  0  0
 19 20  2  0  0  0
 19 24  1  0  0  0
 20 21  1  0  0  0
 20 22  1  0  0  0
 21 44  1  0  0  0
 22 23  1  0  0  0
 23 45  1  0  0  0
 23 46  1  0  0  0
 23 47  1  0  0  0
 24 25  1  0  0  0
 25 48  1  0  0  0
 25 49  1  0  0  0
 25 50  1  0  0  0
 26 34  1  0  0  0
 26 27  2  0  0  0
 27 28  1  0  0  0
 28 33  2  0  0  0
 28 29  1  0  0  0
 29 30  2  0  0  0
 29 51  1  0  0  0
 30 31  1  0  0  0
 30 52  1  0  0  0
 31 32  2  0  0  0
 31 35  1  0  0  0
 32 33  1  0  0  0
 32 53  1  0  0  0
 33 34  1  0  0  0
M  CHG  1  36  -1
M  END
> <i_i_glide_confnum>
2

> <i_i_glide_lignum>
981

> <i_i_glide_posenum>
8

> <i_i_glide_rotatable_bonds>
6

> <i_m_Source_File_Index>
2887

> <b_m_subgroup_collapsed>
0

> <r_i_docking_score>
-4.81563

> <r_i_glide_ecoul>
2.00697

> <r_i_glide_eff_state_penalty>
0

> <r_i_glide_einternal>
7.14063

> <r_i_glide_emodel>
-55.075

> <r_i_glide_energy>
-42.8422

> <r_i_glide_erotb>
0.315081

> <r_i_glide_esite>
0

> <r_i_glide_evdw>
-44.8491

> <r_i_glide_gscore>
-4.81563

> <r_i_glide_hbond>
0

> <r_i_glide_ligand_efficiency>
-0.137589

> <r_i_glide_ligand_efficiency_ln>
-1.05714

> <r_i_glide_ligand_efficiency_sa>
-0.450064

> <r_i_glide_lipo>
-2.23462

> <r_i_glide_metal>
0

> <r_i_glide_rewards>
-0.954676

> <s_i_glide_gridfile>
wee1_glide-grid

> <s_m_Source_File>
wee1_decoys_glide_SP.sdf

> <s_m_Source_Path>
/Users/zhangxujun/Desktop

> <s_m_entry_id>
3162

> <s_m_entry_name>
wee1_decoys_glide_SP.2887

> <s_m_subgroup_title>
wee1_decoys_glide_SP

> <s_m_subgroupid>
wee1_decoys_glide_SP


$$$$
