@<TRIPOS>MOLECULE
ZINC00648179_5218
45   48    1
SMALL
USER_CHARGES


@<TRIPOS>ATOM
      1 C1         -2.5965   51.0314   28.0542 C.ar      1 UNK         0.0000 
      2 C2         -3.9759   50.8994   27.9245 C.ar      1 UNK         0.0000 
      3 C3         -4.6407   51.5736   26.9032 C.ar      1 UNK         0.0000 
      4 C4         -3.9350   52.3720   26.0073 C.ar      1 UNK         0.0000 
      5 C5         -2.5545   52.4968   26.1356 C.ar      1 UNK         0.0000 
      6 C6         -1.8714   51.8250   27.1597 C.ar      1 UNK         0.0000 
      7 C7         -0.3564   51.9883   27.3367 C.3       1 UNK         0.0000 
      8 H8         -0.0167   51.0477   27.7756 H         1 UNK         0.0000 
      9 C9         -0.0148   53.1350   28.3361 C.3       1 UNK         0.0000 
     10 C10         1.4933   53.4905   28.4484 C.3       1 UNK         0.0000 
     11 H11         1.5929   54.4875   28.8811 H         1 UNK         0.0000 
     12 N12         2.0118   53.5530   27.0795 N.pl3     1 UNK         0.0000 
     13 C13         1.5037   52.8869   25.9869 C.ar      1 UNK         0.0000 
     14 C14         2.3343   53.2092   24.9408 C.ar      1 UNK         0.0000 
     15 C15         3.3860   53.9770   25.4851 C.ar      1 UNK         0.0000 
     16 N16         3.1618   54.1814   26.7719 N.2       1 UNK         0.0000 
     17 C17         4.5369   54.4965   24.7686 C.2       1 UNK         0.0000 
     18 O18         5.3450   55.2487   25.3186 O.2       1 UNK         0.0000 
     19 N19         4.5995   54.0967   23.4761 N.am      1 UNK         0.0000 
     20 C20         5.4817   54.4967   22.4569 C.ar      1 UNK         0.0000 
     21 C21         6.7046   55.1444   22.6838 C.ar      1 UNK         0.0000 
     22 C22         7.4848   55.5565   21.6070 C.ar      1 UNK         0.0000 
     23 C23         7.0566   55.3089   20.3059 C.ar      1 UNK         0.0000 
     24 C24         5.8508   54.6525   20.0705 C.ar      1 UNK         0.0000 
     25 C25         5.0672   54.2418   21.1462 C.ar      1 UNK         0.0000 
     26 Cl26        8.0377   55.8119   18.9800 Cl        1 UNK         0.0000 
     27 N27         0.3529   52.1342   26.0578 N.pl3     1 UNK         0.0000 
     28 C28         2.2931   52.5353   29.3625 C.3       1 UNK         0.0000 
     29 F29         2.3044   51.2964   28.8818 F         1 UNK         0.0000 
     30 F30         3.5606   52.9247   29.5049 F         1 UNK         0.0000 
     31 F31         1.7657   52.4790   30.5857 F         1 UNK         0.0000 
     32 Br32       -6.5292   51.4106   26.7355 Br        1 UNK         0.0000 
     33 H33        -2.0958   50.4973   28.8505 H         1 UNK         0.0000 
     34 H34        -4.5218   50.2728   28.6146 H         1 UNK         0.0000 
     35 H35        -4.4564   52.8933   25.2180 H         1 UNK         0.0000 
     36 H36        -2.0178   53.1249   25.4404 H         1 UNK         0.0000 
     37 H37        -0.4090   52.8751   29.3204 H         1 UNK         0.0000 
     38 H38        -0.5511   54.0475   28.0816 H         1 UNK         0.0000 
     39 H39         2.2050   52.8829   23.9199 H         1 UNK         0.0000 
     40 H40         3.8534   53.4935   23.1706 H         1 UNK         0.0000 
     41 H41         7.0744   55.3389   23.6783 H         1 UNK         0.0000 
     42 H42         8.4265   56.0568   21.7844 H         1 UNK         0.0000 
     43 H43         5.5238   54.4586   19.0590 H         1 UNK         0.0000 
     44 H44         4.1274   53.7459   20.9471 H         1 UNK         0.0000 
     45 H45         0.2408   51.3218   25.4680 H         1 UNK         0.0000 
@<TRIPOS>BOND
     1    1    6 ar   
     2    1    2 ar   
     3    1   33 1    
     4    2    3 ar   
     5    2   34 1    
     6    3    4 ar   
     7    3   32 1    
     8    4    5 ar   
     9    4   35 1    
    10    5    6 ar   
    11    5   36 1    
    12    6    7 1    
    13    7    8 1    
    14    7   27 1    
    15    7    9 1    
    16    9   10 1    
    17    9   37 1    
    18    9   38 1    
    19   10   11 1    
    20   10   12 1    
    21   10   28 1    
    22   12   16 ar   
    23   12   13 ar   
    24   13   14 ar   
    25   13   27 1    
    26   14   15 ar   
    27   14   39 1    
    28   15   16 ar   
    29   15   17 1    
    30   17   18 2    
    31   17   19 am   BACKBONE|DICT|INTERRES
    32   19   20 1    
    33   19   40 1    
    34   20   25 ar   
    35   20   21 ar   
    36   21   22 ar   
    37   21   41 1    
    38   22   23 ar   
    39   22   42 1    
    40   23   24 ar   
    41   23   26 1    
    42   24   25 ar   
    43   24   43 1    
    44   25   44 1    
    45   27   45 1    
    46   28   29 1    
    47   28   30 1    
    48   28   31 1    
@<TRIPOS>SUBSTRUCTURE
     1 UNK         1 GROUP             0       ****    0 ROOT    
