ZINC32938687_3733
                    3D
 Schrodinger Suite 2024-2.
 61 64  0  0  1  0            999 V2000
    9.5999   54.4256   17.4892 C   0  0  0  0  0  0
    8.6850   53.4687   17.2640 C   0  0  0  0  0  0
    7.2827   53.7220   16.7362 C   0  0  0  0  0  0
    6.2297   53.2936   17.6548 N   0  0  0  0  0  0
    5.9006   53.9295   18.7882 C   0  0  0  0  0  0
    6.3317   55.0399   19.1018 O   0  0  0  0  0  0
    5.0718   53.1792   19.5369 N   0  0  0  0  0  0
    4.6575   53.4263   20.8556 C   0  0  0  0  0  0
    5.4593   54.0981   21.7865 C   0  0  0  0  0  0
    5.0465   54.2147   23.1067 C   0  0  0  0  0  0
    3.8063   53.6966   23.5043 C   0  0  0  0  0  0
    2.9961   53.0497   22.5676 C   0  0  0  0  0  0
    3.4275   52.8996   21.2517 C   0  0  0  0  0  0
    3.3554   53.6941   24.8362 N   0  0  0  0  0  0
    3.8339   54.3538   25.9099 C   0  0  0  0  0  0
    4.6256   55.2946   25.8137 O   0  0  0  0  0  0
    3.3809   53.8853   27.2910 C   0  0  0  0  0  0
    4.1836   54.2797   28.3771 C   0  0  0  0  0  0
    3.8944   53.9001   29.6811 C   0  0  0  0  0  0
    2.7917   53.0993   29.9442 C   0  0  0  0  0  0
    1.9720   52.6942   28.8984 C   0  0  0  0  0  0
    2.2440   53.0660   27.5735 C   0  0  0  0  0  0
    1.1037   52.4972   26.3206 S   0  0  0  0  0  0
   -0.3458   51.6843   27.0655 C   0  0  0  0  0  0
   -1.3643   51.2738   25.9906 C   0  0  0  0  0  0
   -2.2634   52.0783   25.7358 O   0  0  0  0  0  0
   -1.2344   50.0740   25.3562 N   0  0  0  0  0  0
   -0.0828   49.1937   25.6017 C   0  0  0  0  0  0
   -0.2547   48.0063   24.6680 C   0  0  0  0  0  0
   -1.2985   48.4788   23.7031 C   0  0  0  0  0  0
   -1.8755   49.6648   24.1665 C   0  0  0  0  0  0
   -3.0120   50.1769   23.5249 C   0  0  0  0  0  0
   -3.5055   49.5488   22.3794 C   0  0  0  0  0  0
   -2.8968   48.3881   21.8964 C   0  0  0  0  0  0
   -1.8039   47.8414   22.5684 C   0  0  0  0  0  0
    9.3836   55.4671   17.3001 H   0  0  0  0  0  0
   10.5802   54.1786   17.8731 H   0  0  0  0  0  0
    8.9404   52.4388   17.4705 H   0  0  0  0  0  0
    7.1363   54.7645   16.4403 H   0  0  0  0  0  0
    7.1703   53.1316   15.8248 H   0  0  0  0  0  0
    5.8967   52.3441   17.5416 H   0  0  0  0  0  0
    4.6888   52.3524   19.0985 H   0  0  0  0  0  0
    6.4252   54.4959   21.5141 H   0  0  0  0  0  0
    5.7216   54.6899   23.8007 H   0  0  0  0  0  0
    2.0443   52.6282   22.8589 H   0  0  0  0  0  0
    2.8015   52.3745   20.5448 H   0  0  0  0  0  0
    2.6036   53.0470   25.0332 H   0  0  0  0  0  0
    5.0608   54.8956   28.2230 H   0  0  0  0  0  0
    4.5374   54.2319   30.4802 H   0  0  0  0  0  0
    2.5642   52.7920   30.9549 H   0  0  0  0  0  0
    1.1232   52.0771   29.1443 H   0  0  0  0  0  0
   -0.0568   50.8227   27.6688 H   0  0  0  0  0  0
   -0.8307   52.3742   27.7585 H   0  0  0  0  0  0
    0.7887   49.7475   25.2452 H   0  0  0  0  0  0
    0.1318   48.9273   26.6362 H   0  0  0  0  0  0
    0.6975   47.6991   24.2385 H   0  0  0  0  0  0
   -0.6415   47.1643   25.2414 H   0  0  0  0  0  0
   -3.5179   51.0582   23.8887 H   0  0  0  0  0  0
   -4.3676   49.9545   21.8739 H   0  0  0  0  0  0
   -3.2894   47.8982   21.0164 H   0  0  0  0  0  0
   -1.3687   46.9173   22.2147 H   0  0  0  0  0  0
  1  2  2  0  0  0
  1 36  1  0  0  0
  1 37  1  0  0  0
  2  3  1  0  0  0
  2 38  1  0  0  0
  3  4  1  0  0  0
  3 39  1  0  0  0
  3 40  1  0  0  0
  4  5  1  0  0  0
  4 41  1  0  0  0
  5  6  2  0  0  0
  5  7  1  0  0  0
  7  8  1  0  0  0
  7 42  1  0  0  0
  8 13  2  0  0  0
  8  9  1  0  0  0
  9 10  2  0  0  0
  9 43  1  0  0  0
 10 11  1  0  0  0
 10 44  1  0  0  0
 11 12  2  0  0  0
 11 14  1  0  0  0
 12 13  1  0  0  0
 12 45  1  0  0  0
 13 46  1  0  0  0
 14 15  1  0  0  0
 14 47  1  0  0  0
 15 16  2  0  0  0
 15 17  1  0  0  0
 17 22  2  0  0  0
 17 18  1  0  0  0
 18 19  2  0  0  0
 18 48  1  0  0  0
 19 20  1  0  0  0
 19 49  1  0  0  0
 20 21  2  0  0  0
 20 50  1  0  0  0
 21 22  1  0  0  0
 21 51  1  0  0  0
 22 23  1  0  0  0
 23 24  1  0  0  0
 24 25  1  0  0  0
 24 52  1  0  0  0
 24 53  1  0  0  0
 25 26  2  0  0  0
 25 27  1  0  0  0
 27 31  1  0  0  0
 27 28  1  0  0  0
 28 29  1  0  0  0
 28 54  1  0  0  0
 28 55  1  0  0  0
 29 30  1  0  0  0
 29 56  1  0  0  0
 29 57  1  0  0  0
 30 35  2  0  0  0
 30 31  1  0  0  0
 31 32  2  0  0  0
 32 33  1  0  0  0
 32 58  1  0  0  0
 33 34  2  0  0  0
 33 59  1  0  0  0
 34 35  1  0  0  0
 34 60  1  0  0  0
 35 61  1  0  0  0
M  END
> <i_i_glide_confnum>
13

> <i_i_glide_lignum>
3734

> <i_i_glide_posenum>
362

> <i_i_glide_rotatable_bonds>
12

> <i_m_Source_File_Index>
1311

> <b_m_subgroup_collapsed>
0

> <r_i_docking_score>
-4.74505

> <r_i_glide_ecoul>
-4.70864

> <r_i_glide_eff_state_penalty>
0

> <r_i_glide_einternal>
10.4413

> <r_i_glide_emodel>
-60.0939

> <r_i_glide_energy>
-49.4246

> <r_i_glide_erotb>
0.944206

> <r_i_glide_esite>
-0.224425

> <r_i_glide_evdw>
-44.716

> <r_i_glide_gscore>
-4.74505

> <r_i_glide_hbond>
-0.170964

> <r_i_glide_ligand_efficiency>
-0.135573

> <r_i_glide_ligand_efficiency_ln>
-1.04164

> <r_i_glide_ligand_efficiency_sa>
-0.443468

> <r_i_glide_lipo>
-2.01052

> <r_i_glide_metal>
0

> <r_i_glide_rewards>
-0.341251

> <s_i_glide_gridfile>
wee1_glide-grid

> <s_m_Source_File>
wee1_decoys_glide_SP.sdf

> <s_m_Source_Path>
/Users/zhangxujun/Desktop

> <s_m_entry_id>
1586

> <s_m_entry_name>
wee1_decoys_glide_SP.1311

> <s_m_subgroup_title>
wee1_decoys_glide_SP

> <s_m_subgroupid>
wee1_decoys_glide_SP


$$$$
