@<TRIPOS>MOLECULE
ZINC12767399_5184
54   57    1
SMALL
USER_CHARGES


@<TRIPOS>ATOM
      1 C1          5.4865   52.9931   22.5189 C.3       1 UNK         0.0000 
      2 C2          5.0793   53.5362   21.1592 C.ar      1 UNK         0.0000 
      3 C3          5.6770   54.7250   20.7291 C.ar      1 UNK         0.0000 
      4 C4          5.4479   55.2134   19.4460 C.ar      1 UNK         0.0000 
      5 C5          4.6097   54.5168   18.5778 C.ar      1 UNK         0.0000 
      6 C6          3.9949   53.3367   18.9978 C.ar      1 UNK         0.0000 
      7 C7          4.2011   52.8469   20.2917 C.ar      1 UNK         0.0000 
      8 N8          3.5426   51.6452   20.6190 N.am      1 UNK         0.0000 
      9 C9          2.7252   51.4445   21.6781 C.2       1 UNK         0.0000 
     10 O10         2.4513   52.3262   22.4951 O.2       1 UNK         0.0000 
     11 C11         2.1177   50.0281   21.7970 C.3       1 UNK         0.0000 
     12 N12         1.6617   49.6967   23.1573 N.am      1 UNK         0.0000 
     13 C13         0.4617   50.0232   23.6741 C.2       1 UNK         0.0000 
     14 O14        -0.3694   50.6588   23.0240 O.2       1 UNK         0.0000 
     15 C15         0.1597   49.5224   25.1224 C.3       1 UNK         0.0000 
     16 H16         1.0843   49.0801   25.5000 H         1 UNK         0.0000 
     17 C17        -0.9388   48.4221   25.0795 C.3       1 UNK         0.0000 
     18 C18        -2.3560   48.9310   24.7286 C.3       1 UNK         0.0000 
     19 C19        -2.7868   50.0960   25.6444 C.3       1 UNK         0.0000 
     20 C20        -1.7333   51.2246   25.7472 C.3       1 UNK         0.0000 
     21 C21        -0.3356   50.6518   26.0986 C.3       1 UNK         0.0000 
     22 H22        -0.5273   50.1052   27.0253 H         1 UNK         0.0000 
     23 C23         0.7048   51.6987   26.4650 C.2       1 UNK         0.0000 
     24 N24         1.2328   52.5128   25.5899 N.2       1 UNK         0.0000 
     25 C25         2.2633   53.2304   26.1095 C.ar      1 UNK         0.0000 
     26 C26         3.0866   54.0964   25.3780 C.ar      1 UNK         0.0000 
     27 C27         4.1525   54.7125   26.0350 C.ar      1 UNK         0.0000 
     28 C28         4.3869   54.4960   27.3931 C.ar      1 UNK         0.0000 
     29 C29         3.5676   53.6560   28.1481 C.ar      1 UNK         0.0000 
     30 C30         2.5101   53.0141   27.4894 C.ar      1 UNK         0.0000 
     31 S31         1.3444   51.8484   28.0932 S.3       1 UNK         0.0000 
     32 Br32        6.2958   56.8233   18.8875 Br        1 UNK         0.0000 
     33 H33         4.7683   53.2889   23.2805 H         1 UNK         0.0000 
     34 H34         5.5559   51.9072   22.4813 H         1 UNK         0.0000 
     35 H35         6.4699   53.3509   22.8263 H         1 UNK         0.0000 
     36 H36         6.3501   55.2610   21.3819 H         1 UNK         0.0000 
     37 H37         4.4369   54.8886   17.5787 H         1 UNK         0.0000 
     38 H38         3.3516   52.8054   18.3108 H         1 UNK         0.0000 
     39 H39         3.6205   50.9126   19.9259 H         1 UNK         0.0000 
     40 H40         1.2869   49.9415   21.0954 H         1 UNK         0.0000 
     41 H41         2.8590   49.2835   21.5092 H         1 UNK         0.0000 
     42 H42         2.2929   49.1359   23.7179 H         1 UNK         0.0000 
     43 H43        -0.6213   47.5849   24.4562 H         1 UNK         0.0000 
     44 H44        -0.9575   47.9434   26.0628 H         1 UNK         0.0000 
     45 H45        -3.0711   48.1126   24.8169 H         1 UNK         0.0000 
     46 H46        -2.3981   49.2470   23.6862 H         1 UNK         0.0000 
     47 H47        -2.9748   49.6979   26.6444 H         1 UNK         0.0000 
     48 H48        -3.7380   50.5056   25.3020 H         1 UNK         0.0000 
     49 H49        -2.0744   51.8757   26.5539 H         1 UNK         0.0000 
     50 H50        -1.7131   51.7996   24.8215 H         1 UNK         0.0000 
     51 H51         2.9088   54.2609   24.3252 H         1 UNK         0.0000 
     52 H52         4.8085   55.3694   25.4822 H         1 UNK         0.0000 
     53 H53         5.2235   54.9884   27.8691 H         1 UNK         0.0000 
     54 H54         3.7622   53.4837   29.1962 H         1 UNK         0.0000 
@<TRIPOS>BOND
     1    1    2 1    
     2    1   33 1    
     3    1   34 1    
     4    1   35 1    
     5    2    7 ar   
     6    2    3 ar   
     7    3    4 ar   
     8    3   36 1    
     9    4    5 ar   
    10    4   32 1    
    11    5    6 ar   
    12    5   37 1    
    13    6    7 ar   
    14    6   38 1    
    15    7    8 1    
    16    8    9 am   BACKBONE|DICT|INTERRES
    17    8   39 1    
    18    9   10 2    
    19    9   11 1    
    20   11   12 1    
    21   11   40 1    
    22   11   41 1    
    23   12   13 am   BACKBONE|DICT|INTERRES
    24   12   42 1    
    25   13   14 2    
    26   13   15 1    
    27   15   16 1    
    28   15   21 1    
    29   15   17 1    
    30   17   18 1    
    31   17   43 1    
    32   17   44 1    
    33   18   19 1    
    34   18   45 1    
    35   18   46 1    
    36   19   20 1    
    37   19   47 1    
    38   19   48 1    
    39   20   21 1    
    40   20   49 1    
    41   20   50 1    
    42   21   22 1    
    43   21   23 1    
    44   23   31 1    
    45   23   24 2    
    46   24   25 1    
    47   25   30 ar   
    48   25   26 ar   
    49   26   27 ar   
    50   26   51 1    
    51   27   28 ar   
    52   27   52 1    
    53   28   29 ar   
    54   28   53 1    
    55   29   30 ar   
    56   29   54 1    
    57   30   31 1    
@<TRIPOS>SUBSTRUCTURE
     1 UNK         1 GROUP             0       ****    0 ROOT    
