@<TRIPOS>MOLECULE
ZINC39984442_1448
49   52    1
SMALL
USER_CHARGES


@<TRIPOS>ATOM
      1 C1          3.4300   54.5239   24.1349 C.3       1 UNK         0.0000 
      2 O2          3.8319   53.3626   24.8377 O.3       1 UNK         0.0000 
      3 C3          4.6430   53.4902   26.0181 C.3       1 UNK         0.0000 
      4 H4          4.9748   52.4973   26.3058 H         1 UNK         0.0000 
      5 C5          3.7795   54.0008   27.1948 C.3       1 UNK         0.0000 
      6 H6          3.3952   55.0014   26.9903 H         1 UNK         0.0000 
      7 C7          2.6667   53.0947   27.6118 C.3       1 UNK         0.0000 
      8 C8          2.8663   52.9970   29.1025 C.2       1 UNK         0.0000 
      9 N9          3.9392   53.5687   29.5051 N.2       1 UNK         0.0000 
     10 C10         4.6290   54.0644   28.4478 C.2       1 UNK         0.0000 
     11 C11         5.9030   54.4964   28.3477 C.2       1 UNK         0.0000 
     12 C12         6.4886   54.8176   27.0499 C.2       1 UNK         0.0000 
     13 C13         5.9228   54.3290   25.9209 C.2       1 UNK         0.0000 
     14 O14         6.3554   54.4737   24.6432 O.3       1 UNK         0.0000 
     15 C15         6.9958   55.6899   24.3082 C.3       1 UNK         0.0000 
     16 C16         1.9556   52.2933   30.0213 C.2       1 UNK         0.0000 
     17 O17         2.2221   52.1968   31.2183 O.2       1 UNK         0.0000 
     18 N18         0.8173   51.6969   29.6032 N.am      1 UNK         0.0000 
     19 C19         0.2647   51.2953   28.2940 C.3       1 UNK         0.0000 
     20 C20        -0.5322   52.4415   27.6479 C.2       1 UNK         0.0000 
     21 O21        -0.4954   53.5896   28.0863 O.2       1 UNK         0.0000 
     22 N22        -1.3743   52.0977   26.6106 N.am      1 UNK         0.0000 
     23 C23        -0.9245   51.9196   25.4297 C.2       1 UNK         0.0000 
     24 N24         0.3581   51.9721   24.8970 N.pl3     1 UNK         0.0000 
     25 H25         1.1483   52.2269   25.4683 H         1 UNK         0.0000 
     26 C26         0.5098   51.6953   23.5411 C.ar      1 UNK         0.0000 
     27 C27         1.6982   51.6512   22.8122 C.ar      1 UNK         0.0000 
     28 C28         1.6594   51.3726   21.4441 C.ar      1 UNK         0.0000 
     29 C29         0.4366   51.1323   20.8130 C.ar      1 UNK         0.0000 
     30 C30        -0.7508   51.1667   21.5484 C.ar      1 UNK         0.0000 
     31 C31        -0.7012   51.4495   22.9140 C.ar      1 UNK         0.0000 
     32 S32        -2.0269   51.5457   24.0542 S.3       1 UNK         0.0000 
     33 H33         3.0968   55.3008   24.8116 H         1 UNK         0.0000 
     34 H34         4.2363   54.8966   23.5078 H         1 UNK         0.0000 
     35 H35         2.5972   54.2863   23.4739 H         1 UNK         0.0000 
     36 H36         1.7499   53.5914   27.3297 H         1 UNK         0.0000 
     37 H37         2.7156   52.1133   27.1403 H         1 UNK         0.0000 
     38 H38         6.5382   54.4962   29.2188 H         1 UNK         0.0000 
     39 H39         7.3831   55.4128   27.0265 H         1 UNK         0.0000 
     40 H40         6.3004   56.5088   24.4713 H         1 UNK         0.0000 
     41 H41         7.9029   55.8754   24.8799 H         1 UNK         0.0000 
     42 H42         7.2584   55.6862   23.2503 H         1 UNK         0.0000 
     43 H43         0.2849   51.3234   30.3769 H         1 UNK         0.0000 
     44 H44         1.0119   50.8801   27.6217 H         1 UNK         0.0000 
     45 H45        -0.4534   50.4972   28.4787 H         1 UNK         0.0000 
     46 H46         2.6497   51.8303   23.2855 H         1 UNK         0.0000 
     47 H47         2.5762   51.3419   20.8719 H         1 UNK         0.0000 
     48 H48         0.4147   50.9151   19.7547 H         1 UNK         0.0000 
     49 H49        -1.6913   50.9700   21.0563 H         1 UNK         0.0000 
@<TRIPOS>BOND
     1    1    2 1    
     2    1   33 1    
     3    1   34 1    
     4    1   35 1    
     5    2    3 1    
     6    3    4 1    
     7    3   13 1    
     8    3    5 1    
     9    5    6 1    
    10    5   10 1    
    11    5    7 1    
    12    7    8 1    
    13    7   36 1    
    14    7   37 1    
    15    8    9 2    
    16    8   16 1    
    17    9   10 1    
    18   10   11 2    
    19   11   12 1    
    20   11   38 1    
    21   12   13 2    
    22   12   39 1    
    23   13   14 1    
    24   14   15 1    
    25   15   40 1    
    26   15   41 1    
    27   15   42 1    
    28   16   17 2    
    29   16   18 am   BACKBONE|DICT|INTERRES
    30   18   19 1    
    31   18   43 1    
    32   19   20 1    
    33   19   44 1    
    34   19   45 1    
    35   20   21 2    
    36   20   22 am   BACKBONE|DICT|INTERRES
    37   22   23 2    BACKBONE|DICT|INTERRES
    38   23   32 1    
    39   23   24 1    
    40   24   25 1    
    41   24   26 1    
    42   26   31 ar   
    43   26   27 ar   
    44   27   28 ar   
    45   27   46 1    
    46   28   29 ar   
    47   28   47 1    
    48   29   30 ar   
    49   29   48 1    
    50   30   31 ar   
    51   30   49 1    
    52   31   32 1    
@<TRIPOS>SUBSTRUCTURE
     1 UNK         1 GROUP             0       ****    0 ROOT    
