@<TRIPOS>MOLECULE
ZINC09264916_5736
75   78    1
SMALL
USER_CHARGES


@<TRIPOS>ATOM
      1 C1          3.5161   54.7320   14.8638 C.3       1 UNK         0.0000 
      2 C2          4.1494   54.8243   16.2395 C.ar      1 UNK         0.0000 
      3 C3          3.9136   55.9287   17.0564 C.ar      1 UNK         0.0000 
      4 C4          4.5037   56.0055   18.3167 C.ar      1 UNK         0.0000 
      5 C5          5.3237   54.9736   18.7956 C.ar      1 UNK         0.0000 
      6 C6          5.6147   53.8984   17.9383 C.ar      1 UNK         0.0000 
      7 C7          5.0109   53.8200   16.6795 C.ar      1 UNK         0.0000 
      8 C8          6.6233   52.8415   18.3200 C.3       1 UNK         0.0000 
      9 N9          5.8727   55.0405   20.1045 N.pl3     1 UNK         0.0000 
     10 C10         5.3871   54.5132   21.3016 C.ar      1 UNK         0.0000 
     11 C11         6.3205   54.9311   22.2803 C.ar      1 UNK         0.0000 
     12 C12         7.2945   55.6234   21.5441 C.ar      1 UNK         0.0000 
     13 N13         7.0314   55.6957   20.2647 N.2       1 UNK         0.0000 
     14 C14         6.3046   54.8632   23.7379 C.2       1 UNK         0.0000 
     15 O15         7.0867   55.5391   24.4098 O.2       1 UNK         0.0000 
     16 N16         5.3379   54.0972   24.2732 N.am      1 UNK         0.0000 
     17 C17         4.9115   54.0965   25.6136 C.ar      1 UNK         0.0000 
     18 C18         5.7905   54.1567   26.7041 C.ar      1 UNK         0.0000 
     19 C19         5.2874   54.1198   28.0041 C.ar      1 UNK         0.0000 
     20 C20         3.9055   54.0200   28.2175 C.ar      1 UNK         0.0000 
     21 C21         3.0348   53.9683   27.1292 C.ar      1 UNK         0.0000 
     22 C22         3.5395   53.9855   25.8385 C.ar      1 UNK         0.0000 
     23 C23         3.3237   54.0195   29.5891 C.2       1 UNK         0.0000 
     24 O24         2.3503   54.7033   29.9013 O.2       1 UNK         0.0000 
     25 O25         3.8973   53.1782   30.4800 O.3       1 UNK         0.0000 
     26 C26         4.3046   51.8671   30.1141 C.3       1 UNK         0.0000 
     27 C27         4.0660   53.7376   21.3876 C.3       1 UNK         0.0000 
     28 C28         4.1414   52.2102   21.6525 C.3       1 UNK         0.0000 
     29 C29         2.8181   51.4765   22.0737 C.3       1 UNK         0.0000 
     30 N30         1.9337   52.3773   22.8406 N.am      1 UNK         0.0000 
     31 C31         1.6480   53.6918   22.2721 C.3       1 UNK         0.0000 
     32 C32         2.9599   54.4584   22.1688 C.3       1 UNK         0.0000 
     33 C33         1.1191   51.9734   23.9136 C.2       1 UNK         0.0000 
     34 O34         0.4831   52.7584   24.6225 O.2       1 UNK         0.0000 
     35 O35         1.0491   50.6132   24.0580 O.3       1 UNK         0.0000 
     36 C36         0.0099   49.9533   24.8196 C.3       1 UNK         0.0000 
     37 C37         0.2538   48.4409   24.6824 C.3       1 UNK         0.0000 
     38 C38        -1.3876   50.2732   24.2297 C.3       1 UNK         0.0000 
     39 C39         0.0664   50.3164   26.3225 C.3       1 UNK         0.0000 
     40 H40         4.2424   54.3685   14.1366 H         1 UNK         0.0000 
     41 H41         2.6757   54.0377   14.8772 H         1 UNK         0.0000 
     42 H42         3.1737   55.7045   14.5095 H         1 UNK         0.0000 
     43 H43         3.2792   56.7340   16.7164 H         1 UNK         0.0000 
     44 H44         4.3113   56.8963   18.8828 H         1 UNK         0.0000 
     45 H45         5.2207   52.9791   16.0335 H         1 UNK         0.0000 
     46 H46         6.7483   52.0966   17.5367 H         1 UNK         0.0000 
     47 H47         7.5965   53.3007   18.4817 H         1 UNK         0.0000 
     48 H48         6.3045   52.3395   19.2338 H         1 UNK         0.0000 
     49 H49         8.1744   56.0963   21.9615 H         1 UNK         0.0000 
     50 H50         4.7090   53.6662   23.6126 H         1 UNK         0.0000 
     51 H51         6.8578   54.2198   26.5538 H         1 UNK         0.0000 
     52 H52         5.9765   54.1831   28.8347 H         1 UNK         0.0000 
     53 H53         1.9638   53.8963   27.2709 H         1 UNK         0.0000 
     54 H54         2.8349   53.9180   25.0298 H         1 UNK         0.0000 
     55 H55         4.6656   51.3433   30.9990 H         1 UNK         0.0000 
     56 H56         3.4698   51.2995   29.7004 H         1 UNK         0.0000 
     57 H57         5.1043   51.8735   29.3763 H         1 UNK         0.0000 
     58 H58         3.5775   53.7105   20.4105 H         1 UNK         0.0000 
     59 H59         4.8337   52.0967   22.4816 H         1 UNK         0.0000 
     60 H60         4.5688   51.6817   20.7979 H         1 UNK         0.0000 
     61 H61         3.1043   50.6218   22.6883 H         1 UNK         0.0000 
     62 H62         2.2670   51.0622   21.2286 H         1 UNK         0.0000 
     63 H63         1.2001   53.5162   21.2922 H         1 UNK         0.0000 
     64 H64         0.9389   54.2727   22.8654 H         1 UNK         0.0000 
     65 H65         2.7045   55.3722   21.6817 H         1 UNK         0.0000 
     66 H66         3.2539   54.7397   23.1683 H         1 UNK         0.0000 
     67 H67        -0.5975   47.8603   25.0385 H         1 UNK         0.0000 
     68 H68         1.1044   48.1247   25.2815 H         1 UNK         0.0000 
     69 H69         0.4404   48.1500   23.6491 H         1 UNK         0.0000 
     70 H70        -1.6521   51.3247   24.3411 H         1 UNK         0.0000 
     71 H71        -1.4283   50.0405   23.1649 H         1 UNK         0.0000 
     72 H72        -2.1697   49.6966   24.7245 H         1 UNK         0.0000 
     73 H73        -0.2072   51.3512   26.5255 H         1 UNK         0.0000 
     74 H74        -0.6305   49.6964   26.8818 H         1 UNK         0.0000 
     75 H75         1.0605   50.1518   26.7404 H         1 UNK         0.0000 
@<TRIPOS>BOND
     1    1    2 1    
     2    1   40 1    
     3    1   41 1    
     4    1   42 1    
     5    2    7 ar   
     6    2    3 ar   
     7    3    4 ar   
     8    3   43 1    
     9    4    5 ar   
    10    4   44 1    
    11    5    6 ar   
    12    5    9 1    
    13    6    7 ar   
    14    6    8 1    
    15    7   45 1    
    16    8   46 1    
    17    8   47 1    
    18    8   48 1    
    19    9   13 ar   
    20    9   10 ar   
    21   10   11 ar   
    22   10   27 1    
    23   11   12 ar   
    24   11   14 1    
    25   12   13 ar   
    26   12   49 1    
    27   14   15 2    
    28   14   16 am   BACKBONE|DICT|INTERRES
    29   16   17 1    
    30   16   50 1    
    31   17   22 ar   
    32   17   18 ar   
    33   18   19 ar   
    34   18   51 1    
    35   19   20 ar   
    36   19   52 1    
    37   20   21 ar   
    38   20   23 1    
    39   21   22 ar   
    40   21   53 1    
    41   22   54 1    
    42   23   24 2    
    43   23   25 1    
    44   25   26 1    
    45   26   55 1    
    46   26   56 1    
    47   26   57 1    
    48   27   32 1    
    49   27   28 1    
    50   27   58 1    
    51   28   29 1    
    52   28   59 1    
    53   28   60 1    
    54   29   30 1    
    55   29   61 1    
    56   29   62 1    
    57   30   31 1    
    58   30   33 am   BACKBONE|DICT|INTERRES
    59   31   32 1    
    60   31   63 1    
    61   31   64 1    
    62   32   65 1    
    63   32   66 1    
    64   33   34 2    
    65   33   35 1    
    66   35   36 1    
    67   36   37 1    
    68   36   38 1    
    69   36   39 1    
    70   37   67 1    
    71   37   68 1    
    72   37   69 1    
    73   38   70 1    
    74   38   71 1    
    75   38   72 1    
    76   39   73 1    
    77   39   74 1    
    78   39   75 1    
@<TRIPOS>SUBSTRUCTURE
     1 UNK         1 GROUP             0       ****    0 ROOT    
