ZINC04964122_4107
                    3D
 Schrodinger Suite 2024-2.
 71 74  0  0  1  0            999 V2000
   -1.7567   53.1579   23.8094 C   0  0  0  0  0  0
   -1.4099   51.6696   23.5777 C   0  0  2  0  0  0
   -0.6771   51.6928   22.7678 H   0  0  0  0  0  0
   -2.6087   50.8528   23.0316 C   0  0  0  0  0  0
   -2.7537   49.6738   23.9918 C   0  0  1  0  0  0
   -3.2539   50.1023   24.8558 H   0  0  0  0  0  0
   -3.5830   48.4093   23.5857 C   0  0  2  0  0  0
   -3.0538   47.9368   22.7590 H   0  0  0  0  0  0
   -5.0035   48.6959   23.0524 C   0  0  0  0  0  0
   -5.9262   49.3727   24.0933 C   0  0  1  0  0  0
   -6.9471   49.0062   23.9772 H   0  0  0  0  0  0
   -5.4496   49.1207   25.5390 C   0  0  0  0  0  0
   -5.4998   50.0983   26.4833 C   0  0  0  0  0  0
   -5.0221   49.9872   27.8578 C   0  0  0  0  0  0
   -5.0725   50.9147   28.6652 O   0  0  0  0  0  0
   -4.4956   48.6697   28.1758 C   0  0  0  0  0  0
   -4.4181   47.6535   27.2914 C   0  0  0  0  0  0
   -4.8506   47.6988   25.8124 C   0  0  2  0  0  0
   -3.6691   47.3571   24.7551 C   0  0  2  0  0  0
   -2.2127   47.0853   25.3028 C   0  0  1  0  0  0
   -1.6575   46.6206   24.4905 H   0  0  0  0  0  0
   -1.4714   48.3919   25.6811 C   0  0  0  0  0  0
   -1.3120   49.3645   24.4690 C   0  0  2  0  0  0
   -0.7614   50.8286   24.7550 C   0  0  2  0  0  0
   -1.1637   51.3421   26.1943 C   0  0  0  0  0  0
   -2.2906   51.7768   26.4380 O   0  0  0  0  0  0
   -0.1481   51.2719   27.3459 C   0  0  0  0  0  0
    0.7131   52.4081   27.3152 O   0  0  0  0  0  0
    1.7514   52.5208   28.1823 C   0  0  0  0  0  0
    2.0301   51.6968   29.0580 O   0  0  0  0  0  0
    2.5816   53.8224   27.9794 C   0  0  0  0  0  0
    3.9103   53.7662   28.7814 C   0  0  0  0  0  0
    1.7544   55.0262   28.4944 C   0  0  0  0  0  0
    2.9239   54.0212   26.4795 C   0  0  0  0  0  0
    0.6622   50.9090   24.6810 O   0  0  0  0  0  0
   -0.4363   48.6869   23.3565 C   0  0  0  0  0  0
   -2.0959   46.0979   26.3110 O   0  0  0  0  0  0
   -3.9823   46.1982   24.1546 F   0  0  0  0  0  0
   -6.0286   46.6891   25.7199 C   0  0  0  0  0  0
   -5.9470   50.6886   23.8580 F   0  0  0  0  0  0
   -2.5691   53.2958   24.5231 H   0  0  0  0  0  0
   -0.8878   53.7129   24.1652 H   0  0  0  0  0  0
   -2.0952   53.6274   22.8843 H   0  0  0  0  0  0
   -3.5326   51.4141   22.8808 H   0  0  0  0  0  0
   -2.3377   50.4551   22.0521 H   0  0  0  0  0  0
   -4.9488   49.3330   22.1696 H   0  0  0  0  0  0
   -5.4611   47.7628   22.7216 H   0  0  0  0  0  0
   -5.9132   51.0548   26.1991 H   0  0  0  0  0  0
   -4.1238   48.4943   29.1761 H   0  0  0  0  0  0
   -4.0173   46.7295   27.6811 H   0  0  0  0  0  0
   -0.4952   48.1633   26.1058 H   0  0  0  0  0  0
   -2.0405   48.8708   26.4789 H   0  0  0  0  0  0
    0.4195   50.3430   27.2691 H   0  0  0  0  0  0
   -0.6910   51.2363   28.2916 H   0  0  0  0  0  0
    4.4877   54.6836   28.6564 H   0  0  0  0  0  0
    4.5480   52.9458   28.4478 H   0  0  0  0  0  0
    3.7404   53.6428   29.8525 H   0  0  0  0  0  0
    0.8093   55.1373   27.9600 H   0  0  0  0  0  0
    1.5204   54.9354   29.5575 H   0  0  0  0  0  0
    2.2985   55.9644   28.3722 H   0  0  0  0  0  0
    2.0322   54.0955   25.8547 H   0  0  0  0  0  0
    3.5021   54.9328   26.3224 H   0  0  0  0  0  0
    3.5225   53.1961   26.0902 H   0  0  0  0  0  0
    1.0215   50.0494   24.9195 H   0  0  0  0  0  0
   -0.8929   47.8176   22.8890 H   0  0  0  0  0  0
   -0.2037   49.3710   22.5396 H   0  0  0  0  0  0
    0.5200   48.3550   23.7647 H   0  0  0  0  0  0
   -1.5584   46.4827   27.0175 H   0  0  0  0  0  0
   -6.8423   46.9528   26.3980 H   0  0  0  0  0  0
   -6.4520   46.6421   24.7176 H   0  0  0  0  0  0
   -5.7087   45.6794   25.9785 H   0  0  0  0  0  0
  1  2  1  0  0  0
  1 41  1  0  0  0
  1 42  1  0  0  0
  1 43  1  0  0  0
  2  3  1  0  0  0
  2 24  1  0  0  0
  2  4  1  0  0  0
  4  5  1  0  0  0
  4 44  1  0  0  0
  4 45  1  0  0  0
  5  6  1  0  0  0
  5 23  1  0  0  0
  5  7  1  0  0  0
  7  8  1  0  0  0
  7 19  1  0  0  0
  7  9  1  0  0  0
  9 10  1  0  0  0
  9 46  1  0  0  0
  9 47  1  0  0  0
 10 11  1  0  0  0
 10 12  1  0  0  0
 10 40  1  0  0  0
 12 18  1  0  0  0
 12 13  2  0  0  0
 13 14  1  0  0  0
 13 48  1  0  0  0
 14 15  2  0  0  0
 14 16  1  0  0  0
 16 17  2  0  0  0
 16 49  1  0  0  0
 17 18  1  0  0  0
 17 50  1  0  0  0
 18 19  1  0  0  0
 18 39  1  0  0  0
 19 20  1  0  0  0
 19 38  1  0  0  0
 20 21  1  0  0  0
 20 22  1  0  0  0
 20 37  1  0  0  0
 22 23  1  0  0  0
 22 51  1  0  0  0
 22 52  1  0  0  0
 23 24  1  0  0  0
 23 36  1  0  0  0
 24 25  1  0  0  0
 24 35  1  0  0  0
 25 26  2  0  0  0
 25 27  1  0  0  0
 27 28  1  0  0  0
 27 53  1  0  0  0
 27 54  1  0  0  0
 28 29  1  0  0  0
 29 30  2  0  0  0
 29 31  1  0  0  0
 31 32  1  0  0  0
 31 33  1  0  0  0
 31 34  1  0  0  0
 32 55  1  0  0  0
 32 56  1  0  0  0
 32 57  1  0  0  0
 33 58  1  0  0  0
 33 59  1  0  0  0
 33 60  1  0  0  0
 34 61  1  0  0  0
 34 62  1  0  0  0
 34 63  1  0  0  0
 35 64  1  0  0  0
 36 65  1  0  0  0
 36 66  1  0  0  0
 36 67  1  0  0  0
 37 68  1  0  0  0
 39 69  1  0  0  0
 39 70  1  0  0  0
 39 71  1  0  0  0
M  END
> <i_i_glide_confnum>
5

> <i_i_glide_lignum>
4108

> <i_i_glide_posenum>
373

> <i_i_glide_rotatable_bonds>
7

> <i_m_Source_File_Index>
1248

> <b_m_subgroup_collapsed>
0

> <r_i_docking_score>
-4.00747

> <r_i_glide_ecoul>
-8.60689

> <r_i_glide_eff_state_penalty>
0

> <r_i_glide_einternal>
7.73821

> <r_i_glide_emodel>
-45.171

> <r_i_glide_energy>
-38.9616

> <r_i_glide_erotb>
0.333272

> <r_i_glide_esite>
-0.116597

> <r_i_glide_evdw>
-30.3547

> <r_i_glide_gscore>
-4.00747

> <r_i_glide_hbond>
-0.102507

> <r_i_glide_ligand_efficiency>
-0.114499

> <r_i_glide_ligand_efficiency_ln>
-0.879728

> <r_i_glide_ligand_efficiency_sa>
-0.374534

> <r_i_glide_lipo>
-1.03233

> <r_i_glide_metal>
0

> <r_i_glide_rewards>
-0.280532

> <s_i_glide_gridfile>
wee1_glide-grid

> <s_m_Source_File>
wee1_decoys_glide_SP.sdf

> <s_m_Source_Path>
/Users/zhangxujun/Desktop

> <s_m_entry_id>
1523

> <s_m_entry_name>
wee1_decoys_glide_SP.1248

> <s_m_subgroup_title>
wee1_decoys_glide_SP

> <s_m_subgroupid>
wee1_decoys_glide_SP


$$$$
