@<TRIPOS>MOLECULE
ZINC35097933_2317
63   64    1
SMALL
USER_CHARGES


@<TRIPOS>ATOM
      1 C1         -2.9817   51.0891   19.6963 C.3       1 UNK         0.0000 
      2 C2         -2.3242   50.9538   21.0801 C.3       1 UNK         0.0000 
      3 C3         -0.8982   51.5549   21.1704 C.3       1 UNK         0.0000 
      4 H4         -0.9454   52.4969   20.6269 H         1 UNK         0.0000 
      5 C5          0.1009   50.7040   20.3545 C.3       1 UNK         0.0000 
      6 C6         -0.5136   51.9504   22.6483 C.3       1 UNK         0.0000 
      7 H7         -1.3290   52.6061   22.9509 H         1 UNK         0.0000 
      8 C8         -0.5043   50.7538   23.6599 C.2       1 UNK         0.0000 
      9 O9         -0.3987   49.6035   23.2286 O.2       1 UNK         0.0000 
     10 N10        -0.5399   51.0389   24.9935 N.am      1 UNK         0.0000 
     11 C11        -0.2160   49.9653   25.9568 C.3       1 UNK         0.0000 
     12 C12         0.4435   50.5330   27.2539 C.3       1 UNK         0.0000 
     13 N13         0.2249   51.9728   27.4476 N.am      1 UNK         0.0000 
     14 C14        -1.1126   52.4438   27.0259 C.3       1 UNK         0.0000 
     15 H15        -1.2300   53.4955   27.2818 H         1 UNK         0.0000 
     16 C16        -1.1250   52.3158   25.4760 C.3       1 UNK         0.0000 
     17 C17        -2.2935   51.6967   27.6992 C.3       1 UNK         0.0000 
     18 C18         1.0067   52.6010   28.3738 C.2       1 UNK         0.0000 
     19 O19         1.8677   52.0135   29.0367 O.2       1 UNK         0.0000 
     20 N20         0.8400   53.9351   28.4816 N.am      1 UNK         0.0000 
     21 C21         1.4671   54.7852   29.4993 C.3       1 UNK         0.0000 
     22 C22         1.6545   56.2250   29.0003 C.3       1 UNK         0.0000 
     23 C23         0.7096   54.7202   30.8375 C.3       1 UNK         0.0000 
     24 N24         0.7045   52.7710   22.7973 N.am      1 UNK         0.0000 
     25 C25         1.9808   52.3596   22.6800 C.2       1 UNK         0.0000 
     26 O26         2.3164   51.2497   22.2691 O.2       1 UNK         0.0000 
     27 C27         3.0325   53.2965   23.2025 C.ar      1 UNK         0.0000 
     28 C28         4.2382   53.4410   22.5019 C.ar      1 UNK         0.0000 
     29 C29         5.3196   54.0745   23.1070 C.ar      1 UNK         0.0000 
     30 C30         5.1933   54.5586   24.4064 C.ar      1 UNK         0.0000 
     31 C31         3.9768   54.4932   25.0797 C.ar      1 UNK         0.0000 
     32 C32         2.8901   53.8689   24.4756 C.ar      1 UNK         0.0000 
     33 Br33        6.7044   55.2990   25.2813 Br        1 UNK         0.0000 
     34 H34        -4.0645   51.1855   19.7873 H         1 UNK         0.0000 
     35 H35        -2.6195   51.9603   19.1492 H         1 UNK         0.0000 
     36 H36        -2.7839   50.2081   19.0845 H         1 UNK         0.0000 
     37 H37        -2.2971   49.8998   21.3569 H         1 UNK         0.0000 
     38 H38        -2.9668   51.4328   21.8174 H         1 UNK         0.0000 
     39 H39         0.3654   49.7721   20.8499 H         1 UNK         0.0000 
     40 H40        -0.3057   50.4426   19.3776 H         1 UNK         0.0000 
     41 H41         1.0180   51.2531   20.1544 H         1 UNK         0.0000 
     42 H42        -1.1193   49.4235   26.2404 H         1 UNK         0.0000 
     43 H43         0.5004   49.2574   25.5331 H         1 UNK         0.0000 
     44 H44        -0.0956   50.0966   28.0826 H         1 UNK         0.0000 
     45 H45         1.5024   50.2694   27.2535 H         1 UNK         0.0000 
     46 H46        -0.5447   53.1553   25.0937 H         1 UNK         0.0000 
     47 H47        -2.1590   52.4047   25.1337 H         1 UNK         0.0000 
     48 H48        -3.2472   52.1489   27.4274 H         1 UNK         0.0000 
     49 H49        -2.3789   50.6560   27.3932 H         1 UNK         0.0000 
     50 H50        -2.2090   51.6976   28.7863 H         1 UNK         0.0000 
     51 H51         0.2254   54.3962   27.8291 H         1 UNK         0.0000 
     52 H52         2.4788   54.4106   29.6793 H         1 UNK         0.0000 
     53 H53         2.1480   56.8386   29.7557 H         1 UNK         0.0000 
     54 H54         2.2754   56.2510   28.1056 H         1 UNK         0.0000 
     55 H55         0.7056   56.7096   28.7893 H         1 UNK         0.0000 
     56 H56         1.0930   55.4681   31.5328 H         1 UNK         0.0000 
     57 H57        -0.3566   54.9037   30.7146 H         1 UNK         0.0000 
     58 H58         0.8399   53.7494   31.3168 H         1 UNK         0.0000 
     59 H59         0.5583   53.7253   23.0816 H         1 UNK         0.0000 
     60 H60         4.3650   52.9974   21.5238 H         1 UNK         0.0000 
     61 H61         6.2659   54.1439   22.5920 H         1 UNK         0.0000 
     62 H62         3.8928   54.8792   26.0856 H         1 UNK         0.0000 
     63 H63         1.9790   53.7528   25.0456 H         1 UNK         0.0000 
@<TRIPOS>BOND
     1    1    2 1    
     2    1   34 1    
     3    1   35 1    
     4    1   36 1    
     5    2    3 1    
     6    2   37 1    
     7    2   38 1    
     8    3    4 1    
     9    3    5 1    
    10    3    6 1    
    11    5   39 1    
    12    5   40 1    
    13    5   41 1    
    14    6    7 1    
    15    6    8 1    
    16    6   24 1    
    17    8    9 2    
    18    8   10 am   BACKBONE|DICT|INTERRES
    19   10   16 1    
    20   10   11 1    
    21   11   12 1    
    22   11   42 1    
    23   11   43 1    
    24   12   13 1    
    25   12   44 1    
    26   12   45 1    
    27   13   14 1    
    28   13   18 am   BACKBONE|DICT|INTERRES
    29   14   15 1    
    30   14   16 1    
    31   14   17 1    
    32   16   46 1    
    33   16   47 1    
    34   17   48 1    
    35   17   49 1    
    36   17   50 1    
    37   18   19 2    
    38   18   20 am   BACKBONE|DICT|INTERRES
    39   20   21 1    
    40   20   51 1    
    41   21   22 1    
    42   21   23 1    
    43   21   52 1    
    44   22   53 1    
    45   22   54 1    
    46   22   55 1    
    47   23   56 1    
    48   23   57 1    
    49   23   58 1    
    50   24   25 am   BACKBONE|DICT|INTERRES
    51   24   59 1    
    52   25   26 2    
    53   25   27 1    
    54   27   32 ar   
    55   27   28 ar   
    56   28   29 ar   
    57   28   60 1    
    58   29   30 ar   
    59   29   61 1    
    60   30   31 ar   
    61   30   33 1    
    62   31   32 ar   
    63   31   62 1    
    64   32   63 1    
@<TRIPOS>SUBSTRUCTURE
     1 UNK         1 GROUP             0       ****    0 ROOT    
