@<TRIPOS>MOLECULE
ZINC39600261_5535
67   70    1
SMALL
USER_CHARGES


@<TRIPOS>ATOM
      1 C1          6.7952   54.0520   28.2016 C.3       1 UNK         0.0000 
      2 O2          6.7319   54.2811   26.7984 O.3       1 UNK         0.0000 
      3 C3          5.5077   54.1819   26.1660 C.ar      1 UNK         0.0000 
      4 C4          5.5140   54.2358   24.7763 C.ar      1 UNK         0.0000 
      5 C5          4.3310   54.0970   24.0568 C.ar      1 UNK         0.0000 
      6 C6          3.1046   53.9032   24.7079 C.ar      1 UNK         0.0000 
      7 C7          3.0728   53.9139   26.1188 C.ar      1 UNK         0.0000 
      8 C8          4.2808   54.0351   26.8283 C.ar      1 UNK         0.0000 
      9 O9          1.8438   53.8431   26.7527 O.3       1 UNK         0.0000 
     10 C10         1.7618   53.8585   28.1739 C.3       1 UNK         0.0000 
     11 C11         1.8609   53.7532   23.8531 C.2       1 UNK         0.0000 
     12 O12         1.7274   54.4966   22.8835 O.2       1 UNK         0.0000 
     13 N13         0.9511   52.7769   24.1137 N.am      1 UNK         0.0000 
     14 C14        -0.2027   52.5427   23.2284 C.3       1 UNK         0.0000 
     15 C15        -0.3592   51.0064   23.2384 C.3       1 UNK         0.0000 
     16 H16        -1.4024   50.7591   23.0461 H         1 UNK         0.0000 
     17 C17         0.0899   50.5983   24.6777 C.3       1 UNK         0.0000 
     18 C18         1.2345   51.5944   24.9302 C.3       1 UNK         0.0000 
     19 C19         0.5447   49.1383   24.9483 C.3       1 UNK         0.0000 
     20 C20        -0.5990   48.1340   24.7020 C.3       1 UNK         0.0000 
     21 N21        -1.7444   48.4674   25.6817 N.4       1 UNK         0.0000 
     22 C22        -2.2227   49.9352   25.6066 C.3       1 UNK         0.0000 
     23 C23        -0.9950   50.8609   25.7650 C.3       1 UNK         0.0000 
     24 C24         0.4628   50.2900   22.1291 C.2       1 UNK         0.0000 
     25 O25         0.1066   49.1739   21.7531 O.2       1 UNK         0.0000 
     26 N26         1.5652   50.8978   21.6484 N.am      1 UNK         0.0000 
     27 C27         2.5303   50.3218   20.7066 C.3       1 UNK         0.0000 
     28 C28         1.9458   49.7949   19.4018 C.ar      1 UNK         0.0000 
     29 C29         1.5044   50.6833   18.4167 C.ar      1 UNK         0.0000 
     30 C30         1.0030   50.2080   17.1991 C.ar      1 UNK         0.0000 
     31 C31         0.9602   48.8248   16.9740 C.ar      1 UNK         0.0000 
     32 C32         1.4105   47.9352   17.9488 C.ar      1 UNK         0.0000 
     33 C33         1.9045   48.4195   19.1578 C.ar      1 UNK         0.0000 
     34 F34         1.3648   46.6036   17.7233 F         1 UNK         0.0000 
     35 C35         0.5156   51.1946   16.1377 C.3       1 UNK         0.0000 
     36 F36         1.5658   51.7096   15.4982 F         1 UNK         0.0000 
     37 F37        -0.2774   50.6060   15.2376 F         1 UNK         0.0000 
     38 F38        -0.1721   52.1899   16.7017 F         1 UNK         0.0000 
     39 H39         7.8314   54.0968   28.5344 H         1 UNK         0.0000 
     40 H40         6.2347   54.8072   28.7542 H         1 UNK         0.0000 
     41 H41         6.4095   53.0648   28.4658 H         1 UNK         0.0000 
     42 H42         6.4482   54.3635   24.2493 H         1 UNK         0.0000 
     43 H43         4.3809   54.1261   22.9765 H         1 UNK         0.0000 
     44 H44         4.2673   54.0250   27.9038 H         1 UNK         0.0000 
     45 H45         0.7169   53.7882   28.4728 H         1 UNK         0.0000 
     46 H46         2.2872   53.0079   28.6109 H         1 UNK         0.0000 
     47 H47         2.1616   54.7850   28.5902 H         1 UNK         0.0000 
     48 H48        -0.0989   52.8967   22.2013 H         1 UNK         0.0000 
     49 H49        -1.1108   52.9357   23.6839 H         1 UNK         0.0000 
     50 H50         1.4899   51.7274   25.9796 H         1 UNK         0.0000 
     51 H51         2.1223   51.1535   24.4784 H         1 UNK         0.0000 
     52 H52         1.3809   48.8978   24.2923 H         1 UNK         0.0000 
     53 H53         0.9433   49.0175   25.9582 H         1 UNK         0.0000 
     54 H54        -1.0337   48.1916   23.7057 H         1 UNK         0.0000 
     55 H55        -0.3019   47.1030   24.8851 H         1 UNK         0.0000 
     56 H56        -2.5242   47.8393   25.5434 H         1 UNK         0.0000 
     57 H57        -2.7495   50.0516   24.6604 H         1 UNK         0.0000 
     58 H58        -2.9343   50.0527   26.4251 H         1 UNK         0.0000 
     59 H59        -0.5787   50.7456   26.7687 H         1 UNK         0.0000 
     60 H60        -1.3316   51.8980   25.7295 H         1 UNK         0.0000 
     61 H61         1.7987   51.8059   22.0217 H         1 UNK         0.0000 
     62 H62         3.1008   49.5428   21.2139 H         1 UNK         0.0000 
     63 H63         3.2583   51.0964   20.4590 H         1 UNK         0.0000 
     64 H64         1.5571   51.7494   18.5979 H         1 UNK         0.0000 
     65 H65         0.5904   48.4304   16.0389 H         1 UNK         0.0000 
     66 H66         2.2553   47.7218   19.9042 H         1 UNK         0.0000 
     67 H67        -1.4356   48.3067   26.6464 H         1 UNK         0.0000 
@<TRIPOS>BOND
     1    1    2 1    
     2    1   39 1    
     3    1   40 1    
     4    1   41 1    
     5    2    3 1    
     6    3    8 ar   
     7    3    4 ar   
     8    4    5 ar   
     9    4   42 1    
    10    5    6 ar   
    11    5   43 1    
    12    6    7 ar   
    13    6   11 1    
    14    7    8 ar   
    15    7    9 1    
    16    8   44 1    
    17    9   10 1    
    18   10   45 1    
    19   10   46 1    
    20   10   47 1    
    21   11   12 2    
    22   11   13 am   BACKBONE|DICT|INTERRES
    23   13   18 1    
    24   13   14 1    
    25   14   15 1    
    26   14   48 1    
    27   14   49 1    
    28   15   16 1    
    29   15   17 1    
    30   15   24 1    
    31   17   23 1    
    32   17   18 1    
    33   17   19 1    
    34   18   50 1    
    35   18   51 1    
    36   19   20 1    
    37   19   52 1    
    38   19   53 1    
    39   20   21 1    
    40   20   54 1    
    41   20   55 1    
    42   21   22 1    
    43   21   56 1    
    44   21   67 1    
    45   22   23 1    
    46   22   57 1    
    47   22   58 1    
    48   23   59 1    
    49   23   60 1    
    50   24   25 2    
    51   24   26 am   BACKBONE|DICT|INTERRES
    52   26   27 1    
    53   26   61 1    
    54   27   28 1    
    55   27   62 1    
    56   27   63 1    
    57   28   33 ar   
    58   28   29 ar   
    59   29   30 ar   
    60   29   64 1    
    61   30   31 ar   
    62   30   35 1    
    63   31   32 ar   
    64   31   65 1    
    65   32   33 ar   
    66   32   34 1    
    67   33   66 1    
    68   35   36 1    
    69   35   37 1    
    70   35   38 1    
@<TRIPOS>SUBSTRUCTURE
     1 UNK         1 GROUP             0       ****    0 ROOT    
