@<TRIPOS>MOLECULE
ZINC47156475_6018
52   55    1
SMALL
USER_CHARGES


@<TRIPOS>ATOM
      1 C1          6.3145   54.4371   27.9216 C.3       1 UNK         0.0000 
      2 C2          5.6117   54.3484   26.5817 C.ar      1 UNK         0.0000 
      3 C3          4.2374   54.1012   26.5498 C.ar      1 UNK         0.0000 
      4 C4          3.5283   53.9714   25.3497 C.ar      1 UNK         0.0000 
      5 C5          4.2613   54.0967   24.1528 C.ar      1 UNK         0.0000 
      6 C6          5.6564   54.3725   24.1888 C.ar      1 UNK         0.0000 
      7 C7          6.3419   54.4980   25.4004 C.ar      1 UNK         0.0000 
      8 S8          6.2697   54.4971   22.5485 S.3       1 UNK         0.0000 
      9 C9          4.6429   54.1336   21.9834 C.2       1 UNK         0.0000 
     10 N10         3.7383   53.9694   22.9029 N.2       1 UNK         0.0000 
     11 N11         4.2506   54.1014   20.6595 N.am      1 UNK         0.0000 
     12 C12         4.9912   54.2980   19.5509 C.2       1 UNK         0.0000 
     13 O13         6.2045   54.5020   19.5109 O.2       1 UNK         0.0000 
     14 C14         4.1588   54.3216   18.2986 C.ar      1 UNK         0.0000 
     15 C15         3.4058   53.1913   17.9456 C.ar      1 UNK         0.0000 
     16 C16         2.4679   53.2440   16.9071 C.ar      1 UNK         0.0000 
     17 C17         2.3321   54.4294   16.1682 C.ar      1 UNK         0.0000 
     18 C18         3.1106   55.5402   16.4865 C.ar      1 UNK         0.0000 
     19 C19         4.0079   55.5046   17.5520 C.ar      1 UNK         0.0000 
     20 Cl20        4.8692   56.9596   17.9277 Cl        1 UNK         0.0000 
     21 Cl21        1.1987   54.5784   14.8677 Cl        1 UNK         0.0000 
     22 S22         1.4112   51.8320   16.5349 S.o2      1 UNK         0.0000 
     23 O23         0.0536   52.2107   16.9440 O.2       1 UNK         0.0000 
     24 O24         1.7108   51.4413   15.1540 O.2       1 UNK         0.0000 
     25 N25         1.9042   50.4864   17.5569 N.pl3     1 UNK         0.0000 
     26 C26         1.6142   50.4919   19.0055 C.3       1 UNK         0.0000 
     27 C27         0.3341   49.7613   19.4092 C.3       1 UNK         0.0000 
     28 C28         0.5105   49.4530   20.9030 C.3       1 UNK         0.0000 
     29 C29         2.0239   49.5083   21.1889 C.3       1 UNK         0.0000 
     30 C30         2.7039   49.8378   19.8542 C.3       1 UNK         0.0000 
     31 C31         2.0351   53.6793   25.3957 C.3       1 UNK         0.0000 
     32 H32         7.3904   54.5750   27.8177 H         1 UNK         0.0000 
     33 H33         5.9047   55.2623   28.5053 H         1 UNK         0.0000 
     34 H34         6.1497   53.5215   28.4901 H         1 UNK         0.0000 
     35 H35         3.7082   53.9954   27.4869 H         1 UNK         0.0000 
     36 H36         7.4052   54.6815   25.4103 H         1 UNK         0.0000 
     37 H37         3.2572   53.9859   20.5164 H         1 UNK         0.0000 
     38 H38         3.5447   52.2772   18.5031 H         1 UNK         0.0000 
     39 H39         2.9975   56.4518   15.9173 H         1 UNK         0.0000 
     40 H40         2.8079   50.0638   17.2818 H         1 UNK         0.0000 
     41 H41         1.5560   51.5542   19.2489 H         1 UNK         0.0000 
     42 H42        -0.5586   50.3579   19.2165 H         1 UNK         0.0000 
     43 H43         0.2401   48.8316   18.8454 H         1 UNK         0.0000 
     44 H44        -0.0089   50.1984   21.5075 H         1 UNK         0.0000 
     45 H45         0.0845   48.4823   21.1600 H         1 UNK         0.0000 
     46 H46         2.2421   50.2885   21.9239 H         1 UNK         0.0000 
     47 H47         2.3982   48.5683   21.6048 H         1 UNK         0.0000 
     48 H48         3.0573   48.9193   19.3770 H         1 UNK         0.0000 
     49 H49         3.5671   50.4890   19.9970 H         1 UNK         0.0000 
     50 H50         1.8394   52.6849   24.9930 H         1 UNK         0.0000 
     51 H51         1.4893   54.3928   24.7762 H         1 UNK         0.0000 
     52 H52         1.6304   53.7267   26.4069 H         1 UNK         0.0000 
@<TRIPOS>BOND
     1    1    2 1    
     2    1   32 1    
     3    1   33 1    
     4    1   34 1    
     5    2    7 ar   
     6    2    3 ar   
     7    3    4 ar   
     8    3   35 1    
     9    4    5 ar   
    10    4   31 1    
    11    5   10 1    
    12    5    6 ar   
    13    6    7 ar   
    14    6    8 1    
    15    7   36 1    
    16    8    9 1    
    17    9   10 2    
    18    9   11 am   BACKBONE|DICT|INTERRES
    19   11   12 am   BACKBONE|DICT|INTERRES
    20   11   37 1    
    21   12   13 2    
    22   12   14 1    
    23   14   19 ar   
    24   14   15 ar   
    25   15   16 ar   
    26   15   38 1    
    27   16   17 ar   
    28   16   22 1    
    29   17   18 ar   
    30   17   21 1    
    31   18   19 ar   
    32   18   39 1    
    33   19   20 1    
    34   22   23 2    
    35   22   24 2    
    36   22   25 1    
    37   25   26 1    
    38   25   40 1    
    39   26   30 1    
    40   26   27 1    
    41   26   41 1    
    42   27   28 1    
    43   27   42 1    
    44   27   43 1    
    45   28   29 1    
    46   28   44 1    
    47   28   45 1    
    48   29   30 1    
    49   29   46 1    
    50   29   47 1    
    51   30   48 1    
    52   30   49 1    
    53   31   50 1    
    54   31   51 1    
    55   31   52 1    
@<TRIPOS>SUBSTRUCTURE
     1 UNK         1 GROUP             0       ****    0 ROOT    
