ZINC54211480_1339
                    3D
 Schrodinger Suite 2024-2.
 43 44  0  0  1  0            999 V2000
   -7.4713   55.4481   26.8826 C   0  0  0  0  0  0
   -7.3680   54.2883   26.5180 C   0  0  0  0  0  0
   -7.2783   52.8832   26.0851 C   0  0  0  0  0  0
   -6.0406   52.5922   25.3596 N   0  0  0  0  0  0
   -4.9333   52.0457   25.8960 C   0  0  0  0  0  0
   -4.8259   51.7811   27.0941 O   0  0  0  0  0  0
   -3.7966   51.7352   24.9071 C   0  0  0  0  0  0
   -2.6648   50.9072   25.5862 N   0  3  1  0  0  0
   -2.0570   49.8972   24.5813 C   0  0  0  0  0  0
   -1.0511   49.0060   25.3286 C   0  0  0  0  0  0
    0.0770   49.8171   25.9905 C   0  0  0  0  0  0
   -0.5008   50.9485   26.8855 C   0  0  2  0  0  0
   -0.9553   50.5020   27.7721 H   0  0  0  0  0  0
   -1.5789   51.8311   26.1975 C   0  0  0  0  0  0
    0.6620   51.7978   27.4433 C   0  0  0  0  0  0
    0.9703   51.6962   28.6314 O   0  0  0  0  0  0
    1.3057   52.5822   26.5505 N   0  0  0  0  0  0
    2.5042   53.2969   26.7083 C   0  0  0  0  0  0
    3.0317   53.8576   25.5404 C   0  0  0  0  0  0
    4.2837   54.4695   25.5895 C   0  0  0  0  0  0
    4.9792   54.5038   26.7960 C   0  0  0  0  0  0
    4.3842   53.9550   27.9298 C   0  0  0  0  0  0
    3.1648   53.3597   27.9011 N   0  0  0  0  0  0
    6.7046   55.2965   26.8808 Br  0  0  0  0  0  0
   -7.5486   56.4680   27.1901 H   0  0  0  0  0  0
   -7.3963   52.2500   26.9693 H   0  0  0  0  0  0
   -8.1315   52.6709   25.4383 H   0  0  0  0  0  0
   -6.0704   52.7605   24.3643 H   0  0  0  0  0  0
   -4.2075   51.1272   24.0968 H   0  0  0  0  0  0
   -3.3577   52.6346   24.4729 H   0  0  0  0  0  0
   -2.8787   49.2808   24.2116 H   0  0  0  0  0  0
   -1.6097   50.4605   23.7578 H   0  0  0  0  0  0
   -1.5754   48.4168   26.0808 H   0  0  0  0  0  0
   -0.6201   48.2782   24.6399 H   0  0  0  0  0  0
    0.6719   49.1089   26.5711 H   0  0  0  0  0  0
    0.6610   50.2199   25.1601 H   0  0  0  0  0  0
   -1.1965   52.4301   25.3691 H   0  0  0  0  0  0
   -2.1045   52.4514   26.9271 H   0  0  0  0  0  0
    0.9379   52.5904   25.6127 H   0  0  0  0  0  0
    2.5015   53.7996   24.6018 H   0  0  0  0  0  0
    4.7165   54.8950   24.6948 H   0  0  0  0  0  0
    4.8906   53.9798   28.8850 H   0  0  0  0  0  0
   -3.0897   50.3696   26.3361 H   0  0  0  0  0  0
  1  2  3  0  0  0
  1 25  1  0  0  0
  2  3  1  0  0  0
  3  4  1  0  0  0
  3 26  1  0  0  0
  3 27  1  0  0  0
  4  5  1  0  0  0
  4 28  1  0  0  0
  5  6  2  0  0  0
  5  7  1  0  0  0
  7  8  1  0  0  0
  7 29  1  0  0  0
  7 30  1  0  0  0
  8 14  1  0  0  0
  8  9  1  0  0  0
  8 43  1  0  0  0
  9 10  1  0  0  0
  9 31  1  0  0  0
  9 32  1  0  0  0
 10 11  1  0  0  0
 10 33  1  0  0  0
 10 34  1  0  0  0
 11 12  1  0  0  0
 11 35  1  0  0  0
 11 36  1  0  0  0
 12 13  1  0  0  0
 12 14  1  0  0  0
 12 15  1  0  0  0
 14 37  1  0  0  0
 14 38  1  0  0  0
 15 16  2  0  0  0
 15 17  1  0  0  0
 17 18  1  0  0  0
 17 39  1  0  0  0
 18 23  2  0  0  0
 18 19  1  0  0  0
 19 20  2  0  0  0
 19 40  1  0  0  0
 20 21  1  0  0  0
 20 41  1  0  0  0
 21 22  2  0  0  0
 21 24  1  0  0  0
 22 23  1  0  0  0
 22 42  1  0  0  0
M  CHG  1   8   1
M  END
> <i_i_glide_confnum>
76

> <i_i_glide_lignum>
1340

> <i_i_glide_posenum>
395

> <i_i_glide_rotatable_bonds>
8

> <i_m_Source_File_Index>
2227

> <b_m_subgroup_collapsed>
0

> <r_i_docking_score>
-3.32761

> <r_i_glide_ecoul>
-2.54682

> <r_i_glide_eff_state_penalty>
0

> <r_i_glide_einternal>
7.02518

> <r_i_glide_emodel>
-38.1043

> <r_i_glide_energy>
-32.9996

> <r_i_glide_erotb>
1.07325

> <r_i_glide_esite>
-0.0247427

> <r_i_glide_evdw>
-30.4528

> <r_i_glide_gscore>
-3.32761

> <r_i_glide_hbond>
0

> <r_i_glide_ligand_efficiency>
-0.144679

> <r_i_glide_ligand_efficiency_ln>
-0.804646

> <r_i_glide_ligand_efficiency_sa>
-0.411447

> <r_i_glide_lipo>
-1.51038

> <r_i_glide_metal>
0

> <r_i_glide_rewards>
-0.961073

> <s_i_glide_gridfile>
wee1_glide-grid

> <s_m_Source_File>
wee1_decoys_glide_SP.sdf

> <s_m_Source_Path>
/Users/zhangxujun/Desktop

> <s_m_entry_id>
2502

> <s_m_entry_name>
wee1_decoys_glide_SP.2227

> <s_m_subgroup_title>
wee1_decoys_glide_SP

> <s_m_subgroupid>
wee1_decoys_glide_SP


$$$$
