ZINC66720125_1456
                    3D
 Schrodinger Suite 2024-2.
 55 57  0  0  1  0            999 V2000
    4.6278   53.2362   28.9703 C   0  0  0  0  0  0
    4.8433   53.7912   27.5678 C   0  0  0  0  0  0
    6.1619   54.0866   27.2019 C   0  0  0  0  0  0
    6.4780   54.4364   25.8935 C   0  0  0  0  0  0
    5.4853   54.4927   24.9224 C   0  0  0  0  0  0
    4.1494   54.2865   25.3010 C   0  0  0  0  0  0
    3.8027   53.9325   26.6152 C   0  0  0  0  0  0
    2.3369   53.6967   26.9290 C   0  0  0  0  0  0
    1.5635   53.2812   26.0657 O   0  0  0  0  0  0
    1.9313   54.0158   28.1716 N   0  0  0  0  0  0
    0.6034   53.8020   28.7464 C   0  0  0  0  0  0
    0.2458   52.3076   28.8739 C   0  0  0  0  0  0
    0.5055   54.5092   30.1064 C   0  0  0  0  0  0
    5.8920   54.7479   23.5991 N   0  0  0  0  0  0
    5.2840   54.3151   22.4667 C   0  0  0  0  0  0
    4.3310   53.5331   22.4726 O   0  0  0  0  0  0
    5.8845   54.8956   21.2058 C   0  0  0  0  0  0
    6.7042   55.8228   21.2818 O   0  0  0  0  0  0
    5.5067   54.3674   19.9957 N   0  0  0  0  0  0
    4.6096   53.2148   19.7566 C   0  0  0  0  0  0
    4.5275   53.1070   18.2380 C   0  0  0  0  0  0
    5.8724   53.6282   17.7754 C   0  0  0  0  0  0
    6.1694   54.7846   18.7405 C   0  0  1  0  0  0
    7.2458   54.8242   18.9219 H   0  0  0  0  0  0
    5.7224   56.1368   18.2041 C   0  0  0  0  0  0
    4.4861   56.4995   17.6704 C   0  0  0  0  0  0
    4.6300   57.7984   17.2588 C   0  0  0  0  0  0
    5.8808   58.2123   17.5823 O   0  0  0  0  0  0
    6.5606   57.1522   18.1845 N   0  0  0  0  0  0
    3.7176   58.7882   16.5853 C   0  0  0  0  0  0
    3.8242   52.4999   29.0071 H   0  0  0  0  0  0
    5.5049   52.6768   29.2807 H   0  0  0  0  0  0
    4.4349   54.0347   29.6878 H   0  0  0  0  0  0
    6.9614   53.9930   27.9245 H   0  0  0  0  0  0
    7.5047   54.5962   25.6164 H   0  0  0  0  0  0
    3.3681   54.3785   24.5584 H   0  0  0  0  0  0
    2.6104   54.4564   28.7707 H   0  0  0  0  0  0
   -0.1263   54.2682   28.0834 H   0  0  0  0  0  0
   -0.7226   52.1795   29.3614 H   0  0  0  0  0  0
    0.1689   51.8209   27.9021 H   0  0  0  0  0  0
    0.9743   51.7684   29.4794 H   0  0  0  0  0  0
   -0.4930   54.3913   30.5297 H   0  0  0  0  0  0
    1.1968   54.0775   30.8319 H   0  0  0  0  0  0
    0.7034   55.5788   30.0268 H   0  0  0  0  0  0
    6.7236   55.3120   23.4768 H   0  0  0  0  0  0
    3.6139   53.3718   20.1765 H   0  0  0  0  0  0
    5.0532   52.3027   20.1601 H   0  0  0  0  0  0
    3.7210   53.7368   17.8657 H   0  0  0  0  0  0
    4.3033   52.0969   17.8942 H   0  0  0  0  0  0
    5.8682   53.9244   16.7246 H   0  0  0  0  0  0
    6.6215   52.8408   17.8898 H   0  0  0  0  0  0
    3.6041   55.8896   17.5676 H   0  0  0  0  0  0
    2.8292   58.3076   16.1793 H   0  0  0  0  0  0
    4.2175   59.2952   15.7602 H   0  0  0  0  0  0
    3.3755   59.5541   17.2809 H   0  0  0  0  0  0
  1  2  1  0  0  0
  1 31  1  0  0  0
  1 32  1  0  0  0
  1 33  1  0  0  0
  2  7  2  0  0  0
  2  3  1  0  0  0
  3  4  2  0  0  0
  3 34  1  0  0  0
  4  5  1  0  0  0
  4 35  1  0  0  0
  5  6  2  0  0  0
  5 14  1  0  0  0
  6  7  1  0  0  0
  6 36  1  0  0  0
  7  8  1  0  0  0
  8  9  2  0  0  0
  8 10  1  0  0  0
 10 11  1  0  0  0
 10 37  1  0  0  0
 11 12  1  0  0  0
 11 13  1  0  0  0
 11 38  1  0  0  0
 12 39  1  0  0  0
 12 40  1  0  0  0
 12 41  1  0  0  0
 13 42  1  0  0  0
 13 43  1  0  0  0
 13 44  1  0  0  0
 14 15  1  0  0  0
 14 45  1  0  0  0
 15 16  2  0  0  0
 15 17  1  0  0  0
 17 18  2  0  0  0
 17 19  1  0  0  0
 19 23  1  0  0  0
 19 20  1  0  0  0
 20 21  1  0  0  0
 20 46  1  0  0  0
 20 47  1  0  0  0
 21 22  1  0  0  0
 21 48  1  0  0  0
 21 49  1  0  0  0
 22 23  1  0  0  0
 22 50  1  0  0  0
 22 51  1  0  0  0
 23 24  1  0  0  0
 23 25  1  0  0  0
 25 29  2  0  0  0
 25 26  1  0  0  0
 26 27  2  0  0  0
 26 52  1  0  0  0
 27 28  1  0  0  0
 27 30  1  0  0  0
 28 29  1  0  0  0
 30 53  1  0  0  0
 30 54  1  0  0  0
 30 55  1  0  0  0
M  END
> <i_i_glide_confnum>
165

> <i_i_glide_lignum>
1457

> <i_i_glide_posenum>
218

> <i_i_glide_rotatable_bonds>
8

> <i_m_Source_File_Index>
2616

> <b_m_subgroup_collapsed>
0

> <r_i_docking_score>
-5.76042

> <r_i_glide_ecoul>
-0.892027

> <r_i_glide_eff_state_penalty>
0

> <r_i_glide_einternal>
8.4071

> <r_i_glide_emodel>
-54.9709

> <r_i_glide_energy>
-44.0024

> <r_i_glide_erotb>
0.863491

> <r_i_glide_esite>
-0.0586282

> <r_i_glide_evdw>
-43.1104

> <r_i_glide_gscore>
-5.76042

> <r_i_glide_hbond>
0

> <r_i_glide_ligand_efficiency>
-0.198635

> <r_i_glide_ligand_efficiency_ln>
-1.31899

> <r_i_glide_ligand_efficiency_sa>
-0.61027

> <r_i_glide_lipo>
-2.74928

> <r_i_glide_metal>
0

> <r_i_glide_rewards>
-1.52667

> <s_i_glide_gridfile>
wee1_glide-grid

> <s_m_Source_File>
wee1_decoys_glide_SP.sdf

> <s_m_Source_Path>
/Users/zhangxujun/Desktop

> <s_m_entry_id>
2891

> <s_m_entry_name>
wee1_decoys_glide_SP.2616

> <s_m_subgroup_title>
wee1_decoys_glide_SP

> <s_m_subgroupid>
wee1_decoys_glide_SP


$$$$
