@<TRIPOS>MOLECULE
ZINC09789065_60
54   58    1
SMALL
USER_CHARGES


@<TRIPOS>ATOM
      1 C1          0.5390   50.0595   18.4038 C.3       1 UNK         0.0000 
      2 C2          1.2189   51.2791   19.0700 C.3       1 UNK         0.0000 
      3 C3          0.6228   51.5205   20.4544 C.2       1 UNK         0.0000 
      4 O4         -0.5589   51.7723   20.7104 O.2       1 UNK         0.0000 
      5 N5          1.6458   51.3675   21.3221 N.am      1 UNK         0.0000 
      6 C6          2.8359   51.0949   20.7319 C.2       1 UNK         0.0000 
      7 O7          3.9153   50.9037   21.2817 O.2       1 UNK         0.0000 
      8 N8          2.5752   50.9545   19.4286 N.am      1 UNK         0.0000 
      9 C9          1.4610   51.2914   22.7889 C.3       1 UNK         0.0000 
     10 C10         1.7401   52.6271   23.5027 C.2       1 UNK         0.0000 
     11 O11         1.7922   53.6956   22.8932 O.2       1 UNK         0.0000 
     12 N12         1.9039   52.5189   24.8330 N.am      1 UNK         0.0000 
     13 C13         2.1960   53.5889   25.7995 C.3       1 UNK         0.0000 
     14 H14         1.7596   54.4964   25.3834 H         1 UNK         0.0000 
     15 C15         3.6987   53.9194   25.9371 C.ar      1 UNK         0.0000 
     16 C16         4.3991   53.6965   27.1348 C.ar      1 UNK         0.0000 
     17 C17         5.7564   53.9891   27.2306 C.ar      1 UNK         0.0000 
     18 C18         6.4262   54.5087   26.1288 C.ar      1 UNK         0.0000 
     19 C19         5.7470   54.7621   24.9409 C.ar      1 UNK         0.0000 
     20 C20         4.3863   54.4777   24.8508 C.ar      1 UNK         0.0000 
     21 C21         1.4991   53.3115   27.1376 C.2       1 UNK         0.0000 
     22 C22         1.1055   54.2335   28.1125 C.2       1 UNK         0.0000 
     23 C23         0.4873   53.6804   29.2372 C.2       1 UNK         0.0000 
     24 C24         0.3939   52.3049   29.1627 C.2       1 UNK         0.0000 
     25 S25         1.0999   51.6999   27.7044 S.3       1 UNK         0.0000 
     26 C26         1.0743   52.5505   18.2363 C.2       1 UNK         0.0000 
     27 C27         1.9988   53.4321   17.6817 C.2       1 UNK         0.0000 
     28 C28         1.2503   54.4920   17.0859 C.ar      1 UNK         0.0000 
     29 C29         1.5419   55.6978   16.4288 C.ar      1 UNK         0.0000 
     30 C30         0.4789   56.5031   16.0056 C.ar      1 UNK         0.0000 
     31 C31        -0.8503   56.1238   16.2088 C.ar      1 UNK         0.0000 
     32 C32        -1.1729   54.9250   16.8480 C.ar      1 UNK         0.0000 
     33 C33        -0.1021   54.1340   17.2811 C.ar      1 UNK         0.0000 
     34 O34        -0.2035   52.9504   17.9512 O.3       1 UNK         0.0000 
     35 H35        -0.5174   50.2449   18.2029 H         1 UNK         0.0000 
     36 H36         1.0125   49.8269   17.4487 H         1 UNK         0.0000 
     37 H37         0.6029   49.1603   19.0196 H         1 UNK         0.0000 
     38 H38         3.3113   51.0082   18.7327 H         1 UNK         0.0000 
     39 H39         2.0895   50.5029   23.2069 H         1 UNK         0.0000 
     40 H40         0.4305   51.0152   23.0165 H         1 UNK         0.0000 
     41 H41         1.9377   51.5871   25.2143 H         1 UNK         0.0000 
     42 H42         3.9100   53.2716   27.9982 H         1 UNK         0.0000 
     43 H43         6.2904   53.8008   28.1515 H         1 UNK         0.0000 
     44 H44         7.4828   54.7100   26.1995 H         1 UNK         0.0000 
     45 H45         6.2728   55.1717   24.0907 H         1 UNK         0.0000 
     46 H46         3.8733   54.6796   23.9224 H         1 UNK         0.0000 
     47 H47         1.2619   55.2967   28.0034 H         1 UNK         0.0000 
     48 H48         0.1194   54.2631   30.0699 H         1 UNK         0.0000 
     49 H49        -0.0475   51.6276   29.8808 H         1 UNK         0.0000 
     50 H50         3.0725   53.3391   17.7505 H         1 UNK         0.0000 
     51 H51         2.5647   56.0060   16.2688 H         1 UNK         0.0000 
     52 H52         0.6903   57.4415   15.5112 H         1 UNK         0.0000 
     53 H53        -1.6414   56.7731   15.8611 H         1 UNK         0.0000 
     54 H54        -2.1962   54.6209   17.0062 H         1 UNK         0.0000 
@<TRIPOS>BOND
     1    1    2 1    
     2    1   35 1    
     3    1   36 1    
     4    1   37 1    
     5    2    8 1    
     6    2    3 1    
     7    2   26 1    
     8    3    4 2    
     9    3    5 am   BACKBONE|DICT|INTERRES
    10    5    6 am   BACKBONE|DICT|INTERRES
    11    5    9 1    
    12    6    7 2    
    13    6    8 am   BACKBONE|DICT|INTERRES
    14    8   38 1    
    15    9   10 1    
    16    9   39 1    
    17    9   40 1    
    18   10   11 2    
    19   10   12 am   BACKBONE|DICT|INTERRES
    20   12   13 1    
    21   12   41 1    
    22   13   14 1    
    23   13   15 1    
    24   13   21 1    
    25   15   20 ar   
    26   15   16 ar   
    27   16   17 ar   
    28   16   42 1    
    29   17   18 ar   
    30   17   43 1    
    31   18   19 ar   
    32   18   44 1    
    33   19   20 ar   
    34   19   45 1    
    35   20   46 1    
    36   21   25 1    
    37   21   22 2    
    38   22   23 1    
    39   22   47 1    
    40   23   24 2    
    41   23   48 1    
    42   24   25 1    
    43   24   49 1    
    44   26   34 1    
    45   26   27 2    
    46   27   28 1    
    47   27   50 1    
    48   28   33 ar   
    49   28   29 ar   
    50   29   30 ar   
    51   29   51 1    
    52   30   31 ar   
    53   30   52 1    
    54   31   32 ar   
    55   31   53 1    
    56   32   33 ar   
    57   32   54 1    
    58   33   34 1    
@<TRIPOS>SUBSTRUCTURE
     1 UNK         1 GROUP             0       ****    0 ROOT    
