@<TRIPOS>MOLECULE
ZINC54499135_6174
26   27    1
SMALL
USER_CHARGES


@<TRIPOS>ATOM
      1 C1          6.4082   54.6920   22.5719 C.3       1 UNK         0.0000 
      2 C2          5.9827   54.6051   24.0191 C.ar      1 UNK         0.0000 
      3 N3          4.8155   54.1045   24.3861 N.2       1 UNK         0.0000 
      4 C4          4.8365   54.1639   25.7016 C.ar      1 UNK         0.0000 
      5 N5          6.0509   54.7080   26.0709 N.pl3     1 UNK         0.0000 
      6 N6          6.7773   54.9838   24.9881 N.2       1 UNK         0.0000 
      7 C7          6.6435   54.9555   27.3717 C.3       1 UNK         0.0000 
      8 C8          3.7135   53.6810   26.6033 C.ar      1 UNK         0.0000 
      9 C9          4.0124   53.2970   27.9220 C.ar      1 UNK         0.0000 
     10 C10         3.0336   52.8110   28.7851 C.ar      1 UNK         0.0000 
     11 C11         1.7223   52.6785   28.3458 C.ar      1 UNK         0.0000 
     12 C12         1.4007   53.0203   27.0365 C.ar      1 UNK         0.0000 
     13 C13         2.3776   53.5098   26.1663 C.ar      1 UNK         0.0000 
     14 N14         1.9728   53.7852   24.8595 N.pl3     1 UNK         0.0000 
     15 Br15        3.5045   52.2977   30.5541 Br        1 UNK         0.0000 
     16 H16         7.4659   54.4403   22.4772 H         1 UNK         0.0000 
     17 H17         6.3047   55.6961   22.1615 H         1 UNK         0.0000 
     18 H18         5.8970   53.9680   21.9373 H         1 UNK         0.0000 
     19 H19         5.8964   55.3410   28.0628 H         1 UNK         0.0000 
     20 H20         7.0773   54.0324   27.7573 H         1 UNK         0.0000 
     21 H21         7.4319   55.6965   27.2825 H         1 UNK         0.0000 
     22 H22         5.0178   53.3165   28.3012 H         1 UNK         0.0000 
     23 H23         0.9609   52.2930   29.0086 H         1 UNK         0.0000 
     24 H24         0.3827   52.8915   26.6985 H         1 UNK         0.0000 
     25 H25         2.6867   54.0261   24.1851 H         1 UNK         0.0000 
     26 H26         1.0518   53.5060   24.5578 H         1 UNK         0.0000 
@<TRIPOS>BOND
     1    1    2 1    
     2    1   16 1    
     3    1   17 1    
     4    1   18 1    
     5    2    6 ar   
     6    2    3 ar   
     7    3    4 ar   
     8    4    5 ar   
     9    4    8 1    
    10    5    6 ar   
    11    5    7 1    
    12    7   19 1    
    13    7   20 1    
    14    7   21 1    
    15    8   13 ar   
    16    8    9 ar   
    17    9   10 ar   
    18    9   22 1    
    19   10   11 ar   
    20   10   15 1    
    21   11   12 ar   
    22   11   23 1    
    23   12   13 ar   
    24   12   24 1    
    25   13   14 1    
    26   14   25 1    
    27   14   26 1    
@<TRIPOS>SUBSTRUCTURE
     1 UNK         1 GROUP             0       ****    0 ROOT    
