@<TRIPOS>MOLECULE
ZINC38683349_846
57   60    1
SMALL
USER_CHARGES


@<TRIPOS>ATOM
      1 C1          9.2802   52.2011   13.7664 C.3       1 UNK         0.0000 
      2 C2          8.6028   52.6662   15.0427 C.ar      1 UNK         0.0000 
      3 C3          7.2338   52.4688   15.2168 C.ar      1 UNK         0.0000 
      4 C4          6.6126   52.8941   16.3872 C.ar      1 UNK         0.0000 
      5 C5          7.3518   53.5232   17.3909 C.ar      1 UNK         0.0000 
      6 C6          8.7255   53.7334   17.2052 C.ar      1 UNK         0.0000 
      7 C7          9.3491   53.3040   16.0357 C.ar      1 UNK         0.0000 
      8 C8          6.6619   53.9376   18.6272 C.2       1 UNK         0.0000 
      9 C9          7.0624   54.9384   19.4418 C.2       1 UNK         0.0000 
     10 C10         6.4092   55.2970   20.6968 C.2       1 UNK         0.0000 
     11 O11         6.7034   56.3403   21.2810 O.2       1 UNK         0.0000 
     12 O12         5.5039   54.3630   21.1433 O.3       1 UNK         0.0000 
     13 C13         5.0156   54.3953   22.4325 C.ar      1 UNK         0.0000 
     14 C14         3.6396   54.4960   22.6298 C.ar      1 UNK         0.0000 
     15 C15         3.1051   54.4835   23.9203 C.ar      1 UNK         0.0000 
     16 C16         3.9212   54.3211   25.0529 C.ar      1 UNK         0.0000 
     17 C17         5.3125   54.2348   24.8303 C.ar      1 UNK         0.0000 
     18 C18         5.8543   54.2635   23.5460 C.ar      1 UNK         0.0000 
     19 O19         6.2242   54.0996   25.8568 O.3       1 UNK         0.0000 
     20 C20         5.7718   53.8995   27.1139 C.2       1 UNK         0.0000 
     21 C21         4.4765   53.8931   27.4900 C.2       1 UNK         0.0000 
     22 C22         3.3555   54.2394   26.4977 C.3       1 UNK         0.0000 
     23 H23         3.1006   55.2677   26.7541 H         1 UNK         0.0000 
     24 C24         2.0392   53.4479   26.7109 C.ar      1 UNK         0.0000 
     25 C25         1.5747   52.4984   25.7882 C.ar      1 UNK         0.0000 
     26 C26         0.3733   51.8277   25.9957 C.ar      1 UNK         0.0000 
     27 C27        -0.3839   52.0704   27.1442 C.ar      1 UNK         0.0000 
     28 C28         0.0797   53.0037   28.0817 C.ar      1 UNK         0.0000 
     29 C29         1.2674   53.6971   27.8512 C.ar      1 UNK         0.0000 
     30 C30        -1.6875   51.3537   27.3187 C.2       1 UNK         0.0000 
     31 O31        -2.3026   50.8345   26.3840 O.2       1 UNK         0.0000 
     32 O32        -2.0865   51.2977   28.6135 O.3       1 UNK         0.0000 
     33 C33        -3.2853   50.6296   28.9822 C.3       1 UNK         0.0000 
     34 C34         4.1540   53.6561   28.8610 C.1       1 UNK         0.0000 
     35 N35         3.9031   53.4920   29.9795 N.1       1 UNK         0.0000 
     36 N36         6.8535   53.6934   27.9209 N.pl3     1 UNK         0.0000 
     37 H37         8.5890   52.2284   12.9232 H         1 UNK         0.0000 
     38 H38        10.1126   52.8538   13.5047 H         1 UNK         0.0000 
     39 H39         9.6553   51.1841   13.8786 H         1 UNK         0.0000 
     40 H40         6.6497   51.9717   14.4554 H         1 UNK         0.0000 
     41 H41         5.5543   52.7110   16.5164 H         1 UNK         0.0000 
     42 H42         9.3231   54.2058   17.9699 H         1 UNK         0.0000 
     43 H43        10.4094   53.4616   15.9068 H         1 UNK         0.0000 
     44 H44         5.7888   53.3517   18.8822 H         1 UNK         0.0000 
     45 H45         7.9250   55.5393   19.1904 H         1 UNK         0.0000 
     46 H46         2.9837   54.5940   21.7750 H         1 UNK         0.0000 
     47 H47         2.0358   54.5787   24.0359 H         1 UNK         0.0000 
     48 H48         6.9227   54.1762   23.4146 H         1 UNK         0.0000 
     49 H49         2.1482   52.2554   24.9100 H         1 UNK         0.0000 
     50 H50         0.0455   51.1101   25.2547 H         1 UNK         0.0000 
     51 H51        -0.4875   53.2226   28.9772 H         1 UNK         0.0000 
     52 H52         1.5884   54.4357   28.5724 H         1 UNK         0.0000 
     53 H53        -3.3569   50.5722   30.0681 H         1 UNK         0.0000 
     54 H54        -4.1629   51.1579   28.6035 H         1 UNK         0.0000 
     55 H55        -3.2982   49.6118   28.5907 H         1 UNK         0.0000 
     56 H56         6.7680   53.7537   28.9258 H         1 UNK         0.0000 
     57 H57         7.7164   53.3333   27.5406 H         1 UNK         0.0000 
@<TRIPOS>BOND
     1    1    2 1    
     2    1   37 1    
     3    1   38 1    
     4    1   39 1    
     5    2    7 ar   
     6    2    3 ar   
     7    3    4 ar   
     8    3   40 1    
     9    4    5 ar   
    10    4   41 1    
    11    5    6 ar   
    12    5    8 1    
    13    6    7 ar   
    14    6   42 1    
    15    7   43 1    
    16    8    9 2    
    17    8   44 1    
    18    9   10 1    
    19    9   45 1    
    20   10   11 2    
    21   10   12 1    
    22   12   13 1    
    23   13   18 ar   
    24   13   14 ar   
    25   14   15 ar   
    26   14   46 1    
    27   15   16 ar   
    28   15   47 1    
    29   16   22 1    
    30   16   17 ar   
    31   17   18 ar   
    32   17   19 1    
    33   18   48 1    
    34   19   20 1    
    35   20   21 2    
    36   20   36 1    
    37   21   22 1    
    38   21   34 1    
    39   22   23 1    
    40   22   24 1    
    41   24   29 ar   
    42   24   25 ar   
    43   25   26 ar   
    44   25   49 1    
    45   26   27 ar   
    46   26   50 1    
    47   27   28 ar   
    48   27   30 1    
    49   28   29 ar   
    50   28   51 1    
    51   29   52 1    
    52   30   31 2    
    53   30   32 1    
    54   32   33 1    
    55   33   53 1    
    56   33   54 1    
    57   33   55 1    
    58   34   35 3    
    59   36   56 1    
    60   36   57 1    
@<TRIPOS>SUBSTRUCTURE
     1 UNK         1 GROUP             0       ****    0 ROOT    
