ZINC09406872_5032
                    3D
 Schrodinger Suite 2024-2.
 63 67  0  0  1  0            999 V2000
    1.9719   53.6048   26.4153 C   0  0  0  0  0  0
    3.0557   53.9447   25.4074 C   0  0  0  0  0  0
    4.3409   54.2797   25.8448 C   0  0  0  0  0  0
    5.3625   54.5217   24.9218 C   0  0  0  0  0  0
    5.0981   54.4154   23.5547 C   0  0  0  0  0  0
    3.8085   54.0961   23.1078 C   0  0  0  0  0  0
    2.7868   53.8762   24.0360 C   0  0  0  0  0  0
    3.5047   54.0128   21.7415 N   0  0  0  0  0  0
    4.1682   53.2593   20.8420 C   0  0  0  0  0  0
    5.1027   52.5144   21.1447 O   0  0  0  0  0  0
    3.6659   53.3341   19.3820 C   0  0  2  0  0  0
    3.1055   54.2606   19.2790 H   0  0  0  0  0  0
    2.7443   52.1192   19.1174 C   0  0  0  0  0  0
    2.2259   52.1811   17.6643 C   0  0  0  0  0  0
    3.3840   52.2467   16.6490 C   0  0  0  0  0  0
    4.3811   53.2944   16.9955 N   0  0  0  0  0  0
    4.8660   53.3543   18.3990 C   0  0  0  0  0  0
    4.8175   54.5325   15.8079 S   0  0  0  0  0  0
    6.0305   55.2252   16.2631 O   0  0  0  0  0  0
    4.7236   53.9428   14.4666 O   0  0  0  0  0  0
    3.4710   55.7086   15.9033 C   0  0  0  0  0  0
    3.7075   57.0238   16.3205 C   0  0  0  0  0  0
    2.6804   57.9648   16.4071 C   0  0  0  0  0  0
    1.3975   57.5136   16.0817 C   0  0  0  0  0  0
    1.1312   56.1901   15.6593 C   0  0  0  0  0  0
    2.1855   55.2809   15.5478 C   0  0  0  0  0  0
   -0.2057   55.9991   15.4182 N   0  0  0  0  0  0
   -0.7652   57.1626   15.6655 C   0  0  0  0  0  0
    0.1584   58.0981   16.0810 N   0  0  0  0  0  0
   -0.0737   59.0440   16.3484 H   0  0  0  0  0  0
   -2.2263   57.4564   15.5160 C   0  0  0  0  0  0
   -3.1516   56.4092   15.4372 C   0  0  0  0  0  0
   -4.5092   56.6810   15.2825 C   0  0  0  0  0  0
   -4.9451   58.0031   15.2099 C   0  0  0  0  0  0
   -4.0343   59.0534   15.2822 C   0  0  0  0  0  0
   -2.6768   58.7803   15.4353 C   0  0  0  0  0  0
    6.7458   54.9192   25.3981 C   0  0  0  0  0  0
    1.1942   52.9840   25.9662 H   0  0  0  0  0  0
    1.5109   54.4965   26.8398 H   0  0  0  0  0  0
    2.3939   53.0210   27.2338 H   0  0  0  0  0  0
    4.5468   54.3401   26.9035 H   0  0  0  0  0  0
    5.8879   54.5968   22.8381 H   0  0  0  0  0  0
    1.7948   53.6185   23.6932 H   0  0  0  0  0  0
    2.6483   54.4537   21.4305 H   0  0  0  0  0  0
    3.2910   51.1774   19.2079 H   0  0  0  0  0  0
    1.8625   52.1309   19.7601 H   0  0  0  0  0  0
    1.6074   51.3079   17.4504 H   0  0  0  0  0  0
    1.5778   53.0501   17.5427 H   0  0  0  0  0  0
    3.9039   51.2971   16.5958 H   0  0  0  0  0  0
    3.0131   52.4164   15.6398 H   0  0  0  0  0  0
    5.4480   54.2702   18.5088 H   0  0  0  0  0  0
    5.5278   52.4968   18.5253 H   0  0  0  0  0  0
    4.7127   57.3366   16.5736 H   0  0  0  0  0  0
    2.8685   58.9820   16.7295 H   0  0  0  0  0  0
    1.9953   54.2750   15.2043 H   0  0  0  0  0  0
   -2.8221   55.3821   15.4929 H   0  0  0  0  0  0
   -5.2197   55.8709   15.2172 H   0  0  0  0  0  0
   -5.9979   58.2111   15.0834 H   0  0  0  0  0  0
   -4.3778   60.0746   15.2065 H   0  0  0  0  0  0
   -1.9819   59.6077   15.4730 H   0  0  0  0  0  0
    7.2554   55.5310   24.6517 H   0  0  0  0  0  0
    6.6876   55.5131   26.3112 H   0  0  0  0  0  0
    7.3401   54.0288   25.5950 H   0  0  0  0  0  0
  1  2  1  0  0  0
  1 38  1  0  0  0
  1 39  1  0  0  0
  1 40  1  0  0  0
  2  7  2  0  0  0
  2  3  1  0  0  0
  3  4  2  0  0  0
  3 41  1  0  0  0
  4  5  1  0  0  0
  4 37  1  0  0  0
  5  6  2  0  0  0
  5 42  1  0  0  0
  6  7  1  0  0  0
  6  8  1  0  0  0
  7 43  1  0  0  0
  8  9  1  0  0  0
  8 44  1  0  0  0
  9 10  2  0  0  0
  9 11  1  0  0  0
 11 12  1  0  0  0
 11 17  1  0  0  0
 11 13  1  0  0  0
 13 14  1  0  0  0
 13 45  1  0  0  0
 13 46  1  0  0  0
 14 15  1  0  0  0
 14 47  1  0  0  0
 14 48  1  0  0  0
 15 16  1  0  0  0
 15 49  1  0  0  0
 15 50  1  0  0  0
 16 17  1  0  0  0
 16 18  1  0  0  0
 17 51  1  0  0  0
 17 52  1  0  0  0
 18 19  2  0  0  0
 18 20  2  0  0  0
 18 21  1  0  0  0
 21 26  2  0  0  0
 21 22  1  0  0  0
 22 23  2  0  0  0
 22 53  1  0  0  0
 23 24  1  0  0  0
 23 54  1  0  0  0
 24 29  1  0  0  0
 24 25  2  0  0  0
 25 26  1  0  0  0
 25 27  1  0  0  0
 26 55  1  0  0  0
 27 28  2  0  0  0
 28 29  1  0  0  0
 28 31  1  0  0  0
 29 30  1  0  0  0
 31 36  2  0  0  0
 31 32  1  0  0  0
 32 33  2  0  0  0
 32 56  1  0  0  0
 33 34  1  0  0  0
 33 57  1  0  0  0
 34 35  2  0  0  0
 34 58  1  0  0  0
 35 36  1  0  0  0
 35 59  1  0  0  0
 36 60  1  0  0  0
 37 61  1  0  0  0
 37 62  1  0  0  0
 37 63  1  0  0  0
M  END
> <i_i_glide_confnum>
43

> <i_i_glide_lignum>
5033

> <i_i_glide_posenum>
220

> <i_i_glide_rotatable_bonds>
6

> <i_m_Source_File_Index>
2849

> <b_m_subgroup_collapsed>
0

> <r_i_docking_score>
-3.22685

> <r_i_glide_ecoul>
-6.08793

> <r_i_glide_eff_state_penalty>
0

> <r_i_glide_einternal>
6.57062

> <r_i_glide_emodel>
-39.4409

> <r_i_glide_energy>
-37.317

> <r_i_glide_erotb>
0.51114

> <r_i_glide_esite>
-0.091307

> <r_i_glide_evdw>
-31.2291

> <r_i_glide_gscore>
-3.22685

> <r_i_glide_hbond>
-0.366642

> <r_i_glide_ligand_efficiency>
-0.0921958

> <r_i_glide_ligand_efficiency_ln>
-0.708366

> <r_i_glide_ligand_efficiency_sa>
-0.301579

> <r_i_glide_lipo>
-1.78929

> <r_i_glide_metal>
0

> <r_i_glide_rewards>
0.983891

> <s_i_glide_gridfile>
wee1_glide-grid

> <s_m_Source_File>
wee1_decoys_glide_SP.sdf

> <s_m_Source_Path>
/Users/zhangxujun/Desktop

> <s_m_entry_id>
3124

> <s_m_entry_name>
wee1_decoys_glide_SP.2849

> <s_m_subgroup_title>
wee1_decoys_glide_SP

> <s_m_subgroupid>
wee1_decoys_glide_SP


$$$$
