@<TRIPOS>MOLECULE
ZINC38893986_889
70   74    1
SMALL
USER_CHARGES


@<TRIPOS>ATOM
      1 C1          5.3691   53.1398   22.4936 C.3       1 UNK         0.0000 
      2 C2          4.4093   53.5988   21.3760 C.3       1 UNK         0.0000 
      3 H3          3.8165   54.4478   21.7252 H         1 UNK         0.0000 
      4 C4          5.2367   54.1007   20.1846 C.ar      1 UNK         0.0000 
      5 C5          5.9076   55.3244   20.2970 C.ar      1 UNK         0.0000 
      6 C6          6.6828   55.8037   19.2445 C.ar      1 UNK         0.0000 
      7 C7          6.7911   55.0583   18.0735 C.ar      1 UNK         0.0000 
      8 C8          6.1262   53.8421   17.9441 C.ar      1 UNK         0.0000 
      9 C9          5.3470   53.3672   18.9946 C.ar      1 UNK         0.0000 
     10 N10         3.4607   52.5383   21.0159 N.am      1 UNK         0.0000 
     11 C11         2.5376   51.9482   21.8011 C.2       1 UNK         0.0000 
     12 O12         2.3043   52.3507   22.9431 O.2       1 UNK         0.0000 
     13 C13         1.8415   50.7230   21.2103 C.ar      1 UNK         0.0000 
     14 C14         2.3056   50.1776   19.9921 C.ar      1 UNK         0.0000 
     15 C15         1.7414   49.0344   19.4351 C.ar      1 UNK         0.0000 
     16 C16         0.6916   48.3943   20.0806 C.ar      1 UNK         0.0000 
     17 C17         0.2112   48.8974   21.2854 C.ar      1 UNK         0.0000 
     18 C18         0.7612   50.0535   21.8512 C.ar      1 UNK         0.0000 
     19 N19         0.1799   50.4620   23.0641 N.am      1 UNK         0.0000 
     20 C20        -0.7126   51.4696   23.1695 C.2       1 UNK         0.0000 
     21 O21        -1.1232   52.0980   22.1923 O.2       1 UNK         0.0000 
     22 C22        -1.2819   51.8350   24.5630 C.3       1 UNK         0.0000 
     23 H23        -1.2531   52.9265   24.5427 H         1 UNK         0.0000 
     24 C24        -2.7447   51.3334   24.6562 C.3       1 UNK         0.0000 
     25 C25        -3.3572   51.7685   26.0028 C.3       1 UNK         0.0000 
     26 C26        -2.5055   51.3190   27.2067 C.3       1 UNK         0.0000 
     27 N27        -1.0754   51.9068   27.0550 N.4       1 UNK         0.0000 
     28 C28        -0.4239   51.3362   25.7614 C.3       1 UNK         0.0000 
     29 C29        -0.2871   51.5742   28.3545 C.3       1 UNK         0.0000 
     30 C30         1.1138   52.1569   28.4090 C.2       1 UNK         0.0000 
     31 N31         1.7118   52.9693   27.5826 N.2       1 UNK         0.0000 
     32 C32         2.9372   53.0278   28.0730 C.2       1 UNK         0.0000 
     33 N33         3.1290   52.3795   29.2040 N.2       1 UNK         0.0000 
     34 O34         1.9012   51.7679   29.4387 O.3       1 UNK         0.0000 
     35 C35         4.0480   53.7406   27.3539 C.ar      1 UNK         0.0000 
     36 C36         5.3197   53.8668   27.9323 C.ar      1 UNK         0.0000 
     37 C37         6.3502   54.4980   27.2415 C.ar      1 UNK         0.0000 
     38 C38         6.1148   55.0078   25.9684 C.ar      1 UNK         0.0000 
     39 C39         4.8595   54.8964   25.3852 C.ar      1 UNK         0.0000 
     40 C40         3.8307   54.2629   26.0711 C.ar      1 UNK         0.0000 
     41 F41         7.1043   55.6300   25.2922 F         1 UNK         0.0000 
     42 H42         6.1088   53.9021   22.7399 H         1 UNK         0.0000 
     43 H43         4.8299   52.9167   23.4094 H         1 UNK         0.0000 
     44 H44         5.9041   52.2346   22.2054 H         1 UNK         0.0000 
     45 H45         5.8302   55.9063   21.2040 H         1 UNK         0.0000 
     46 H46         7.1998   56.7473   19.3329 H         1 UNK         0.0000 
     47 H47         7.3947   55.4272   17.2572 H         1 UNK         0.0000 
     48 H48         6.2150   53.2643   17.0354 H         1 UNK         0.0000 
     49 H49         4.8458   52.4213   18.8730 H         1 UNK         0.0000 
     50 H50         3.3991   52.3461   20.0287 H         1 UNK         0.0000 
     51 H51         3.1345   50.6090   19.4470 H         1 UNK         0.0000 
     52 H52         2.1321   48.6476   18.5032 H         1 UNK         0.0000 
     53 H53         0.2527   47.5072   19.6491 H         1 UNK         0.0000 
     54 H54        -0.6078   48.3884   21.7733 H         1 UNK         0.0000 
     55 H55         0.3216   49.8540   23.8556 H         1 UNK         0.0000 
     56 H56        -3.3717   51.7652   23.8720 H         1 UNK         0.0000 
     57 H57        -2.7885   50.2420   24.6380 H         1 UNK         0.0000 
     58 H58        -3.4793   52.8526   26.0247 H         1 UNK         0.0000 
     59 H59        -4.3627   51.3545   26.0989 H         1 UNK         0.0000 
     60 H60        -2.9334   51.6987   28.1352 H         1 UNK         0.0000 
     61 H61        -2.4225   50.2303   27.2810 H         1 UNK         0.0000 
     62 H62        -0.4168   50.2491   25.8802 H         1 UNK         0.0000 
     63 H63         0.5964   51.7127   25.6878 H         1 UNK         0.0000 
     64 H64        -0.8936   51.9364   29.1866 H         1 UNK         0.0000 
     65 H65        -0.2676   50.4935   28.3988 H         1 UNK         0.0000 
     66 H66         5.5218   53.4714   28.9162 H         1 UNK         0.0000 
     67 H67         7.3248   54.5939   27.6965 H         1 UNK         0.0000 
     68 H68         4.6865   55.2938   24.3977 H         1 UNK         0.0000 
     69 H69         2.8690   54.1713   25.5876 H         1 UNK         0.0000 
     70 H70        -1.1268   52.9145   26.9837 H         1 UNK         0.0000 
@<TRIPOS>BOND
     1    1    2 1    
     2    1   42 1    
     3    1   43 1    
     4    1   44 1    
     5    2    3 1    
     6    2    4 1    
     7    2   10 1    
     8    4    9 ar   
     9    4    5 ar   
    10    5    6 ar   
    11    5   45 1    
    12    6    7 ar   
    13    6   46 1    
    14    7    8 ar   
    15    7   47 1    
    16    8    9 ar   
    17    8   48 1    
    18    9   49 1    
    19   10   11 am   BACKBONE|DICT|INTERRES
    20   10   50 1    
    21   11   12 2    
    22   11   13 1    
    23   13   18 ar   
    24   13   14 ar   
    25   14   15 ar   
    26   14   51 1    
    27   15   16 ar   
    28   15   52 1    
    29   16   17 ar   
    30   16   53 1    
    31   17   18 ar   
    32   17   54 1    
    33   18   19 1    
    34   19   20 am   BACKBONE|DICT|INTERRES
    35   19   55 1    
    36   20   21 2    
    37   20   22 1    
    38   22   23 1    
    39   22   28 1    
    40   22   24 1    
    41   24   25 1    
    42   24   56 1    
    43   24   57 1    
    44   25   26 1    
    45   25   58 1    
    46   25   59 1    
    47   26   27 1    
    48   26   60 1    
    49   26   61 1    
    50   27   28 1    
    51   27   29 1    
    52   27   70 1    
    53   28   62 1    
    54   28   63 1    
    55   29   30 1    
    56   29   64 1    
    57   29   65 1    
    58   30   34 1    
    59   30   31 2    
    60   31   32 1    
    61   32   33 2    
    62   32   35 1    
    63   33   34 1    
    64   35   40 ar   
    65   35   36 ar   
    66   36   37 ar   
    67   36   66 1    
    68   37   38 ar   
    69   37   67 1    
    70   38   39 ar   
    71   38   41 1    
    72   39   40 ar   
    73   39   68 1    
    74   40   69 1    
@<TRIPOS>SUBSTRUCTURE
     1 UNK         1 GROUP             0       ****    0 ROOT    
