@<TRIPOS>MOLECULE
ZINC11044359_5075
63   66    1
SMALL
USER_CHARGES


@<TRIPOS>ATOM
      1 C1          3.1248   51.7915   19.8874 C.3       1 UNK         0.0000 
      2 C2          4.0044   53.0394   20.1048 C.3       1 UNK         0.0000 
      3 H3          3.4977   53.9372   19.7523 H         1 UNK         0.0000 
      4 C4          4.4248   53.1942   21.5888 C.2       1 UNK         0.0000 
      5 O5          5.5017   52.7334   21.9751 O.2       1 UNK         0.0000 
      6 N6          3.5099   53.7842   22.3874 N.am      1 UNK         0.0000 
      7 C7          3.5718   53.8938   23.7895 C.ar      1 UNK         0.0000 
      8 C8          2.3681   53.7638   24.4825 C.ar      1 UNK         0.0000 
      9 C9          2.3645   53.7508   25.8739 C.ar      1 UNK         0.0000 
     10 C10         3.5597   53.8985   26.5831 C.ar      1 UNK         0.0000 
     11 C11         4.7588   54.0973   25.8950 C.ar      1 UNK         0.0000 
     12 C12         4.7662   54.0965   24.5002 C.ar      1 UNK         0.0000 
     13 S13         3.5692   53.7934   28.3779 S.o2      1 UNK         0.0000 
     14 O14         4.7036   52.9464   28.7632 O.2       1 UNK         0.0000 
     15 O15         3.4753   55.1644   28.8897 O.2       1 UNK         0.0000 
     16 N16         2.0824   52.9376   28.8178 N.pl3     1 UNK         0.0000 
     17 C17         1.9152   51.5267   28.4249 C.3       1 UNK         0.0000 
     18 C18         0.4666   51.2987   27.9410 C.3       1 UNK         0.0000 
     19 C19        -0.5497   51.7709   29.0099 C.3       1 UNK         0.0000 
     20 C20        -0.2528   53.2017   29.5326 C.3       1 UNK         0.0000 
     21 C21         1.2240   53.3975   29.9288 C.3       1 UNK         0.0000 
     22 C22         5.8426   54.1962   18.6887 C.3       1 UNK         0.0000 
     23 H23         5.9766   54.8058   19.5848 H         1 UNK         0.0000 
     24 C24         4.9068   54.9084   17.7171 C.ar      1 UNK         0.0000 
     25 C25         4.3562   54.2214   16.6288 C.ar      1 UNK         0.0000 
     26 C26         3.5062   54.8821   15.7459 C.ar      1 UNK         0.0000 
     27 C27         3.2119   56.2288   15.9478 C.ar      1 UNK         0.0000 
     28 C28         3.7609   56.9215   17.0255 C.ar      1 UNK         0.0000 
     29 C29         4.6037   56.2599   17.9133 C.ar      1 UNK         0.0000 
     30 C30         7.1924   53.8802   18.0819 C.2       1 UNK         0.0000 
     31 C31         7.5754   52.8516   17.2175 C.2       1 UNK         0.0000 
     32 C32         8.9274   52.8686   16.8660 C.2       1 UNK         0.0000 
     33 C33         9.6076   53.9270   17.4410 C.2       1 UNK         0.0000 
     34 S34         8.5698   54.8968   18.4255 S.3       1 UNK         0.0000 
     35 H35         2.1762   51.8677   20.4204 H         1 UNK         0.0000 
     36 H36         2.8826   51.6598   18.8321 H         1 UNK         0.0000 
     37 H37         3.6181   50.8761   20.2203 H         1 UNK         0.0000 
     38 H38         2.6289   54.0398   21.9640 H         1 UNK         0.0000 
     39 H39         1.4373   53.6260   23.9508 H         1 UNK         0.0000 
     40 H40         1.4249   53.6367   26.3907 H         1 UNK         0.0000 
     41 H41         5.6859   54.2115   26.4386 H         1 UNK         0.0000 
     42 H42         5.7065   54.2221   23.9849 H         1 UNK         0.0000 
     43 H43         2.6703   51.2931   27.6816 H         1 UNK         0.0000 
     44 H44         2.1129   50.8976   29.2883 H         1 UNK         0.0000 
     45 H45         0.2933   51.8401   27.0116 H         1 UNK         0.0000 
     46 H46         0.2981   50.2527   27.6818 H         1 UNK         0.0000 
     47 H47        -0.5307   51.0770   29.8517 H         1 UNK         0.0000 
     48 H48        -1.5634   51.7117   28.6111 H         1 UNK         0.0000 
     49 H49        -0.8952   53.4210   30.3830 H         1 UNK         0.0000 
     50 H50        -0.4955   53.9340   28.7612 H         1 UNK         0.0000 
     51 H51         1.4431   52.7875   30.8067 H         1 UNK         0.0000 
     52 H52         1.4459   54.4368   30.1717 H         1 UNK         0.0000 
     53 H53         4.5832   53.1775   16.4647 H         1 UNK         0.0000 
     54 H54         3.0804   54.3536   14.9045 H         1 UNK         0.0000 
     55 H55         2.5560   56.7436   15.2617 H         1 UNK         0.0000 
     56 H56         3.5315   57.9686   17.1703 H         1 UNK         0.0000 
     57 H57         5.0282   56.8055   18.7440 H         1 UNK         0.0000 
     58 H58         6.8912   52.0944   16.8636 H         1 UNK         0.0000 
     59 H59         9.3893   52.1361   16.2190 H         1 UNK         0.0000 
     60 H60        10.6550   54.1764   17.3487 H         1 UNK         0.0000 
     61 N61         5.2704   52.8968   19.2954 N.4       1 UNK         0.0000 
     62 H62         5.1048   52.2131   18.5594 H         1 UNK         0.0000 
     63 H63         5.9459   52.4843   19.9227 H         1 UNK         0.0000 
@<TRIPOS>BOND
     1    1    2 1    
     2    1   35 1    
     3    1   36 1    
     4    1   37 1    
     5    2    3 1    
     6    2    4 1    
     7    2   61 1    
     8    4    5 2    
     9    4    6 am   BACKBONE|DICT|INTERRES
    10    6    7 1    
    11    6   38 1    
    12    7   12 ar   
    13    7    8 ar   
    14    8    9 ar   
    15    8   39 1    
    16    9   10 ar   
    17    9   40 1    
    18   10   11 ar   
    19   10   13 1    
    20   11   12 ar   
    21   11   41 1    
    22   12   42 1    
    23   13   14 2    
    24   13   15 2    
    25   13   16 1    
    26   16   21 1    
    27   16   17 1    
    28   17   18 1    
    29   17   43 1    
    30   17   44 1    
    31   18   19 1    
    32   18   45 1    
    33   18   46 1    
    34   19   20 1    
    35   19   47 1    
    36   19   48 1    
    37   20   21 1    
    38   20   49 1    
    39   20   50 1    
    40   21   51 1    
    41   21   52 1    
    42   22   23 1    
    43   22   24 1    
    44   22   30 1    
    45   22   61 1    
    46   24   29 ar   
    47   24   25 ar   
    48   25   26 ar   
    49   25   53 1    
    50   26   27 ar   
    51   26   54 1    
    52   27   28 ar   
    53   27   55 1    
    54   28   29 ar   
    55   28   56 1    
    56   29   57 1    
    57   30   34 1    
    58   30   31 2    
    59   31   32 1    
    60   31   58 1    
    61   32   33 2    
    62   32   59 1    
    63   33   34 1    
    64   33   60 1    
    65   61   62 1    
    66   61   63 1    
@<TRIPOS>SUBSTRUCTURE
     1 UNK         1 GROUP             0       ****    0 ROOT    
