@<TRIPOS>MOLECULE
ZINC04123007_814
56   59    1
SMALL
USER_CHARGES


@<TRIPOS>ATOM
      1 C1          0.5646   53.6119   31.5411 C.3       1 UNK         0.0000 
      2 C2          1.0559   53.4034   30.1222 C.ar      1 UNK         0.0000 
      3 C3          0.5213   52.3541   29.3605 C.ar      1 UNK         0.0000 
      4 C4          0.9358   52.1036   28.0462 C.ar      1 UNK         0.0000 
      5 C5          1.9189   52.9659   27.5475 C.ar      1 UNK         0.0000 
      6 C6          2.4802   54.0177   28.2847 C.ar      1 UNK         0.0000 
      7 C7          2.0288   54.2623   29.5885 C.ar      1 UNK         0.0000 
      8 N8          3.4370   54.6416   27.5344 N.2       1 UNK         0.0000 
      9 C9          3.4174   53.9822   26.3922 C.2       1 UNK         0.0000 
     10 O10         2.5050   52.9640   26.3224 O.3       1 UNK         0.0000 
     11 C11         4.2896   54.2095   25.2014 C.ar      1 UNK         0.0000 
     12 C12         3.8993   53.6970   23.9627 C.ar      1 UNK         0.0000 
     13 C13         4.7121   53.8555   22.8471 C.ar      1 UNK         0.0000 
     14 C14         5.9034   54.5901   22.9355 C.ar      1 UNK         0.0000 
     15 C15         6.3047   55.0842   24.1806 C.ar      1 UNK         0.0000 
     16 C16         5.5021   54.8971   25.3062 C.ar      1 UNK         0.0000 
     17 N17         6.7496   54.8968   21.8458 N.pl3     1 UNK         0.0000 
     18 C18         6.5835   54.9525   20.4823 C.2       1 UNK         0.0000 
     19 S19         5.1345   54.6819   19.6586 S.2       1 UNK         0.0000 
     20 N20         7.7598   55.2974   19.8607 N.am      1 UNK         0.0000 
     21 C21         8.1841   55.0578   18.5914 C.2       1 UNK         0.0000 
     22 O22         7.8041   54.1153   17.8919 O.2       1 UNK         0.0000 
     23 C23         9.2395   56.0004   18.0678 C.ar      1 UNK         0.0000 
     24 C24         9.0076   57.3927   18.0567 C.ar      1 UNK         0.0000 
     25 C25         9.9888   58.2413   17.5223 C.ar      1 UNK         0.0000 
     26 C26        11.1676   57.7265   16.9983 C.ar      1 UNK         0.0000 
     27 C27        11.3896   56.3554   17.0058 C.ar      1 UNK         0.0000 
     28 C28        10.4376   55.4744   17.5422 C.ar      1 UNK         0.0000 
     29 O29        10.6365   54.1044   17.5991 O.3       1 UNK         0.0000 
     30 C30        11.8548   53.5388   17.1299 C.3       1 UNK         0.0000 
     31 O31         7.8105   57.8691   18.5689 O.3       1 UNK         0.0000 
     32 C32         7.5010   59.2581   18.4825 C.3       1 UNK         0.0000 
     33 C33         0.3420   50.9578   27.2499 C.3       1 UNK         0.0000 
     34 H34         0.6859   54.6477   31.8604 H         1 UNK         0.0000 
     35 H35        -0.4949   53.3754   31.6227 H         1 UNK         0.0000 
     36 H36         1.0976   52.9573   32.2313 H         1 UNK         0.0000 
     37 H37        -0.2300   51.7137   29.8042 H         1 UNK         0.0000 
     38 H38         2.4311   55.0893   30.1516 H         1 UNK         0.0000 
     39 H39         2.9756   53.1458   23.8622 H         1 UNK         0.0000 
     40 H40         4.3839   53.3924   21.9340 H         1 UNK         0.0000 
     41 H41         7.2276   55.6381   24.2793 H         1 UNK         0.0000 
     42 H42         5.8199   55.2895   26.2616 H         1 UNK         0.0000 
     43 H43         7.6734   55.1560   22.1602 H         1 UNK         0.0000 
     44 H44         8.3081   55.9934   20.3413 H         1 UNK         0.0000 
     45 H45         9.8496   59.3093   17.4943 H         1 UNK         0.0000 
     46 H46        11.9125   58.3895   16.5841 H         1 UNK         0.0000 
     47 H47        12.3185   55.9920   16.5958 H         1 UNK         0.0000 
     48 H48        11.8281   52.4595   17.2833 H         1 UNK         0.0000 
     49 H49        11.9954   53.7193   16.0635 H         1 UNK         0.0000 
     50 H50        12.7125   53.9298   17.6797 H         1 UNK         0.0000 
     51 H51         6.5018   59.4189   18.8855 H         1 UNK         0.0000 
     52 H52         7.5036   59.6072   17.4483 H         1 UNK         0.0000 
     53 H53         8.1930   59.8619   19.0692 H         1 UNK         0.0000 
     54 H54        -0.5017   50.4972   27.7646 H         1 UNK         0.0000 
     55 H55        -0.0134   51.3163   26.2830 H         1 UNK         0.0000 
     56 H56         1.1012   50.1959   27.0598 H         1 UNK         0.0000 
@<TRIPOS>BOND
     1    1    2 1    
     2    1   34 1    
     3    1   35 1    
     4    1   36 1    
     5    2    7 ar   
     6    2    3 ar   
     7    3    4 ar   
     8    3   37 1    
     9    4    5 ar   
    10    4   33 1    
    11    5   10 1    
    12    5    6 ar   
    13    6    7 ar   
    14    6    8 1    
    15    7   38 1    
    16    8    9 2    
    17    9   10 1    
    18    9   11 1    
    19   11   16 ar   
    20   11   12 ar   
    21   12   13 ar   
    22   12   39 1    
    23   13   14 ar   
    24   13   40 1    
    25   14   15 ar   
    26   14   17 1    
    27   15   16 ar   
    28   15   41 1    
    29   16   42 1    
    30   17   18 1    
    31   17   43 1    
    32   18   19 2    
    33   18   20 am   BACKBONE|DICT|INTERRES
    34   20   21 am   BACKBONE|DICT|INTERRES
    35   20   44 1    
    36   21   22 2    
    37   21   23 1    
    38   23   28 ar   
    39   23   24 ar   
    40   24   25 ar   
    41   24   31 1    
    42   25   26 ar   
    43   25   45 1    
    44   26   27 ar   
    45   26   46 1    
    46   27   28 ar   
    47   27   47 1    
    48   28   29 1    
    49   29   30 1    
    50   30   48 1    
    51   30   49 1    
    52   30   50 1    
    53   31   32 1    
    54   32   51 1    
    55   32   52 1    
    56   32   53 1    
    57   33   54 1    
    58   33   55 1    
    59   33   56 1    
@<TRIPOS>SUBSTRUCTURE
     1 UNK         1 GROUP             0       ****    0 ROOT    
