ZINC14111086_2130
                    3D
 Schrodinger Suite 2024-2.
 59 62  0  0  1  0            999 V2000
    4.3786   52.7593   29.2703 C   0  0  0  0  0  0
    2.9993   52.6135   29.3592 C   0  0  0  0  0  0
    2.1800   52.9795   28.2857 C   0  0  0  0  0  0
    2.7736   53.5379   27.1381 C   0  0  0  0  0  0
    4.1627   53.6960   27.0446 C   0  0  0  0  0  0
    4.9647   53.2997   28.1266 C   0  0  0  0  0  0
    4.6549   54.1554   25.8093 N   0  0  0  0  0  0
    5.9115   54.5044   25.4457 C   0  0  0  0  0  0
    6.8511   54.6434   26.2284 O   0  0  0  0  0  0
    6.1627   54.7647   23.9484 C   0  0  0  0  0  0
    5.0357   54.3190   22.9731 C   0  0  0  0  0  0
    5.3884   54.1837   21.5487 N   0  0  0  0  0  0
    5.9880   55.1598   20.8142 C   0  0  0  0  0  0
    6.3048   56.2963   21.1676 O   0  0  0  0  0  0
    6.2946   54.5541   19.4495 C   0  0  2  0  0  0
    7.3369   54.2453   19.5336 H   0  0  0  0  0  0
    6.2610   55.5311   18.2469 C   0  0  0  0  0  0
    4.8561   55.8124   17.6957 C   0  0  0  0  0  0
    4.1308   54.4946   17.3851 C   0  0  0  0  0  0
    3.9988   53.6122   18.6403 C   0  0  0  0  0  0
    5.3519   53.3638   19.3725 C   0  0  2  0  0  0
    5.9005   52.5571   18.8770 H   0  0  0  0  0  0
    5.1030   53.0550   20.8452 C   0  0  0  0  0  0
    4.6729   51.9877   21.2818 O   0  0  0  0  0  0
    0.6950   52.7359   28.3786 C   0  0  0  0  0  0
    0.1075   52.8540   29.4552 O   0  0  0  0  0  0
    0.1066   52.3743   27.2192 N   0  0  0  0  0  0
   -1.2342   52.0239   27.0218 C   0  0  0  0  0  0
   -1.9842   51.2967   27.9555 C   0  0  0  0  0  0
   -3.3117   50.9679   27.6836 C   0  0  0  0  0  0
   -3.9007   51.3753   26.4869 C   0  0  0  0  0  0
   -3.1596   52.0980   25.5419 C   0  0  0  0  0  0
   -1.8201   52.4011   25.8124 C   0  0  0  0  0  0
   -3.8053   52.5585   24.2396 C   0  0  0  0  0  0
   -4.6713   51.6475   23.7875 F   0  0  0  0  0  0
   -4.4619   53.6944   24.4780 F   0  0  0  0  0  0
   -2.8960   52.7870   23.2845 F   0  0  0  0  0  0
    5.0045   52.4197   30.0791 H   0  0  0  0  0  0
    2.5722   52.1812   30.2533 H   0  0  0  0  0  0
    2.1550   53.8275   26.3008 H   0  0  0  0  0  0
    6.0408   53.3653   28.0877 H   0  0  0  0  0  0
    3.9632   54.1905   25.0794 H   0  0  0  0  0  0
    7.0689   54.2153   23.6813 H   0  0  0  0  0  0
    6.4598   55.7973   23.7653 H   0  0  0  0  0  0
    4.1229   54.8972   23.1031 H   0  0  0  0  0  0
    4.7309   53.3249   23.3087 H   0  0  0  0  0  0
    6.9151   55.1334   17.4652 H   0  0  0  0  0  0
    6.8061   56.4476   18.4832 H   0  0  0  0  0  0
    4.9218   56.4259   16.7964 H   0  0  0  0  0  0
    4.2807   56.3927   18.4210 H   0  0  0  0  0  0
    4.6739   53.9483   16.6079 H   0  0  0  0  0  0
    3.1410   54.7049   16.9746 H   0  0  0  0  0  0
    3.3148   54.1722   19.2780 H   0  0  0  0  0  0
    3.5420   52.6643   18.3463 H   0  0  0  0  0  0
    0.6879   52.3671   26.3944 H   0  0  0  0  0  0
   -1.5465   50.9587   28.8838 H   0  0  0  0  0  0
   -3.8734   50.3886   28.4015 H   0  0  0  0  0  0
   -4.9323   51.1223   26.2945 H   0  0  0  0  0  0
   -1.2385   52.9503   25.0845 H   0  0  0  0  0  0
  1  6  2  0  0  0
  1  2  1  0  0  0
  1 38  1  0  0  0
  2  3  2  0  0  0
  2 39  1  0  0  0
  3  4  1  0  0  0
  3 25  1  0  0  0
  4  5  2  0  0  0
  4 40  1  0  0  0
  5  6  1  0  0  0
  5  7  1  0  0  0
  6 41  1  0  0  0
  7  8  1  0  0  0
  7 42  1  0  0  0
  8  9  2  0  0  0
  8 10  1  0  0  0
 10 11  1  0  0  0
 10 43  1  0  0  0
 10 44  1  0  0  0
 11 12  1  0  0  0
 11 45  1  0  0  0
 11 46  1  0  0  0
 12 23  1  0  0  0
 12 13  1  0  0  0
 13 14  2  0  0  0
 13 15  1  0  0  0
 15 16  1  0  0  0
 15 21  1  0  0  0
 15 17  1  0  0  0
 17 18  1  0  0  0
 17 47  1  0  0  0
 17 48  1  0  0  0
 18 19  1  0  0  0
 18 49  1  0  0  0
 18 50  1  0  0  0
 19 20  1  0  0  0
 19 51  1  0  0  0
 19 52  1  0  0  0
 20 21  1  0  0  0
 20 53  1  0  0  0
 20 54  1  0  0  0
 21 22  1  0  0  0
 21 23  1  0  0  0
 23 24  2  0  0  0
 25 26  2  0  0  0
 25 27  1  0  0  0
 27 28  1  0  0  0
 27 55  1  0  0  0
 28 33  2  0  0  0
 28 29  1  0  0  0
 29 30  2  0  0  0
 29 56  1  0  0  0
 30 31  1  0  0  0
 30 57  1  0  0  0
 31 32  2  0  0  0
 31 58  1  0  0  0
 32 33  1  0  0  0
 32 34  1  0  0  0
 33 59  1  0  0  0
 34 35  1  0  0  0
 34 36  1  0  0  0
 34 37  1  0  0  0
M  END
> <i_i_glide_confnum>
167

> <i_i_glide_lignum>
2131

> <i_i_glide_posenum>
230

> <i_i_glide_rotatable_bonds>
9

> <i_m_Source_File_Index>
1298

> <b_m_subgroup_collapsed>
0

> <r_i_docking_score>
-6.07913

> <r_i_glide_ecoul>
-5.1648

> <r_i_glide_eff_state_penalty>
0

> <r_i_glide_einternal>
12.5243

> <r_i_glide_emodel>
-64.2555

> <r_i_glide_energy>
-51.4991

> <r_i_glide_erotb>
0.598865

> <r_i_glide_esite>
-0.00292452

> <r_i_glide_evdw>
-46.3343

> <r_i_glide_gscore>
-6.07913

> <r_i_glide_hbond>
-0.262614

> <r_i_glide_ligand_efficiency>
-0.173689

> <r_i_glide_ligand_efficiency_ln>
-1.3345

> <r_i_glide_ligand_efficiency_sa>
-0.56815

> <r_i_glide_lipo>
-1.95277

> <r_i_glide_metal>
0

> <r_i_glide_rewards>
-1.36826

> <s_i_glide_gridfile>
wee1_glide-grid

> <s_m_Source_File>
wee1_decoys_glide_SP.sdf

> <s_m_Source_Path>
/Users/zhangxujun/Desktop

> <s_m_entry_id>
1573

> <s_m_entry_name>
wee1_decoys_glide_SP.1298

> <s_m_subgroup_title>
wee1_decoys_glide_SP

> <s_m_subgroupid>
wee1_decoys_glide_SP


$$$$
