ZINC45898325_291
                    3D
 Schrodinger Suite 2024-2.
 59 62  0  0  1  0            999 V2000
    1.1699   50.1457   20.6852 C   0  0  0  0  0  0
    1.4646   51.4610   19.9445 C   0  0  2  0  0  0
    1.0153   52.2830   20.5062 H   0  0  0  0  0  0
    0.8733   51.4648   18.5219 C   0  0  0  0  0  0
    1.0954   52.8309   17.8381 C   0  0  1  0  0  0
    0.6615   53.6073   18.4746 H   0  0  0  0  0  0
    2.6151   53.0907   17.7315 C   0  0  0  0  0  0
    3.2313   53.0869   19.1554 N   0  3  1  0  0  0
    2.9861   51.7143   19.8520 C   0  0  0  0  0  0
    4.7471   53.4259   19.0770 C   0  0  0  0  0  0
    5.2927   54.0592   20.3598 C   0  0  0  0  0  0
    6.3659   54.9464   20.4561 C   0  0  0  0  0  0
    6.7048   55.2967   22.1274 S   0  0  0  0  0  0
    5.3308   54.3132   22.5434 C   0  0  0  0  0  0
    4.7315   53.7630   21.5206 N   0  0  0  0  0  0
    4.8387   54.0969   23.8204 N   0  0  0  0  0  0
    5.3161   54.5326   25.0091 C   0  0  0  0  0  0
    6.3300   55.2135   25.1733 O   0  0  0  0  0  0
    4.4927   54.1348   26.1362 C   0  0  0  0  0  0
    4.8262   54.0994   27.4871 C   0  0  0  0  0  0
    3.7100   53.5650   28.2147 C   0  0  0  0  0  0
    3.4623   53.2675   29.5626 C   0  0  0  0  0  0
    2.2244   52.7457   29.9399 C   0  0  0  0  0  0
    1.2499   52.4793   28.9695 C   0  0  0  0  0  0
    1.4536   52.7492   27.6111 C   0  0  0  0  0  0
    2.6863   53.3115   27.2635 C   0  0  0  0  0  0
    3.1847   53.6965   26.0398 N   0  0  0  0  0  0
    2.6816   53.6484   25.1676 H   0  0  0  0  0  0
    0.5584   52.4966   26.5910 O   0  0  0  0  0  0
   -0.6482   51.8031   26.8982 C   0  0  0  0  0  0
    2.0386   52.4953   31.2820 O   0  0  0  0  0  0
    0.7048   52.5178   31.7953 C   0  0  0  0  0  0
    0.4190   52.8999   16.4589 C   0  0  0  0  0  0
    1.6196   49.2910   20.1789 H   0  0  0  0  0  0
    1.5572   50.1652   21.7043 H   0  0  0  0  0  0
    0.0968   49.9606   20.7534 H   0  0  0  0  0  0
   -0.1949   51.2404   18.5645 H   0  0  0  0  0  0
    1.2793   50.6494   17.9206 H   0  0  0  0  0  0
    2.7959   54.0814   17.3087 H   0  0  0  0  0  0
    3.1424   52.3393   17.1371 H   0  0  0  0  0  0
    3.5045   50.9416   19.2833 H   0  0  0  0  0  0
    3.4178   51.7506   20.8483 H   0  0  0  0  0  0
    4.8646   54.1148   18.2395 H   0  0  0  0  0  0
    5.2509   52.4974   18.7987 H   0  0  0  0  0  0
    6.9893   55.3420   19.6664 H   0  0  0  0  0  0
    4.0327   53.4965   23.8596 H   0  0  0  0  0  0
    5.7816   54.4054   27.8911 H   0  0  0  0  0  0
    4.2188   53.4518   30.3075 H   0  0  0  0  0  0
    0.3125   52.0416   29.2760 H   0  0  0  0  0  0
   -1.2134   51.6441   25.9795 H   0  0  0  0  0  0
   -0.4509   50.8224   27.3379 H   0  0  0  0  0  0
   -1.2783   52.3800   27.5773 H   0  0  0  0  0  0
    0.7124   52.4279   32.8813 H   0  0  0  0  0  0
    0.1025   51.6967   31.4150 H   0  0  0  0  0  0
    0.2018   53.4550   31.5547 H   0  0  0  0  0  0
    0.8238   52.1522   15.7758 H   0  0  0  0  0  0
   -0.6558   52.7313   16.5360 H   0  0  0  0  0  0
    0.5615   53.8791   15.9993 H   0  0  0  0  0  0
    2.7721   53.8214   19.6831 H   0  0  0  0  0  0
  1  2  1  0  0  0
  1 34  1  0  0  0
  1 35  1  0  0  0
  1 36  1  0  0  0
  2  3  1  0  0  0
  2  9  1  0  0  0
  2  4  1  0  0  0
  4  5  1  0  0  0
  4 37  1  0  0  0
  4 38  1  0  0  0
  5  6  1  0  0  0
  5  7  1  0  0  0
  5 33  1  0  0  0
  7  8  1  0  0  0
  7 39  1  0  0  0
  7 40  1  0  0  0
  8  9  1  0  0  0
  8 10  1  0  0  0
  8 59  1  0  0  0
  9 41  1  0  0  0
  9 42  1  0  0  0
 10 11  1  0  0  0
 10 43  1  0  0  0
 10 44  1  0  0  0
 11 15  1  0  0  0
 11 12  2  0  0  0
 12 13  1  0  0  0
 12 45  1  0  0  0
 13 14  1  0  0  0
 14 15  2  0  0  0
 14 16  1  0  0  0
 16 17  1  0  0  0
 16 46  1  0  0  0
 17 18  2  0  0  0
 17 19  1  0  0  0
 19 27  1  0  0  0
 19 20  2  0  0  0
 20 21  1  0  0  0
 20 47  1  0  0  0
 21 26  2  0  0  0
 21 22  1  0  0  0
 22 23  2  0  0  0
 22 48  1  0  0  0
 23 24  1  0  0  0
 23 31  1  0  0  0
 24 25  2  0  0  0
 24 49  1  0  0  0
 25 26  1  0  0  0
 25 29  1  0  0  0
 26 27  1  0  0  0
 27 28  1  0  0  0
 29 30  1  0  0  0
 30 50  1  0  0  0
 30 51  1  0  0  0
 30 52  1  0  0  0
 31 32  1  0  0  0
 32 53  1  0  0  0
 32 54  1  0  0  0
 32 55  1  0  0  0
 33 56  1  0  0  0
 33 57  1  0  0  0
 33 58  1  0  0  0
M  CHG  1   8   1
M  END
> <i_i_glide_confnum>
6

> <i_i_glide_lignum>
292

> <i_i_glide_posenum>
104

> <i_i_glide_rotatable_bonds>
7

> <i_m_Source_File_Index>
5516

> <b_m_subgroup_collapsed>
0

> <r_i_docking_score>
-5.46682

> <r_i_glide_ecoul>
-6.24802

> <r_i_glide_eff_state_penalty>
0

> <r_i_glide_einternal>
10.0841

> <r_i_glide_emodel>
-63.4808

> <r_i_glide_energy>
-49.788

> <r_i_glide_erotb>
0.538522

> <r_i_glide_esite>
-0.0200665

> <r_i_glide_evdw>
-43.5399

> <r_i_glide_gscore>
-5.46682

> <r_i_glide_hbond>
-0.0539168

> <r_i_glide_ligand_efficiency>
-0.182227

> <r_i_glide_ligand_efficiency_ln>
-1.24212

> <r_i_glide_ligand_efficiency_sa>
-0.566222

> <r_i_glide_lipo>
-2.04547

> <r_i_glide_metal>
0

> <r_i_glide_rewards>
-0.77169

> <s_i_glide_gridfile>
wee1_glide-grid

> <s_m_Source_File>
wee1_decoys_glide_SP.sdf

> <s_m_Source_Path>
/Users/zhangxujun/Desktop

> <s_m_entry_id>
5791

> <s_m_entry_name>
wee1_decoys_glide_SP.5516

> <s_m_subgroup_title>
wee1_decoys_glide_SP

> <s_m_subgroupid>
wee1_decoys_glide_SP


$$$$
