@<TRIPOS>MOLECULE
ZINC09739238_2292
61   64    1
SMALL
USER_CHARGES


@<TRIPOS>ATOM
      1 C1         -1.6008   48.0774   25.5337 C.3       1 UNK         0.0000 
      2 C2         -0.8538   49.3196   25.1009 C.ar      1 UNK         0.0000 
      3 C3          0.3479   49.1673   24.4170 C.ar      1 UNK         0.0000 
      4 C4          1.1043   50.2811   24.0771 C.ar      1 UNK         0.0000 
      5 C5          0.6387   51.5583   24.3992 C.ar      1 UNK         0.0000 
      6 C6         -0.5862   51.7151   25.0561 C.ar      1 UNK         0.0000 
      7 C7         -1.3303   50.5929   25.4146 C.ar      1 UNK         0.0000 
      8 S8          1.6356   52.9947   23.9968 S.o2      1 UNK         0.0000 
      9 O9          0.7044   54.0967   23.7422 O.2       1 UNK         0.0000 
     10 O10         2.5832   52.5585   22.9634 O.2       1 UNK         0.0000 
     11 N11         2.5595   53.4381   25.4904 N.pl3     1 UNK         0.0000 
     12 C12         1.8479   53.5032   26.7753 C.3       1 UNK         0.0000 
     13 C13         2.6735   52.8516   27.8944 C.3       1 UNK         0.0000 
     14 C14         4.0395   53.5270   28.0468 C.3       1 UNK         0.0000 
     15 C15         4.6904   53.8084   26.6986 C.ar      1 UNK         0.0000 
     16 C16         3.9347   53.8236   25.5008 C.ar      1 UNK         0.0000 
     17 C17         4.5623   54.2348   24.3165 C.ar      1 UNK         0.0000 
     18 C18         5.9396   54.4972   24.2651 C.ar      1 UNK         0.0000 
     19 C19         6.6826   54.4204   25.4368 C.ar      1 UNK         0.0000 
     20 C20         6.0606   54.0969   26.6398 C.ar      1 UNK         0.0000 
     21 N21         6.6406   54.8651   23.1006 N.am      1 UNK         0.0000 
     22 C22         6.2078   54.8971   21.8172 C.2       1 UNK         0.0000 
     23 O23         5.1125   54.4965   21.4141 O.2       1 UNK         0.0000 
     24 C24         7.2024   55.5185   20.9076 C.2       1 UNK         0.0000 
     25 O25         8.3770   55.6968   21.2401 O.2       1 UNK         0.0000 
     26 N26         6.6872   55.8870   19.7157 N.am      1 UNK         0.0000 
     27 C27         7.3858   56.5774   18.7138 C.ar      1 UNK         0.0000 
     28 C28         6.8612   57.8119   18.3202 C.ar      1 UNK         0.0000 
     29 C29         7.5140   58.5798   17.3570 C.ar      1 UNK         0.0000 
     30 C30         8.6874   58.1122   16.7622 C.ar      1 UNK         0.0000 
     31 C31         9.2005   56.8681   17.1355 C.ar      1 UNK         0.0000 
     32 C32         8.5568   56.0835   18.0978 C.ar      1 UNK         0.0000 
     33 C33         9.1199   54.6977   18.3912 C.3       1 UNK         0.0000 
     34 C34         9.4030   58.9536   15.7228 C.3       1 UNK         0.0000 
     35 H35        -1.9551   47.5154   24.6680 H         1 UNK         0.0000 
     36 H36        -0.9000   47.4443   26.0815 H         1 UNK         0.0000 
     37 H37        -2.4482   48.3044   26.1843 H         1 UNK         0.0000 
     38 H38         0.7079   48.1773   24.1783 H         1 UNK         0.0000 
     39 H39         2.0517   50.1454   23.5742 H         1 UNK         0.0000 
     40 H40        -0.9564   52.7001   25.3010 H         1 UNK         0.0000 
     41 H41        -2.2629   50.7112   25.9506 H         1 UNK         0.0000 
     42 H42         1.7086   54.5641   26.9797 H         1 UNK         0.0000 
     43 H43         0.8504   53.0764   26.7198 H         1 UNK         0.0000 
     44 H44         2.1244   52.8942   28.8358 H         1 UNK         0.0000 
     45 H45         2.7994   51.7902   27.6816 H         1 UNK         0.0000 
     46 H46         4.6946   52.9216   28.6760 H         1 UNK         0.0000 
     47 H47         3.9092   54.4810   28.5596 H         1 UNK         0.0000 
     48 H48         3.9702   54.3593   23.4301 H         1 UNK         0.0000 
     49 H49         7.7397   54.6247   25.4166 H         1 UNK         0.0000 
     50 H50         6.6522   54.0744   27.5455 H         1 UNK         0.0000 
     51 H51         7.5997   55.1652   23.2423 H         1 UNK         0.0000 
     52 H52         5.6966   55.7425   19.5700 H         1 UNK         0.0000 
     53 H53         5.9579   58.1999   18.7690 H         1 UNK         0.0000 
     54 H54         7.1038   59.5399   17.0750 H         1 UNK         0.0000 
     55 H55        10.1008   56.5028   16.6642 H         1 UNK         0.0000 
     56 H56         9.7807   54.7224   19.2565 H         1 UNK         0.0000 
     57 H57         8.3169   53.9856   18.5803 H         1 UNK         0.0000 
     58 H58         9.6748   54.3058   17.5392 H         1 UNK         0.0000 
     59 H59         9.2082   60.0170   15.8735 H         1 UNK         0.0000 
     60 H60         9.0798   58.6745   14.7193 H         1 UNK         0.0000 
     61 H61        10.4835   58.8205   15.7912 H         1 UNK         0.0000 
@<TRIPOS>BOND
     1    1    2 1    
     2    1   35 1    
     3    1   36 1    
     4    1   37 1    
     5    2    7 ar   
     6    2    3 ar   
     7    3    4 ar   
     8    3   38 1    
     9    4    5 ar   
    10    4   39 1    
    11    5    6 ar   
    12    5    8 1    
    13    6    7 ar   
    14    6   40 1    
    15    7   41 1    
    16    8    9 2    
    17    8   10 2    
    18    8   11 1    
    19   11   16 1    
    20   11   12 1    
    21   12   13 1    
    22   12   42 1    
    23   12   43 1    
    24   13   14 1    
    25   13   44 1    
    26   13   45 1    
    27   14   15 1    
    28   14   46 1    
    29   14   47 1    
    30   15   20 ar   
    31   15   16 ar   
    32   16   17 ar   
    33   17   18 ar   
    34   17   48 1    
    35   18   19 ar   
    36   18   21 1    
    37   19   20 ar   
    38   19   49 1    
    39   20   50 1    
    40   21   22 am   BACKBONE|DICT|INTERRES
    41   21   51 1    
    42   22   23 2    
    43   22   24 1    
    44   24   25 2    
    45   24   26 am   BACKBONE|DICT|INTERRES
    46   26   27 1    
    47   26   52 1    
    48   27   32 ar   
    49   27   28 ar   
    50   28   29 ar   
    51   28   53 1    
    52   29   30 ar   
    53   29   54 1    
    54   30   31 ar   
    55   30   34 1    
    56   31   32 ar   
    57   31   55 1    
    58   32   33 1    
    59   33   56 1    
    60   33   57 1    
    61   33   58 1    
    62   34   59 1    
    63   34   60 1    
    64   34   61 1    
@<TRIPOS>SUBSTRUCTURE
     1 UNK         1 GROUP             0       ****    0 ROOT    
