@<TRIPOS>MOLECULE
ZINC39678269_2159
73   76    1
SMALL
USER_CHARGES


@<TRIPOS>ATOM
      1 C1         -6.9125   52.6195   24.8220 C.3       1 UNK         0.0000 
      2 C2         -5.8162   51.7417   24.1822 C.3       1 UNK         0.0000 
      3 C3         -5.0476   50.7725   25.1239 C.3       1 UNK         0.0000 
      4 H4         -4.4898   50.1077   24.4675 H         1 UNK         0.0000 
      5 C5         -6.0001   49.8606   25.9327 C.3       1 UNK         0.0000 
      6 C6         -4.0701   51.5170   26.0742 C.2       1 UNK         0.0000 
      7 O7         -4.5358   52.3547   26.8531 O.2       1 UNK         0.0000 
      8 N8         -2.7379   51.2684   26.0226 N.am      1 UNK         0.0000 
      9 C9         -1.8121   51.9153   26.9471 C.3       1 UNK         0.0000 
     10 C10        -0.5941   50.9766   26.9316 C.3       1 UNK         0.0000 
     11 H11        -0.7594   50.2025   27.6768 H         1 UNK         0.0000 
     12 C12        -0.5655   50.3645   25.5084 C.3       1 UNK         0.0000 
     13 C13        -2.0833   50.2212   25.2297 C.3       1 UNK         0.0000 
     14 C14         0.2089   49.0291   25.4798 C.3       1 UNK         0.0000 
     15 C15         0.1034   48.3429   24.1087 C.3       1 UNK         0.0000 
     16 N16         0.7052   49.2937   23.0465 N.4       1 UNK         0.0000 
     17 C17         0.0570   50.6916   23.0179 C.3       1 UNK         0.0000 
     18 C18         0.1225   51.2802   24.4404 C.3       1 UNK         0.0000 
     19 C19         0.6345   51.8042   27.3546 C.2       1 UNK         0.0000 
     20 O20         0.8552   52.8966   26.8362 O.2       1 UNK         0.0000 
     21 N21         1.3655   51.3164   28.3720 N.am      1 UNK         0.0000 
     22 C22         2.4759   52.0119   29.0308 C.3       1 UNK         0.0000 
     23 C23         2.1272   53.4286   29.4863 C.ar      1 UNK         0.0000 
     24 C24         1.1167   53.5590   30.4536 C.ar      1 UNK         0.0000 
     25 C25         0.6934   54.8152   30.8739 C.ar      1 UNK         0.0000 
     26 C26         1.2663   55.9567   30.3254 C.ar      1 UNK         0.0000 
     27 C27         2.2790   55.8362   29.3728 C.ar      1 UNK         0.0000 
     28 C28         2.7464   54.5848   28.9557 C.ar      1 UNK         0.0000 
     29 N29         3.8251   54.5707   28.0751 N.pl3     1 UNK         0.0000 
     30 C30         5.1485   54.2155   28.6116 C.3       1 UNK         0.0000 
     31 C31         6.3178   54.6182   27.6851 C.3       1 UNK         0.0000 
     32 C32         6.1405   54.0895   26.2636 C.3       1 UNK         0.0000 
     33 C33         4.7692   54.5189   25.7355 C.3       1 UNK         0.0000 
     34 C34         3.6364   54.0979   26.6898 C.3       1 UNK         0.0000 
     35 H35        -7.3543   53.2840   24.0807 H         1 UNK         0.0000 
     36 H36        -6.5253   53.2512   25.6212 H         1 UNK         0.0000 
     37 H37        -7.7195   52.0134   25.2384 H         1 UNK         0.0000 
     38 H38        -6.2757   51.1592   23.3816 H         1 UNK         0.0000 
     39 H39        -5.0964   52.3917   23.6810 H         1 UNK         0.0000 
     40 H40        -5.4458   49.1186   26.5100 H         1 UNK         0.0000 
     41 H41        -6.6022   50.4321   26.6433 H         1 UNK         0.0000 
     42 H42        -6.6816   49.3226   25.2746 H         1 UNK         0.0000 
     43 H43        -1.5701   52.8830   26.5025 H         1 UNK         0.0000 
     44 H44        -2.1996   52.0009   27.9636 H         1 UNK         0.0000 
     45 H45        -2.4100   49.2735   25.6683 H         1 UNK         0.0000 
     46 H46        -2.3493   50.1772   24.1755 H         1 UNK         0.0000 
     47 H47         1.2437   49.1487   25.7944 H         1 UNK         0.0000 
     48 H48        -0.2220   48.3525   26.2210 H         1 UNK         0.0000 
     49 H49         0.6973   47.4316   24.0841 H         1 UNK         0.0000 
     50 H50        -0.9203   48.1199   23.8075 H         1 UNK         0.0000 
     51 H51         1.6919   49.3925   23.2428 H         1 UNK         0.0000 
     52 H52         0.6313   51.2830   22.3012 H         1 UNK         0.0000 
     53 H53        -0.9533   50.5672   22.6306 H         1 UNK         0.0000 
     54 H54        -0.3650   52.2572   24.4299 H         1 UNK         0.0000 
     55 H55         1.1637   51.4842   24.6940 H         1 UNK         0.0000 
     56 H56         1.1232   50.4025   28.7296 H         1 UNK         0.0000 
     57 H57         2.6994   51.4412   29.9295 H         1 UNK         0.0000 
     58 H58         3.3874   51.9516   28.4400 H         1 UNK         0.0000 
     59 H59         0.6385   52.6791   30.8662 H         1 UNK         0.0000 
     60 H60        -0.0911   54.8953   31.6114 H         1 UNK         0.0000 
     61 H61         0.9360   56.9348   30.6413 H         1 UNK         0.0000 
     62 H62         2.7046   56.7429   28.9714 H         1 UNK         0.0000 
     63 H63         5.2795   54.7462   29.5574 H         1 UNK         0.0000 
     64 H64         5.1895   53.1485   28.8327 H         1 UNK         0.0000 
     65 H65         6.4328   55.7016   27.6804 H         1 UNK         0.0000 
     66 H66         7.2497   54.2305   28.1020 H         1 UNK         0.0000 
     67 H67         6.2102   53.0028   26.2744 H         1 UNK         0.0000 
     68 H68         6.9368   54.4513   25.6108 H         1 UNK         0.0000 
     69 H69         4.6004   54.0609   24.7610 H         1 UNK         0.0000 
     70 H70         4.7277   55.5947   25.5620 H         1 UNK         0.0000 
     71 H71         3.5254   53.0159   26.6633 H         1 UNK         0.0000 
     72 H72         2.7059   54.5151   26.3071 H         1 UNK         0.0000 
     73 H73         0.6366   48.8769   22.1297 H         1 UNK         0.0000 
@<TRIPOS>BOND
     1    1    2 1    
     2    1   35 1    
     3    1   36 1    
     4    1   37 1    
     5    2    3 1    
     6    2   38 1    
     7    2   39 1    
     8    3    4 1    
     9    3    5 1    
    10    3    6 1    
    11    5   40 1    
    12    5   41 1    
    13    5   42 1    
    14    6    7 2    
    15    6    8 am   BACKBONE|DICT|INTERRES
    16    8   13 1    
    17    8    9 1    
    18    9   10 1    
    19    9   43 1    
    20    9   44 1    
    21   10   11 1    
    22   10   12 1    
    23   10   19 1    
    24   12   18 1    
    25   12   13 1    
    26   12   14 1    
    27   13   45 1    
    28   13   46 1    
    29   14   15 1    
    30   14   47 1    
    31   14   48 1    
    32   15   16 1    
    33   15   49 1    
    34   15   50 1    
    35   16   17 1    
    36   16   51 1    
    37   16   73 1    
    38   17   18 1    
    39   17   52 1    
    40   17   53 1    
    41   18   54 1    
    42   18   55 1    
    43   19   20 2    
    44   19   21 am   BACKBONE|DICT|INTERRES
    45   21   22 1    
    46   21   56 1    
    47   22   23 1    
    48   22   57 1    
    49   22   58 1    
    50   23   28 ar   
    51   23   24 ar   
    52   24   25 ar   
    53   24   59 1    
    54   25   26 ar   
    55   25   60 1    
    56   26   27 ar   
    57   26   61 1    
    58   27   28 ar   
    59   27   62 1    
    60   28   29 1    
    61   29   34 1    
    62   29   30 1    
    63   30   31 1    
    64   30   63 1    
    65   30   64 1    
    66   31   32 1    
    67   31   65 1    
    68   31   66 1    
    69   32   33 1    
    70   32   67 1    
    71   32   68 1    
    72   33   34 1    
    73   33   69 1    
    74   33   70 1    
    75   34   71 1    
    76   34   72 1    
@<TRIPOS>SUBSTRUCTURE
     1 UNK         1 GROUP             0       ****    0 ROOT    
