@<TRIPOS>MOLECULE
ZINC01897584_5772
73   78    1
SMALL
USER_CHARGES


@<TRIPOS>ATOM
      1 C1         -3.0461   49.2731   23.9965 C.3       1 UNK         0.0000 
      2 C2         -3.5892   50.4115   23.0938 C.3       1 UNK         0.0000 
      3 C3         -2.6258   50.6448   21.8964 C.3       1 UNK         0.0000 
      4 C4         -1.3277   51.3174   22.3443 C.2       1 UNK         0.0000 
      5 C5         -1.1747   52.0893   23.4516 C.2       1 UNK         0.0000 
      6 C6          0.2163   52.6805   23.8401 C.3       1 UNK         0.0000 
      7 H7          0.0922   53.7665   23.8611 H         1 UNK         0.0000 
      8 C8          1.2486   52.3765   22.7279 C.ar      1 UNK         0.0000 
      9 C9          2.5759   52.8810   22.6984 C.ar      1 UNK         0.0000 
     10 N10         3.2950   53.6960   23.5087 N.2       1 UNK         0.0000 
     11 C11         4.4950   53.6969   22.9509 C.ar      1 UNK         0.0000 
     12 N12         4.6436   53.0195   21.8275 N.2       1 UNK         0.0000 
     13 N13         3.4208   52.4995   21.6496 N.pl3     1 UNK         0.0000 
     14 C14         3.0046   51.6937   20.6303 C.ar      1 UNK         0.0000 
     15 N15         1.7377   51.2225   20.6063 N.2       1 UNK         0.0000 
     16 C16         0.9060   51.5654   21.6241 C.ar      1 UNK         0.0000 
     17 O17        -0.3477   51.0374   21.4564 O.3       1 UNK         0.0000 
     18 C18         5.6561   54.3973   23.6487 C.3       1 UNK         0.0000 
     19 O19         6.8068   54.5806   22.8225 O.3       1 UNK         0.0000 
     20 N20         6.5352   55.4587   21.7499 N.2       1 UNK         0.0000 
     21 C21         7.5391   55.4648   20.9781 C.2       1 UNK         0.0000 
     22 C22         7.6229   56.1884   19.7093 C.ar      1 UNK         0.0000 
     23 C23         8.7260   55.9566   18.8843 C.ar      1 UNK         0.0000 
     24 C24         8.8638   56.6330   17.6788 C.ar      1 UNK         0.0000 
     25 C25         7.9170   57.5733   17.2850 C.ar      1 UNK         0.0000 
     26 C26         6.8061   57.8173   18.1072 C.ar      1 UNK         0.0000 
     27 C27         6.6547   57.1129   19.3007 C.ar      1 UNK         0.0000 
     28 O28         8.1560   58.2054   16.0830 O.3       1 UNK         0.0000 
     29 C29         7.3641   59.3309   15.7292 C.3       1 UNK         0.0000 
     30 C30         0.7114   52.3085   25.2596 C.ar      1 UNK         0.0000 
     31 C31         0.2603   51.1335   25.8715 C.ar      1 UNK         0.0000 
     32 C32         0.4954   50.8983   27.2177 C.ar      1 UNK         0.0000 
     33 C33         1.2861   51.7656   27.9623 C.ar      1 UNK         0.0000 
     34 C34         1.8283   52.9066   27.3634 C.ar      1 UNK         0.0000 
     35 C35         1.5044   53.1870   26.0206 C.ar      1 UNK         0.0000 
     36 O36         2.6442   53.6805   28.1651 O.3       1 UNK         0.0000 
     37 C37         3.1351   54.9202   27.6881 C.3       1 UNK         0.0000 
     38 O38         1.5340   51.4715   29.2808 O.3       1 UNK         0.0000 
     39 C39         0.6409   52.0975   30.1988 C.3       1 UNK         0.0000 
     40 C40        -2.3381   52.3058   24.3493 C.2       1 UNK         0.0000 
     41 O41        -2.2511   52.8966   25.4217 O.2       1 UNK         0.0000 
     42 C42        -3.6928   51.7332   23.9049 C.3       1 UNK         0.0000 
     43 C43        -4.9941   50.0934   22.5460 C.3       1 UNK         0.0000 
     44 H44        -3.0709   48.3166   23.4718 H         1 UNK         0.0000 
     45 H45        -2.0171   49.4330   24.3099 H         1 UNK         0.0000 
     46 H46        -3.6494   49.1599   24.8998 H         1 UNK         0.0000 
     47 H47        -3.0564   51.2939   21.1329 H         1 UNK         0.0000 
     48 H48        -2.4172   49.6839   21.4227 H         1 UNK         0.0000 
     49 H49         3.7082   51.4407   19.8477 H         1 UNK         0.0000 
     50 H50         5.9817   53.7869   24.4916 H         1 UNK         0.0000 
     51 H51         5.3603   55.3450   24.0905 H         1 UNK         0.0000 
     52 H52         8.4359   54.8974   21.2186 H         1 UNK         0.0000 
     53 H53         9.4987   55.2517   19.1671 H         1 UNK         0.0000 
     54 H54         9.7195   56.4377   17.0507 H         1 UNK         0.0000 
     55 H55         6.0517   58.5403   17.8316 H         1 UNK         0.0000 
     56 H56         5.7801   57.2958   19.9080 H         1 UNK         0.0000 
     57 H57         7.6981   59.7180   14.7679 H         1 UNK         0.0000 
     58 H58         7.4986   60.1172   16.4691 H         1 UNK         0.0000 
     59 H59         6.3074   59.0821   15.6399 H         1 UNK         0.0000 
     60 H60        -0.3474   50.4257   25.3326 H         1 UNK         0.0000 
     61 H61         0.0318   50.0491   27.6816 H         1 UNK         0.0000 
     62 H62         1.8439   54.0968   25.5633 H         1 UNK         0.0000 
     63 H63         3.8947   55.2890   28.3771 H         1 UNK         0.0000 
     64 H64         3.5990   54.8429   26.7023 H         1 UNK         0.0000 
     65 H65         2.3321   55.6576   27.6812 H         1 UNK         0.0000 
     66 H66         0.8620   51.7391   31.2051 H         1 UNK         0.0000 
     67 H67         0.7514   53.1854   30.1918 H         1 UNK         0.0000 
     68 H68        -0.4027   51.8534   29.9848 H         1 UNK         0.0000 
     69 H69        -4.3454   51.6389   24.7726 H         1 UNK         0.0000 
     70 H70        -4.1333   52.5082   23.2817 H         1 UNK         0.0000 
     71 H71        -4.9878   49.1848   21.9442 H         1 UNK         0.0000 
     72 H72        -5.7064   49.9320   23.3580 H         1 UNK         0.0000 
     73 H73        -5.3942   50.8940   21.9250 H         1 UNK         0.0000 
@<TRIPOS>BOND
     1    1    2 1    
     2    1   44 1    
     3    1   45 1    
     4    1   46 1    
     5    2   42 1    
     6    2    3 1    
     7    2   43 1    
     8    3    4 1    
     9    3   47 1    
    10    3   48 1    
    11    4   17 1    
    12    4    5 2    
    13    5    6 1    
    14    5   40 1    
    15    6    7 1    
    16    6    8 1    
    17    6   30 1    
    18    8   16 ar   
    19    8    9 ar   
    20    9   13 ar   
    21    9   10 ar   
    22   10   11 ar   
    23   11   12 ar   
    24   11   18 1    
    25   12   13 ar   
    26   13   14 ar   
    27   14   15 ar   
    28   14   49 1    
    29   15   16 ar   
    30   16   17 1    
    31   18   19 1    
    32   18   50 1    
    33   18   51 1    
    34   19   20 1    
    35   20   21 2    
    36   21   22 1    
    37   21   52 1    
    38   22   27 ar   
    39   22   23 ar   
    40   23   24 ar   
    41   23   53 1    
    42   24   25 ar   
    43   24   54 1    
    44   25   26 ar   
    45   25   28 1    
    46   26   27 ar   
    47   26   55 1    
    48   27   56 1    
    49   28   29 1    
    50   29   57 1    
    51   29   58 1    
    52   29   59 1    
    53   30   35 ar   
    54   30   31 ar   
    55   31   32 ar   
    56   31   60 1    
    57   32   33 ar   
    58   32   61 1    
    59   33   34 ar   
    60   33   38 1    
    61   34   35 ar   
    62   34   36 1    
    63   35   62 1    
    64   36   37 1    
    65   37   63 1    
    66   37   64 1    
    67   37   65 1    
    68   38   39 1    
    69   39   66 1    
    70   39   67 1    
    71   39   68 1    
    72   40   41 2    
    73   40   42 1    
    74   42   69 1    
    75   42   70 1    
    76   43   71 1    
    77   43   72 1    
    78   43   73 1    
@<TRIPOS>SUBSTRUCTURE
     1 UNK         1 GROUP             0       ****    0 ROOT    
