ZINC39852186_2480
                    3D
 Schrodinger Suite 2024-2.
 54 58  0  0  1  0            999 V2000
   -1.2504   48.8165   15.2861 C   0  0  0  0  0  0
   -0.0504   48.3490   15.8183 C   0  0  0  0  0  0
    0.9727   49.2496   16.1072 C   0  0  0  0  0  0
    0.7940   50.6128   15.8576 C   0  0  0  0  0  0
   -0.4161   51.0765   15.3319 C   0  0  0  0  0  0
   -1.4386   50.1755   15.0438 C   0  0  0  0  0  0
    1.9060   51.5996   16.1999 C   0  0  0  0  0  0
    1.7368   52.1724   17.6131 C   0  0  0  0  0  0
    0.7573   52.8814   17.8679 O   0  0  0  0  0  0
    2.7043   51.8609   18.5056 N   0  0  0  0  0  0
    2.6037   52.2715   19.8436 N   0  0  0  0  0  0
    1.7805   51.6169   20.7023 C   0  0  0  0  0  0
    1.1086   50.6301   20.3912 O   0  0  0  0  0  0
    1.7692   52.1241   22.1312 C   0  0  0  0  0  0
    2.2361   53.4059   22.4677 C   0  0  0  0  0  0
    2.2802   53.8194   23.7964 C   0  0  0  0  0  0
    1.9006   52.9423   24.8109 C   0  0  0  0  0  0
    1.3501   51.6984   24.4797 C   0  0  0  0  0  0
    1.2942   51.2921   23.1513 C   0  0  0  0  0  0
    2.0937   53.2966   26.1674 N   0  0  0  0  0  0
    3.1903   53.8792   26.7731 C   0  0  0  0  0  0
    2.8481   54.0019   28.1209 C   0  0  0  0  0  0
    1.5763   53.4202   28.2390 C   0  0  0  0  0  0
    1.1367   53.0084   27.0691 N   0  0  0  0  0  0
    0.7506   53.2317   29.5036 C   0  0  0  0  0  0
   -0.4371   52.6715   29.2645 F   0  0  0  0  0  0
    1.3934   52.4525   30.3721 F   0  0  0  0  0  0
    0.5270   54.4008   30.1030 F   0  0  0  0  0  0
    3.8014   54.5915   29.1571 C   0  0  0  0  0  0
    5.2937   54.3479   28.7802 C   0  0  0  0  0  0
    5.4946   54.4963   27.2813 C   0  0  0  0  0  0
    4.5294   54.2781   26.3078 C   0  0  0  0  0  0
    5.1873   54.4956   25.0875 C   0  0  0  0  0  0
    6.4967   54.8434   25.3888 C   0  0  0  0  0  0
    6.6881   54.8428   26.7330 O   0  0  0  0  0  0
   -2.0452   48.1193   15.0656 H   0  0  0  0  0  0
    0.0878   47.2952   16.0081 H   0  0  0  0  0  0
    1.9030   48.8896   16.5240 H   0  0  0  0  0  0
   -0.5641   52.1314   15.1548 H   0  0  0  0  0  0
   -2.3741   50.5312   14.6366 H   0  0  0  0  0  0
    2.8759   51.1093   16.0954 H   0  0  0  0  0  0
    1.9022   52.4273   15.4912 H   0  0  0  0  0  0
    3.4771   51.2283   18.3286 H   0  0  0  0  0  0
    2.8726   53.2355   19.9645 H   0  0  0  0  0  0
    2.5761   54.0957   21.7101 H   0  0  0  0  0  0
    2.6338   54.8132   24.0297 H   0  0  0  0  0  0
    1.0202   51.0153   25.2486 H   0  0  0  0  0  0
    0.9101   50.3057   22.9285 H   0  0  0  0  0  0
    3.6058   55.6575   29.2770 H   0  0  0  0  0  0
    3.6130   54.1546   30.1360 H   0  0  0  0  0  0
    5.9043   55.0592   29.3316 H   0  0  0  0  0  0
    5.6142   53.3556   29.0960 H   0  0  0  0  0  0
    4.7890   54.3982   24.0922 H   0  0  0  0  0  0
    7.3555   55.0837   24.7771 H   0  0  0  0  0  0
  1  6  2  0  0  0
  1  2  1  0  0  0
  1 36  1  0  0  0
  2  3  2  0  0  0
  2 37  1  0  0  0
  3  4  1  0  0  0
  3 38  1  0  0  0
  4  5  2  0  0  0
  4  7  1  0  0  0
  5  6  1  0  0  0
  5 39  1  0  0  0
  6 40  1  0  0  0
  7  8  1  0  0  0
  7 41  1  0  0  0
  7 42  1  0  0  0
  8  9  2  0  0  0
  8 10  1  0  0  0
 10 11  1  0  0  0
 10 43  1  0  0  0
 11 12  1  0  0  0
 11 44  1  0  0  0
 12 13  2  0  0  0
 12 14  1  0  0  0
 14 19  2  0  0  0
 14 15  1  0  0  0
 15 16  2  0  0  0
 15 45  1  0  0  0
 16 17  1  0  0  0
 16 46  1  0  0  0
 17 18  2  0  0  0
 17 20  1  0  0  0
 18 19  1  0  0  0
 18 47  1  0  0  0
 19 48  1  0  0  0
 20 24  1  0  0  0
 20 21  1  0  0  0
 21 32  1  0  0  0
 21 22  2  0  0  0
 22 23  1  0  0  0
 22 29  1  0  0  0
 23 24  2  0  0  0
 23 25  1  0  0  0
 25 26  1  0  0  0
 25 27  1  0  0  0
 25 28  1  0  0  0
 29 30  1  0  0  0
 29 49  1  0  0  0
 29 50  1  0  0  0
 30 31  1  0  0  0
 30 51  1  0  0  0
 30 52  1  0  0  0
 31 35  1  0  0  0
 31 32  2  0  0  0
 32 33  1  0  0  0
 33 34  2  0  0  0
 33 53  1  0  0  0
 34 35  1  0  0  0
 34 54  1  0  0  0
M  END
> <i_i_glide_confnum>
31

> <i_i_glide_lignum>
2481

> <i_i_glide_posenum>
330

> <i_i_glide_rotatable_bonds>
8

> <i_m_Source_File_Index>
4158

> <b_m_subgroup_collapsed>
0

> <r_i_docking_score>
-6.72764

> <r_i_glide_ecoul>
-5.12659

> <r_i_glide_eff_state_penalty>
0

> <r_i_glide_einternal>
1.59595

> <r_i_glide_emodel>
-66.1287

> <r_i_glide_energy>
-45.8779

> <r_i_glide_erotb>
0.527137

> <r_i_glide_esite>
-0.141276

> <r_i_glide_evdw>
-40.7513

> <r_i_glide_gscore>
-6.72764

> <r_i_glide_hbond>
-0.303851

> <r_i_glide_ligand_efficiency>
-0.192218

> <r_i_glide_ligand_efficiency_ln>
-1.47687

> <r_i_glide_ligand_efficiency_sa>
-0.628758

> <r_i_glide_lipo>
-3.11324

> <r_i_glide_metal>
0

> <r_i_glide_rewards>
-0.889848

> <s_i_glide_gridfile>
wee1_glide-grid

> <s_m_Source_File>
wee1_decoys_glide_SP.sdf

> <s_m_Source_Path>
/Users/zhangxujun/Desktop

> <s_m_entry_id>
4433

> <s_m_entry_name>
wee1_decoys_glide_SP.4158

> <s_m_subgroup_title>
wee1_decoys_glide_SP

> <s_m_subgroupid>
wee1_decoys_glide_SP


$$$$
