@<TRIPOS>MOLECULE
ZINC64104269_3091
44   46    1
SMALL
USER_CHARGES


@<TRIPOS>ATOM
      1 C1          3.7562   54.2619   25.4937 C.2       1 UNK         0.0000 
      2 C2          4.0047   54.0968   24.1285 C.2       1 UNK         0.0000 
      3 C3          5.3501   54.2004   23.7705 C.2       1 UNK         0.0000 
      4 S4          6.3063   54.5280   25.1933 S.3       1 UNK         0.0000 
      5 C5          4.9115   54.5012   26.2154 C.2       1 UNK         0.0000 
      6 C6          5.9982   54.0450   22.4099 C.3       1 UNK         0.0000 
      7 C7          5.3999   54.9870   21.3490 C.3       1 UNK         0.0000 
      8 N8          6.0525   54.8968   20.0499 N.am      1 UNK         0.0000 
      9 C9          6.9203   55.8042   19.5498 C.2       1 UNK         0.0000 
     10 O10         7.1043   56.8968   20.0818 O.2       1 UNK         0.0000 
     11 N11         7.6436   55.4759   18.4560 N.am      1 UNK         0.0000 
     12 C12         7.6001   54.3533   17.7030 C.2       1 UNK         0.0000 
     13 O13         6.7105   53.4996   17.7661 O.2       1 UNK         0.0000 
     14 C14         8.7211   54.2109   16.6719 C.3       1 UNK         0.0000 
     15 O15         8.9971   52.8250   16.5108 O.3       1 UNK         0.0000 
     16 C16         9.9918   52.4002   15.7312 C.2       1 UNK         0.0000 
     17 O17        10.7570   53.1159   15.0804 O.2       1 UNK         0.0000 
     18 C18        10.0910   50.8709   15.7516 C.3       1 UNK         0.0000 
     19 H19         9.1053   50.4243   15.8924 H         1 UNK         0.0000 
     20 C20        10.8524   50.2986   14.5810 C.2       1 UNK         0.0000 
     21 C21        11.9529   49.6839   15.0499 C.2       1 UNK         0.0000 
     22 C22        13.0421   48.9816   14.3630 C.2       1 UNK         0.0000 
     23 C23        14.0602   48.4240   15.0494 C.2       1 UNK         0.0000 
     24 C24        14.0493   48.5711   16.4996 C.2       1 UNK         0.0000 
     25 C25        13.0629   49.2372   17.1558 C.2       1 UNK         0.0000 
     26 C26        11.9953   49.7964   16.4426 C.2       1 UNK         0.0000 
     27 N27        10.9531   50.4681   16.8817 N.pl3     1 UNK         0.0000 
     28 Br28       15.5090   47.4601   14.1204 Br        1 UNK         0.0000 
     29 Cl29       10.3043   50.4966   12.9115 Cl        1 UNK         0.0000 
     30 H30         2.7716   54.2033   25.9355 H         1 UNK         0.0000 
     31 H31         3.2228   53.8948   23.4116 H         1 UNK         0.0000 
     32 H32         5.0106   54.6607   27.2792 H         1 UNK         0.0000 
     33 H33         7.0726   54.2216   22.4835 H         1 UNK         0.0000 
     34 H34         5.8748   53.0119   22.0815 H         1 UNK         0.0000 
     35 H35         4.3303   54.8106   21.2275 H         1 UNK         0.0000 
     36 H36         5.5043   56.0125   21.6816 H         1 UNK         0.0000 
     37 H37         5.8093   54.1088   19.4604 H         1 UNK         0.0000 
     38 H38         8.3527   56.1524   18.2166 H         1 UNK         0.0000 
     39 H39         8.4095   54.6799   15.7370 H         1 UNK         0.0000 
     40 H40         9.6179   54.7311   17.0188 H         1 UNK         0.0000 
     41 H41        13.0596   48.8966   13.2845 H         1 UNK         0.0000 
     42 H42        14.8602   48.1371   17.0657 H         1 UNK         0.0000 
     43 H43        13.1089   49.3146   18.2332 H         1 UNK         0.0000 
     44 H44        10.7645   50.6991   17.8614 H         1 UNK         0.0000 
@<TRIPOS>BOND
     1    1    5 2    
     2    1    2 1    
     3    1   30 1    
     4    2    3 2    
     5    2   31 1    
     6    3    4 1    
     7    3    6 1    
     8    4    5 1    
     9    5   32 1    
    10    6    7 1    
    11    6   33 1    
    12    6   34 1    
    13    7    8 1    
    14    7   35 1    
    15    7   36 1    
    16    8    9 am   BACKBONE|DICT|INTERRES
    17    8   37 1    
    18    9   10 2    
    19    9   11 am   BACKBONE|DICT|INTERRES
    20   11   12 am   BACKBONE|DICT|INTERRES
    21   11   38 1    
    22   12   13 2    
    23   12   14 1    
    24   14   15 1    
    25   14   39 1    
    26   14   40 1    
    27   15   16 1    
    28   16   17 2    
    29   16   18 1    
    30   18   19 1    
    31   18   27 1    
    32   18   20 1    
    33   20   21 2    
    34   20   29 1    
    35   21   26 1    
    36   21   22 1    
    37   22   23 2    
    38   22   41 1    
    39   23   24 1    
    40   23   28 1    
    41   24   25 2    
    42   24   42 1    
    43   25   26 1    
    44   25   43 1    
    45   26   27 2    
    46   27   44 1    
@<TRIPOS>SUBSTRUCTURE
     1 UNK         1 GROUP             0       ****    0 ROOT    
