@<TRIPOS>MOLECULE
ZINC09296361_2800
48   51    1
SMALL
USER_CHARGES


@<TRIPOS>ATOM
      1 C1         -4.4957   50.4573   30.2130 C.3       1 UNK         0.0000 
      2 C2         -5.2446   49.9615   28.9653 C.3       1 UNK         0.0000 
      3 O3         -5.4626   51.0075   28.0152 O.3       1 UNK         0.0000 
      4 C4         -4.4356   51.4439   27.1939 C.ar      1 UNK         0.0000 
      5 C5         -3.1395   50.9026   27.2083 C.ar      1 UNK         0.0000 
      6 C6         -2.1349   51.4069   26.3782 C.ar      1 UNK         0.0000 
      7 C7         -2.4405   52.4457   25.4931 C.ar      1 UNK         0.0000 
      8 C8         -3.7217   52.9903   25.4566 C.ar      1 UNK         0.0000 
      9 C9         -4.7169   52.4962   26.3060 C.ar      1 UNK         0.0000 
     10 O10        -5.9637   53.0736   26.2713 O.3       1 UNK         0.0000 
     11 C11        -6.9205   52.3695   25.4884 C.3       1 UNK         0.0000 
     12 C12        -7.9883   53.3647   25.0274 C.3       1 UNK         0.0000 
     13 Br13       -4.0956   54.4237   24.2536 Br        1 UNK         0.0000 
     14 C14        -0.7060   50.8671   26.4816 C.3       1 UNK         0.0000 
     15 H15        -0.6936   50.1067   27.2658 H         1 UNK         0.0000 
     16 C16         0.2589   51.9876   26.9013 C.ar      1 UNK         0.0000 
     17 C17         0.2329   52.5389   28.1970 C.ar      1 UNK         0.0000 
     18 C18         1.0845   53.6009   28.4846 C.ar      1 UNK         0.0000 
     19 C19         1.9730   54.0790   27.5642 C.ar      1 UNK         0.0000 
     20 C20         2.0733   53.5371   26.2897 C.ar      1 UNK         0.0000 
     21 C21         1.1943   52.4968   25.9645 C.ar      1 UNK         0.0000 
     22 O22         1.2932   51.9936   24.6826 O.3       1 UNK         0.0000 
     23 C23         0.7045   50.8033   24.4103 C.2       1 UNK         0.0000 
     24 C24        -0.2024   50.1946   25.2004 C.2       1 UNK         0.0000 
     25 C25        -0.7234   48.9141   24.8361 C.1       1 UNK         0.0000 
     26 N26        -1.1221   47.8861   24.4820 N.1       1 UNK         0.0000 
     27 N27         1.2308   50.3295   23.2402 N.pl3     1 UNK         0.0000 
     28 O28         2.6775   55.1035   28.1109 O.3       1 UNK         0.0000 
     29 C29         1.9892   55.4285   29.2867 C.3       1 UNK         0.0000 
     30 O30         1.2056   54.3178   29.6343 O.3       1 UNK         0.0000 
     31 H31        -4.3882   49.6560   30.9449 H         1 UNK         0.0000 
     32 H32        -3.4910   50.8063   29.9778 H         1 UNK         0.0000 
     33 H33        -5.0306   51.2762   30.6930 H         1 UNK         0.0000 
     34 H34        -6.2267   49.5990   29.2702 H         1 UNK         0.0000 
     35 H35        -4.7472   49.1016   28.5132 H         1 UNK         0.0000 
     36 H36        -2.8876   50.0968   27.8810 H         1 UNK         0.0000 
     37 H37        -1.6737   52.8470   24.8464 H         1 UNK         0.0000 
     38 H38        -6.4676   51.9010   24.6109 H         1 UNK         0.0000 
     39 H39        -7.3707   51.5754   26.0863 H         1 UNK         0.0000 
     40 H40        -8.7576   52.8657   24.4373 H         1 UNK         0.0000 
     41 H41        -8.4734   53.8429   25.8787 H         1 UNK         0.0000 
     42 H42        -7.5488   54.1471   24.4070 H         1 UNK         0.0000 
     43 H43        -0.4644   52.1680   28.9348 H         1 UNK         0.0000 
     44 H44         2.7807   53.9107   25.5649 H         1 UNK         0.0000 
     45 H45         0.9244   49.4423   22.8693 H         1 UNK         0.0000 
     46 H46         2.1075   50.6925   22.8974 H         1 UNK         0.0000 
     47 H47         1.3418   56.2895   29.1028 H         1 UNK         0.0000 
     48 H48         2.6838   55.6947   30.0815 H         1 UNK         0.0000 
@<TRIPOS>BOND
     1    1    2 1    
     2    1   31 1    
     3    1   32 1    
     4    1   33 1    
     5    2    3 1    
     6    2   34 1    
     7    2   35 1    
     8    3    4 1    
     9    4    9 ar   
    10    4    5 ar   
    11    5    6 ar   
    12    5   36 1    
    13    6    7 ar   
    14    6   14 1    
    15    7    8 ar   
    16    7   37 1    
    17    8    9 ar   
    18    8   13 1    
    19    9   10 1    
    20   10   11 1    
    21   11   12 1    
    22   11   38 1    
    23   11   39 1    
    24   12   40 1    
    25   12   41 1    
    26   12   42 1    
    27   14   15 1    
    28   14   24 1    
    29   14   16 1    
    30   16   21 ar   
    31   16   17 ar   
    32   17   18 ar   
    33   17   43 1    
    34   18   30 1    
    35   18   19 ar   
    36   19   20 ar   
    37   19   28 1    
    38   20   21 ar   
    39   20   44 1    
    40   21   22 1    
    41   22   23 1    
    42   23   24 2    
    43   23   27 1    
    44   24   25 1    
    45   25   26 3    
    46   27   45 1    
    47   27   46 1    
    48   28   29 1    
    49   29   30 1    
    50   29   47 1    
    51   29   48 1    
@<TRIPOS>SUBSTRUCTURE
     1 UNK         1 GROUP             0       ****    0 ROOT    
