@<TRIPOS>MOLECULE
ZINC46899652_447
57   59    1
SMALL
USER_CHARGES


@<TRIPOS>ATOM
      1 C1          0.2991   48.7141   24.3034 C.3       1 UNK         0.0000 
      2 C2          0.8631   49.7398   23.3273 C.ar      1 UNK         0.0000 
      3 C3          1.9028   49.3489   22.4735 C.ar      1 UNK         0.0000 
      4 C4          2.4760   50.2456   21.5858 C.ar      1 UNK         0.0000 
      5 C5          2.0255   51.5665   21.5382 C.ar      1 UNK         0.0000 
      6 C6          0.9698   51.9630   22.3571 C.ar      1 UNK         0.0000 
      7 C7          0.3794   51.0621   23.2534 C.ar      1 UNK         0.0000 
      8 S8         -1.0080   51.6491   24.2390 S.o2      1 UNK         0.0000 
      9 O9         -1.0703   53.1099   24.1080 O.2       1 UNK         0.0000 
     10 O10        -2.1671   50.8281   23.8739 O.2       1 UNK         0.0000 
     11 N11        -0.6368   51.2746   25.9343 N.pl3     1 UNK         0.0000 
     12 C12         0.2744   51.9674   26.7432 C.ar      1 UNK         0.0000 
     13 C13         0.2517   51.6912   28.1116 C.ar      1 UNK         0.0000 
     14 C14         1.1462   52.3242   28.9713 C.ar      1 UNK         0.0000 
     15 C15         2.0729   53.2313   28.4619 C.ar      1 UNK         0.0000 
     16 C16         2.1090   53.5077   27.0958 C.ar      1 UNK         0.0000 
     17 C17         1.2102   52.8784   26.2341 C.ar      1 UNK         0.0000 
     18 Cl18        3.1808   54.0135   29.5314 Cl        1 UNK         0.0000 
     19 N19         2.5498   52.4986   20.6385 N.am      1 UNK         0.0000 
     20 C20         3.8250   52.5855   20.2090 C.2       1 UNK         0.0000 
     21 O21         4.7663   51.9327   20.6708 O.2       1 UNK         0.0000 
     22 C22         4.0446   53.5895   19.0525 C.3       1 UNK         0.0000 
     23 H23         3.7080   54.5687   19.3969 H         1 UNK         0.0000 
     24 C24         3.2326   53.1947   17.8017 C.3       1 UNK         0.0000 
     25 N25         5.4476   53.6627   18.6473 N.am      1 UNK         0.0000 
     26 C26         6.2622   54.7116   18.8484 C.2       1 UNK         0.0000 
     27 O27         5.9151   55.7210   19.4671 O.2       1 UNK         0.0000 
     28 C28         7.7034   54.5546   18.3223 C.3       1 UNK         0.0000 
     29 C29         7.8266   54.9666   16.8457 C.3       1 UNK         0.0000 
     30 C30         9.2895   55.3990   16.6617 C.3       1 UNK         0.0000 
     31 C31         9.9070   55.4836   18.0664 C.3       1 UNK         0.0000 
     32 C32         8.7437   55.4151   19.0580 C.3       1 UNK         0.0000 
     33 H33        -0.7913   48.7018   24.2822 H         1 UNK         0.0000 
     34 H34         0.6299   47.7006   24.0800 H         1 UNK         0.0000 
     35 H35         0.6198   48.9432   25.3198 H         1 UNK         0.0000 
     36 H36         2.2978   48.3470   22.4765 H         1 UNK         0.0000 
     37 H37         3.2671   49.9036   20.9343 H         1 UNK         0.0000 
     38 H38         0.6092   52.9802   22.2891 H         1 UNK         0.0000 
     39 H39        -1.1200   50.4847   26.3403 H         1 UNK         0.0000 
     40 H40        -0.4575   50.9779   28.5136 H         1 UNK         0.0000 
     41 H41         1.1165   52.1062   30.0289 H         1 UNK         0.0000 
     42 H42         2.8336   54.2066   26.7014 H         1 UNK         0.0000 
     43 H43         1.2567   53.1007   25.1798 H         1 UNK         0.0000 
     44 H44         1.9072   53.1946   20.2853 H         1 UNK         0.0000 
     45 H45         2.1595   53.2108   17.9980 H         1 UNK         0.0000 
     46 H46         3.4142   53.8877   16.9783 H         1 UNK         0.0000 
     47 H47         3.4914   52.1893   17.4571 H         1 UNK         0.0000 
     48 H48         5.8003   52.8187   18.2109 H         1 UNK         0.0000 
     49 H49         7.9571   53.5046   18.4612 H         1 UNK         0.0000 
     50 H50         7.1748   55.8107   16.6117 H         1 UNK         0.0000 
     51 H51         7.5576   54.1528   16.1714 H         1 UNK         0.0000 
     52 H52         9.3417   56.3631   16.1532 H         1 UNK         0.0000 
     53 H53         9.8374   54.6863   16.0445 H         1 UNK         0.0000 
     54 H54        10.5042   56.3880   18.1956 H         1 UNK         0.0000 
     55 H55        10.5728   54.6324   18.2263 H         1 UNK         0.0000 
     56 H56         9.0462   54.9830   20.0118 H         1 UNK         0.0000 
     57 H57         8.3753   56.4244   19.2526 H         1 UNK         0.0000 
@<TRIPOS>BOND
     1    1    2 1    
     2    1   33 1    
     3    1   34 1    
     4    1   35 1    
     5    2    7 ar   
     6    2    3 ar   
     7    3    4 ar   
     8    3   36 1    
     9    4    5 ar   
    10    4   37 1    
    11    5    6 ar   
    12    5   19 1    
    13    6    7 ar   
    14    6   38 1    
    15    7    8 1    
    16    8    9 2    
    17    8   10 2    
    18    8   11 1    
    19   11   12 1    
    20   11   39 1    
    21   12   17 ar   
    22   12   13 ar   
    23   13   14 ar   
    24   13   40 1    
    25   14   15 ar   
    26   14   41 1    
    27   15   16 ar   
    28   15   18 1    
    29   16   17 ar   
    30   16   42 1    
    31   17   43 1    
    32   19   20 am   BACKBONE|DICT|INTERRES
    33   19   44 1    
    34   20   21 2    
    35   20   22 1    
    36   22   23 1    
    37   22   24 1    
    38   22   25 1    
    39   24   45 1    
    40   24   46 1    
    41   24   47 1    
    42   25   26 am   BACKBONE|DICT|INTERRES
    43   25   48 1    
    44   26   27 2    
    45   26   28 1    
    46   28   32 1    
    47   28   29 1    
    48   28   49 1    
    49   29   30 1    
    50   29   50 1    
    51   29   51 1    
    52   30   31 1    
    53   30   52 1    
    54   30   53 1    
    55   31   32 1    
    56   31   54 1    
    57   31   55 1    
    58   32   56 1    
    59   32   57 1    
@<TRIPOS>SUBSTRUCTURE
     1 UNK         1 GROUP             0       ****    0 ROOT    
