ZINC63980332_6076
                    3D
 Schrodinger Suite 2024-2.
 62 66  0  0  1  0            999 V2000
    6.1381   54.3480   24.0230 C   0  0  0  0  0  0
    5.1715   54.5939   25.1921 C   0  0  0  0  0  0
    3.7448   54.1058   24.9544 C   0  0  0  0  0  0
    3.0824   54.3682   23.7475 C   0  0  0  0  0  0
    1.7711   53.9389   23.5548 C   0  0  0  0  0  0
    1.1066   53.2610   24.5751 C   0  0  0  0  0  0
    1.7549   52.9854   25.7823 C   0  0  0  0  0  0
    3.0704   53.4224   25.9701 C   0  0  0  0  0  0
    0.8725   52.1842   26.7223 C   0  0  2  0  0  0
    1.3722   51.2289   26.8867 H   0  0  0  0  0  0
   -0.4204   52.0298   25.8937 C   0  0  1  0  0  0
   -1.2508   52.5468   26.3802 H   0  0  0  0  0  0
   -0.1342   52.6233   24.5873 N   0  0  0  0  0  0
   -1.3281   53.0550   23.8657 C   0  0  0  0  0  0
   -0.8641   50.5643   25.6609 C   0  0  0  0  0  0
   -2.0630   50.2852   25.6790 O   0  0  0  0  0  0
    0.0799   49.6891   25.2667 N   0  0  0  0  0  0
   -0.1996   48.4231   24.5993 C   0  0  0  0  0  0
   -0.6296   48.6176   23.1192 C   0  0  0  0  0  0
    0.3889   49.2462   22.1645 C   0  0  0  0  0  0
    0.7315   48.8960   20.9089 C   0  0  0  0  0  0
    0.2171   47.8277   20.0390 C   0  0  0  0  0  0
    0.7483   47.6145   18.8182 C   0  0  0  0  0  0
    1.8341   48.4812   18.3886 C   0  0  0  0  0  0
    2.3025   49.4887   19.1685 C   0  0  0  0  0  0
    1.7698   49.7077   20.4414 C   0  0  0  0  0  0
    2.1075   50.5936   21.3398 N   0  3  0  0  0  0
    1.2620   50.4292   22.5277 C   0  0  0  0  0  0
    0.6714   52.7386   28.1374 C   0  0  0  0  0  0
    1.0888   54.0263   28.5050 C   0  0  0  0  0  0
    0.9630   54.4546   29.8241 C   0  0  0  0  0  0
    0.4049   53.6018   30.7727 C   0  0  0  0  0  0
   -0.0532   52.3393   30.4108 C   0  0  0  0  0  0
    0.0842   51.9057   29.0960 C   0  0  0  0  0  0
    0.3027   54.0970   32.4211 Cl  0  0  0  0  0  0
    7.1536   54.6370   24.2960 H   0  0  0  0  0  0
    5.8670   54.9255   23.1403 H   0  0  0  0  0  0
    6.1607   53.2969   23.7384 H   0  0  0  0  0  0
    5.5773   54.1007   26.0777 H   0  0  0  0  0  0
    5.1351   55.6588   25.4264 H   0  0  0  0  0  0
    3.5792   54.8970   22.9481 H   0  0  0  0  0  0
    1.2867   54.1256   22.6074 H   0  0  0  0  0  0
    3.5767   53.2139   26.9003 H   0  0  0  0  0  0
   -1.5426   54.0967   24.0789 H   0  0  0  0  0  0
   -1.1684   52.9320   22.7955 H   0  0  0  0  0  0
   -2.2128   52.4700   24.1209 H   0  0  0  0  0  0
    1.0484   49.9517   25.3546 H   0  0  0  0  0  0
    0.7022   47.8143   24.6473 H   0  0  0  0  0  0
   -0.9639   47.8702   25.1542 H   0  0  0  0  0  0
   -0.9121   47.6459   22.7153 H   0  0  0  0  0  0
   -1.5370   49.2218   23.0907 H   0  0  0  0  0  0
   -0.5959   47.1866   20.3500 H   0  0  0  0  0  0
    0.3748   46.8328   18.1725 H   0  0  0  0  0  0
    2.2821   48.3340   17.4146 H   0  0  0  0  0  0
    3.1043   50.1026   18.7784 H   0  0  0  0  0  0
    0.6868   51.3441   22.6366 H   0  0  0  0  0  0
    1.9141   50.2682   23.3873 H   0  0  0  0  0  0
    1.5242   54.7022   27.7829 H   0  0  0  0  0  0
    1.3034   55.4398   30.1078 H   0  0  0  0  0  0
   -0.4958   51.6955   31.1586 H   0  0  0  0  0  0
   -0.2584   50.9140   28.8288 H   0  0  0  0  0  0
    2.8357   51.2960   21.2374 H   0  0  0  0  0  0
  1  2  1  0  0  0
  1 36  1  0  0  0
  1 37  1  0  0  0
  1 38  1  0  0  0
  2  3  1  0  0  0
  2 39  1  0  0  0
  2 40  1  0  0  0
  3  8  2  0  0  0
  3  4  1  0  0  0
  4  5  2  0  0  0
  4 41  1  0  0  0
  5  6  1  0  0  0
  5 42  1  0  0  0
  6 13  1  0  0  0
  6  7  2  0  0  0
  7  8  1  0  0  0
  7  9  1  0  0  0
  8 43  1  0  0  0
  9 10  1  0  0  0
  9 11  1  0  0  0
  9 29  1  0  0  0
 11 12  1  0  0  0
 11 13  1  0  0  0
 11 15  1  0  0  0
 13 14  1  0  0  0
 14 44  1  0  0  0
 14 45  1  0  0  0
 14 46  1  0  0  0
 15 16  2  0  0  0
 15 17  1  0  0  0
 17 18  1  0  0  0
 17 47  1  0  0  0
 18 19  1  0  0  0
 18 48  1  0  0  0
 18 49  1  0  0  0
 19 20  1  0  0  0
 19 50  1  0  0  0
 19 51  1  0  0  0
 20 28  1  0  0  0
 20 21  2  0  0  0
 21 26  1  0  0  0
 21 22  1  0  0  0
 22 23  2  0  0  0
 22 52  1  0  0  0
 23 24  1  0  0  0
 23 53  1  0  0  0
 24 25  2  0  0  0
 24 54  1  0  0  0
 25 26  1  0  0  0
 25 55  1  0  0  0
 26 27  2  0  0  0
 27 28  1  0  0  0
 27 62  1  0  0  0
 28 56  1  0  0  0
 28 57  1  0  0  0
 29 34  2  0  0  0
 29 30  1  0  0  0
 30 31  2  0  0  0
 30 58  1  0  0  0
 31 32  1  0  0  0
 31 59  1  0  0  0
 32 33  2  0  0  0
 32 35  1  0  0  0
 33 34  1  0  0  0
 33 60  1  0  0  0
 34 61  1  0  0  0
M  CHG  1  27   1
M  END
> <i_i_glide_confnum>
14

> <i_i_glide_lignum>
6077

> <i_i_glide_posenum>
230

> <i_i_glide_rotatable_bonds>
7

> <i_m_Source_File_Index>
3536

> <b_m_subgroup_collapsed>
0

> <r_i_docking_score>
-5.32159

> <r_i_glide_ecoul>
-2.76654

> <r_i_glide_eff_state_penalty>
0

> <r_i_glide_einternal>
10.4728

> <r_i_glide_emodel>
-56.3423

> <r_i_glide_energy>
-44.7434

> <r_i_glide_erotb>
0.477428

> <r_i_glide_esite>
-0.084289

> <r_i_glide_evdw>
-41.9769

> <r_i_glide_gscore>
-5.32159

> <r_i_glide_hbond>
0

> <r_i_glide_ligand_efficiency>
-0.16126

> <r_i_glide_ligand_efficiency_ln>
-1.18349

> <r_i_glide_ligand_efficiency_sa>
-0.517248

> <r_i_glide_lipo>
-2.81251

> <r_i_glide_metal>
0

> <r_i_glide_rewards>
-0.388385

> <s_i_glide_gridfile>
wee1_glide-grid

> <s_m_Source_File>
wee1_decoys_glide_SP.sdf

> <s_m_Source_Path>
/Users/zhangxujun/Desktop

> <s_m_entry_id>
3811

> <s_m_entry_name>
wee1_decoys_glide_SP.3536

> <s_m_subgroup_title>
wee1_decoys_glide_SP

> <s_m_subgroupid>
wee1_decoys_glide_SP


$$$$
