@<TRIPOS>MOLECULE
ZINC01735890_3503
66   68    1
SMALL
USER_CHARGES


@<TRIPOS>ATOM
      1 C1          4.1870   54.0625   28.2425 C.3       1 UNK         0.0000 
      2 C2          4.1578   54.0611   26.7063 C.ar      1 UNK         0.0000 
      3 C3          5.3166   54.4174   25.9933 C.ar      1 UNK         0.0000 
      4 C4          5.2847   54.4960   24.5872 C.ar      1 UNK         0.0000 
      5 C5          4.1076   54.1486   23.8858 C.ar      1 UNK         0.0000 
      6 C6          2.9772   53.6972   24.6007 C.ar      1 UNK         0.0000 
      7 C7          2.9868   53.6984   26.0120 C.ar      1 UNK         0.0000 
      8 C8          1.7377   53.3070   26.8140 C.3       1 UNK         0.0000 
      9 C9          1.7564   53.1501   23.8476 C.3       1 UNK         0.0000 
     10 C10         4.0357   54.3103   22.3554 C.3       1 UNK         0.0000 
     11 N11         4.8260   53.3102   21.6497 N.3       1 UNK         0.0000 
     12 N12         4.7306   53.5059   20.2577 N.pl3     1 UNK         0.0000 
     13 C13         5.7101   54.0852   19.5051 C.2       1 UNK         0.0000 
     14 S14         6.3044   55.6260   19.8097 S.2       1 UNK         0.0000 
     15 N15         6.0908   53.2722   18.4752 N.pl3     1 UNK         0.0000 
     16 C16         7.0543   53.3997   17.4599 C.ar      1 UNK         0.0000 
     17 C17         8.3409   53.9066   17.6816 C.ar      1 UNK         0.0000 
     18 C18         9.2692   53.9206   16.6452 C.ar      1 UNK         0.0000 
     19 C19         8.9210   53.4092   15.3931 C.ar      1 UNK         0.0000 
     20 C20         7.6380   52.9077   15.1689 C.ar      1 UNK         0.0000 
     21 C21         6.7090   52.8969   16.2048 C.ar      1 UNK         0.0000 
     22 S22        10.1291   53.3907   14.0684 S.o2      1 UNK         0.0000 
     23 O23        11.0890   54.4599   14.3708 O.2       1 UNK         0.0000 
     24 O24         9.3713   53.3941   12.8110 O.2       1 UNK         0.0000 
     25 N25        10.9894   51.8363   14.1902 N.pl3     1 UNK         0.0000 
     26 C26        10.3337   50.6023   13.6838 C.3       1 UNK         0.0000 
     27 C27         9.5855   49.8519   14.8073 C.3       1 UNK         0.0000 
     28 C28        10.4910   49.6140   16.0368 C.3       1 UNK         0.0000 
     29 C29        11.2102   50.8986   16.5016 C.3       1 UNK         0.0000 
     30 C30        11.9147   51.6165   15.3299 C.3       1 UNK         0.0000 
     31 C31         6.5375   54.9740   23.8407 C.3       1 UNK         0.0000 
     32 C32         6.6226   54.6752   26.7570 C.3       1 UNK         0.0000 
     33 H33         4.8099   54.8702   28.6276 H         1 UNK         0.0000 
     34 H34         3.2150   54.2394   28.6995 H         1 UNK         0.0000 
     35 H35         4.5824   53.1157   28.6145 H         1 UNK         0.0000 
     36 H36         1.9624   52.4613   27.4656 H         1 UNK         0.0000 
     37 H37         1.4269   54.1377   27.4486 H         1 UNK         0.0000 
     38 H38         0.8594   53.0470   26.2288 H         1 UNK         0.0000 
     39 H39         0.9712   53.9026   23.7714 H         1 UNK         0.0000 
     40 H40         1.9942   52.7670   22.8572 H         1 UNK         0.0000 
     41 H41         1.3524   52.2683   24.3422 H         1 UNK         0.0000 
     42 H42         4.3911   55.2967   22.0815 H         1 UNK         0.0000 
     43 H43         3.0114   54.3119   21.9867 H         1 UNK         0.0000 
     44 H44         5.7998   53.4043   21.8985 H         1 UNK         0.0000 
     45 H45         4.2289   52.7340   19.8427 H         1 UNK         0.0000 
     46 H46         5.5679   52.4056   18.3922 H         1 UNK         0.0000 
     47 H47         8.6416   54.2619   18.6556 H         1 UNK         0.0000 
     48 H48        10.2631   54.3057   16.8249 H         1 UNK         0.0000 
     49 H49         7.3646   52.5096   14.2023 H         1 UNK         0.0000 
     50 H50         5.7268   52.4770   16.0332 H         1 UNK         0.0000 
     51 H51        11.1154   49.9554   13.2810 H         1 UNK         0.0000 
     52 H52         9.6792   50.8532   12.8492 H         1 UNK         0.0000 
     53 H53         9.2141   48.8978   14.4299 H         1 UNK         0.0000 
     54 H54         8.7030   50.4144   15.1061 H         1 UNK         0.0000 
     55 H55         9.9109   49.1889   16.8575 H         1 UNK         0.0000 
     56 H56        11.2455   48.8693   15.7792 H         1 UNK         0.0000 
     57 H57        10.4924   51.5639   16.9780 H         1 UNK         0.0000 
     58 H58        11.9375   50.6573   17.2775 H         1 UNK         0.0000 
     59 H59        12.7374   50.9956   14.9716 H         1 UNK         0.0000 
     60 H60        12.3444   52.5706   15.6367 H         1 UNK         0.0000 
     61 H61         7.2589   54.1619   23.7446 H         1 UNK         0.0000 
     62 H62         6.3412   55.3803   22.8544 H         1 UNK         0.0000 
     63 H63         7.0175   55.7953   24.3726 H         1 UNK         0.0000 
     64 H64         7.5043   54.4790   26.1537 H         1 UNK         0.0000 
     65 H65         6.6635   55.6967   27.1331 H         1 UNK         0.0000 
     66 H66         6.7267   53.9967   27.6044 H         1 UNK         0.0000 
@<TRIPOS>BOND
     1    1    2 1    
     2    1   33 1    
     3    1   34 1    
     4    1   35 1    
     5    2    7 ar   
     6    2    3 ar   
     7    3    4 ar   
     8    3   32 1    
     9    4    5 ar   
    10    4   31 1    
    11    5    6 ar   
    12    5   10 1    
    13    6    7 ar   
    14    6    9 1    
    15    7    8 1    
    16    8   36 1    
    17    8   37 1    
    18    8   38 1    
    19    9   39 1    
    20    9   40 1    
    21    9   41 1    
    22   10   11 1    
    23   10   42 1    
    24   10   43 1    
    25   11   12 1    
    26   11   44 1    
    27   12   13 1    
    28   12   45 1    
    29   13   14 2    
    30   13   15 1    
    31   15   16 1    
    32   15   46 1    
    33   16   21 ar   
    34   16   17 ar   
    35   17   18 ar   
    36   17   47 1    
    37   18   19 ar   
    38   18   48 1    
    39   19   20 ar   
    40   19   22 1    
    41   20   21 ar   
    42   20   49 1    
    43   21   50 1    
    44   22   23 2    
    45   22   24 2    
    46   22   25 1    
    47   25   30 1    
    48   25   26 1    
    49   26   27 1    
    50   26   51 1    
    51   26   52 1    
    52   27   28 1    
    53   27   53 1    
    54   27   54 1    
    55   28   29 1    
    56   28   55 1    
    57   28   56 1    
    58   29   30 1    
    59   29   57 1    
    60   29   58 1    
    61   30   59 1    
    62   30   60 1    
    63   31   61 1    
    64   31   62 1    
    65   31   63 1    
    66   32   64 1    
    67   32   65 1    
    68   32   66 1    
@<TRIPOS>SUBSTRUCTURE
     1 UNK         1 GROUP             0       ****    0 ROOT    
