@<TRIPOS>MOLECULE
ZINC08920005_412
55   59    1
SMALL
USER_CHARGES


@<TRIPOS>ATOM
      1 C1          5.8931   54.1427   28.8809 C.3       1 UNK         0.0000 
      2 C2          5.4829   54.2557   27.4381 C.2       1 UNK         0.0000 
      3 C3          4.1961   54.1578   26.8795 C.2       1 UNK         0.0000 
      4 C4          4.2410   54.1635   25.4623 C.ar      1 UNK         0.0000 
      5 C5          5.5380   54.3128   24.9734 C.ar      1 UNK         0.0000 
      6 S6          6.7025   54.4904   26.2230 S.3       1 UNK         0.0000 
      7 N7          5.9053   54.2976   23.6660 N.2       1 UNK         0.0000 
      8 C8          4.9626   54.0958   22.8172 C.ar      1 UNK         0.0000 
      9 N9          3.6277   53.9607   23.1809 N.pl3     1 UNK         0.0000 
     10 C10         3.1433   54.0759   24.4867 C.ar      1 UNK         0.0000 
     11 O11         1.9376   54.0967   24.7447 O.2       1 UNK         0.0000 
     12 C12         2.6416   53.7783   22.0809 C.3       1 UNK         0.0000 
     13 C13         1.8231   52.4676   22.1291 C.2       1 UNK         0.0000 
     14 O14         1.9039   51.6782   23.0733 O.2       1 UNK         0.0000 
     15 N15         1.0180   52.2930   21.0665 N.am      1 UNK         0.0000 
     16 C16         0.1582   51.2211   20.9072 C.2       1 UNK         0.0000 
     17 C17         0.4013   49.8544   20.6402 C.2       1 UNK         0.0000 
     18 C18        -0.8327   49.1275   20.6094 C.2       1 UNK         0.0000 
     19 C19        -1.9508   49.9782   20.7081 C.2       1 UNK         0.0000 
     20 S20        -1.5155   51.6317   20.9258 S.3       1 UNK         0.0000 
     21 C21        -3.4091   49.5555   20.5862 C.3       1 UNK         0.0000 
     22 C22        -3.5243   48.0324   20.7771 C.3       1 UNK         0.0000 
     23 C23        -2.4582   47.2799   19.9675 C.3       1 UNK         0.0000 
     24 C24        -1.0314   47.6084   20.4562 C.3       1 UNK         0.0000 
     25 C25         1.7388   49.2809   20.5235 C.2       1 UNK         0.0000 
     26 O26         2.7044   49.7068   21.1432 O.2       1 UNK         0.0000 
     27 N27         1.8984   48.2871   19.6523 N.am      1 UNK         0.0000 
     28 C28         2.9679   53.9974   27.7236 C.ar      1 UNK         0.0000 
     29 C29         2.6761   54.9353   28.7186 C.ar      1 UNK         0.0000 
     30 C30         1.5419   54.7880   29.5130 C.ar      1 UNK         0.0000 
     31 C31         0.7026   53.6946   29.3168 C.ar      1 UNK         0.0000 
     32 C32         0.9850   52.7490   28.3356 C.ar      1 UNK         0.0000 
     33 C33         2.1174   52.9019   27.5403 C.ar      1 UNK         0.0000 
     34 F34        -0.3998   53.5527   30.0820 F         1 UNK         0.0000 
     35 H35         5.4802   53.2197   29.2817 H         1 UNK         0.0000 
     36 H36         6.9757   54.0954   29.0107 H         1 UNK         0.0000 
     37 H37         5.5263   54.9736   29.4822 H         1 UNK         0.0000 
     38 H38         5.2068   54.0379   21.7595 H         1 UNK         0.0000 
     39 H39         3.1230   53.8226   21.1022 H         1 UNK         0.0000 
     40 H40         1.9433   54.6147   22.0878 H         1 UNK         0.0000 
     41 H41         0.9434   53.0576   20.4093 H         1 UNK         0.0000 
     42 H42        -3.7835   49.8232   19.5970 H         1 UNK         0.0000 
     43 H43        -4.0382   50.0757   21.3097 H         1 UNK         0.0000 
     44 H44        -4.5213   47.7021   20.4839 H         1 UNK         0.0000 
     45 H45        -3.4236   47.7824   21.8357 H         1 UNK         0.0000 
     46 H46        -2.5565   47.5305   18.9098 H         1 UNK         0.0000 
     47 H47        -2.6285   46.2049   20.0382 H         1 UNK         0.0000 
     48 H48        -0.8842   47.1315   21.4259 H         1 UNK         0.0000 
     49 H49        -0.3273   47.1407   19.7725 H         1 UNK         0.0000 
     50 H50         1.1526   48.0132   19.0340 H         1 UNK         0.0000 
     51 H51         2.8373   47.9447   19.5020 H         1 UNK         0.0000 
     52 H52         3.3248   55.7823   28.8799 H         1 UNK         0.0000 
     53 H53         1.3095   55.5147   30.2771 H         1 UNK         0.0000 
     54 H54         0.3277   51.9035   28.1907 H         1 UNK         0.0000 
     55 H55         2.3220   52.1691   26.7754 H         1 UNK         0.0000 
@<TRIPOS>BOND
     1    1    2 1    
     2    1   35 1    
     3    1   36 1    
     4    1   37 1    
     5    2    6 1    
     6    2    3 2    
     7    3    4 1    
     8    3   28 1    
     9    4   10 ar   
    10    4    5 ar   
    11    5    6 1    
    12    5    7 ar   
    13    7    8 ar   
    14    8    9 ar   
    15    8   38 1    
    16    9   10 ar   
    17    9   12 1    
    18   10   11 2    
    19   12   13 1    
    20   12   39 1    
    21   12   40 1    
    22   13   14 2    
    23   13   15 am   BACKBONE|DICT|INTERRES
    24   15   16 am   BACKBONE|DICT|INTERRES
    25   15   41 1    
    26   16   20 1    
    27   16   17 2    
    28   17   18 1    
    29   17   25 1    
    30   18   24 1    
    31   18   19 2    
    32   19   20 1    
    33   19   21 1    
    34   21   22 1    
    35   21   42 1    
    36   21   43 1    
    37   22   23 1    
    38   22   44 1    
    39   22   45 1    
    40   23   24 1    
    41   23   46 1    
    42   23   47 1    
    43   24   48 1    
    44   24   49 1    
    45   25   26 2    
    46   25   27 am   BACKBONE|DICT|INTERRES
    47   27   50 1    
    48   27   51 1    
    49   28   33 ar   
    50   28   29 ar   
    51   29   30 ar   
    52   29   52 1    
    53   30   31 ar   
    54   30   53 1    
    55   31   32 ar   
    56   31   34 1    
    57   32   33 ar   
    58   32   54 1    
    59   33   55 1    
@<TRIPOS>SUBSTRUCTURE
     1 UNK         1 GROUP             0       ****    0 ROOT    
