@<TRIPOS>MOLECULE
ZINC67447321_1363
48   51    1
SMALL
USER_CHARGES


@<TRIPOS>ATOM
      1 C1          3.5684   53.0254   29.2573 C.ar      1 UNK         0.0000 
      2 C2          3.6918   53.4205   27.9158 C.ar      1 UNK         0.0000 
      3 C3          2.5567   53.2967   27.0942 C.ar      1 UNK         0.0000 
      4 C4          1.3666   52.7563   27.5856 C.ar      1 UNK         0.0000 
      5 C5          1.2766   52.3540   28.9144 C.ar      1 UNK         0.0000 
      6 C6          2.3778   52.4953   29.7518 C.ar      1 UNK         0.0000 
      7 F7          2.3055   52.0984   31.0412 F         1 UNK         0.0000 
      8 F8          0.3051   52.6053   26.7639 F         1 UNK         0.0000 
      9 C9          5.0431   53.9263   27.3515 C.3       1 UNK         0.0000 
     10 C10         5.8113   54.9407   28.1787 C.3       1 UNK         0.0000 
     11 C11         6.3527   53.5507   28.0243 C.3       1 UNK         0.0000 
     12 N12         5.0715   54.0832   25.8907 N.am      1 UNK         0.0000 
     13 C13         5.9992   54.5809   25.0440 C.2       1 UNK         0.0000 
     14 O14         7.0838   55.0697   25.3757 O.2       1 UNK         0.0000 
     15 C15         5.5926   54.4963   23.6588 C.ar      1 UNK         0.0000 
     16 C16         6.3433   54.8916   22.5527 C.ar      1 UNK         0.0000 
     17 N17         5.5486   54.6400   21.4605 N.pl3     1 UNK         0.0000 
     18 N18         4.3811   54.1243   21.8472 N.2       1 UNK         0.0000 
     19 N19         4.4228   54.0413   23.2214 N.2       1 UNK         0.0000 
     20 C20         5.8318   54.9339   20.0557 C.3       1 UNK         0.0000 
     21 C21         5.2175   53.9213   19.0452 C.3       1 UNK         0.0000 
     22 H22         5.3334   52.9120   19.4495 H         1 UNK         0.0000 
     23 C23         3.7048   54.1374   18.7584 C.3       1 UNK         0.0000 
     24 C24         3.1528   53.0915   17.7733 C.3       1 UNK         0.0000 
     25 C25         3.9343   53.0928   16.4497 C.3       1 UNK         0.0000 
     26 N26         5.4286   52.8967   16.7606 N.4       1 UNK         0.0000 
     27 C27         6.0027   53.9590   17.7146 C.3       1 UNK         0.0000 
     28 H28         4.3929   53.1060   29.9404 H         1 UNK         0.0000 
     29 H29         2.5831   53.5901   26.0570 H         1 UNK         0.0000 
     30 H30         0.3575   51.9291   29.2917 H         1 UNK         0.0000 
     31 H31         6.3261   55.7586   27.6817 H         1 UNK         0.0000 
     32 H32         5.4213   55.2485   29.1498 H         1 UNK         0.0000 
     33 H33         6.3282   52.8967   28.8817 H         1 UNK         0.0000 
     34 H34         7.2408   53.3820   27.4135 H         1 UNK         0.0000 
     35 H35         4.4892   53.3982   25.4362 H         1 UNK         0.0000 
     36 H36         7.3302   55.3222   22.4592 H         1 UNK         0.0000 
     37 H37         5.4914   55.9502   19.8530 H         1 UNK         0.0000 
     38 H38         6.9183   54.9482   19.9538 H         1 UNK         0.0000 
     39 H39         3.1046   54.0960   19.6681 H         1 UNK         0.0000 
     40 H40         3.5371   55.1460   18.3746 H         1 UNK         0.0000 
     41 H41         3.1985   52.0962   18.2214 H         1 UNK         0.0000 
     42 H42         2.0973   53.2858   17.5775 H         1 UNK         0.0000 
     43 H43         3.6460   52.2647   15.7993 H         1 UNK         0.0000 
     44 H44         3.8455   54.0324   15.9017 H         1 UNK         0.0000 
     45 H45         5.5187   51.9790   17.2051 H         1 UNK         0.0000 
     46 H46         5.9334   54.9193   17.1989 H         1 UNK         0.0000 
     47 H47         7.0565   53.7063   17.8426 H         1 UNK         0.0000 
     48 H48         5.9641   52.8569   15.9041 H         1 UNK         0.0000 
@<TRIPOS>BOND
     1    1    6 ar   
     2    1    2 ar   
     3    1   28 1    
     4    2    3 ar   
     5    2    9 1    
     6    3    4 ar   
     7    3   29 1    
     8    4    5 ar   
     9    4    8 1    
    10    5    6 ar   
    11    5   30 1    
    12    6    7 1    
    13    9   11 1    
    14    9   10 1    
    15    9   12 1    
    16   10   11 1    
    17   10   31 1    
    18   10   32 1    
    19   11   33 1    
    20   11   34 1    
    21   12   13 am   BACKBONE|DICT|INTERRES
    22   12   35 1    
    23   13   14 2    
    24   13   15 1    
    25   15   19 ar   
    26   15   16 ar   
    27   16   17 ar   
    28   16   36 1    
    29   17   18 ar   
    30   17   20 1    
    31   18   19 ar   
    32   20   21 1    
    33   20   37 1    
    34   20   38 1    
    35   21   22 1    
    36   21   27 1    
    37   21   23 1    
    38   23   24 1    
    39   23   39 1    
    40   23   40 1    
    41   24   25 1    
    42   24   41 1    
    43   24   42 1    
    44   25   26 1    
    45   25   43 1    
    46   25   44 1    
    47   26   27 1    
    48   26   45 1    
    49   26   48 1    
    50   27   46 1    
    51   27   47 1    
@<TRIPOS>SUBSTRUCTURE
     1 UNK         1 GROUP             0       ****    0 ROOT    
