@<TRIPOS>MOLECULE
ZINC03522810_410
52   55    1
SMALL
USER_CHARGES


@<TRIPOS>ATOM
      1 C1          2.3623   55.6215   29.1705 C.3       1 UNK         0.0000 
      2 C2          3.1343   54.2840   29.1585 C.3       1 UNK         0.0000 
      3 H3          3.3574   54.0472   30.1985 H         1 UNK         0.0000 
      4 C4          2.3207   53.0852   28.6287 C.3       1 UNK         0.0000 
      5 C5          1.9061   53.2705   27.1530 C.3       1 UNK         0.0000 
      6 C6          3.1208   53.7092   26.3274 C.2       1 UNK         0.0000 
      7 C7          4.2853   54.2076   26.9273 C.2       1 UNK         0.0000 
      8 S8          5.5658   54.5769   25.7972 S.3       1 UNK         0.0000 
      9 C9          4.5400   54.0974   24.4658 C.ar      1 UNK         0.0000 
     10 C10         3.2353   53.6906   24.8925 C.ar      1 UNK         0.0000 
     11 C11         2.3622   53.3073   23.8376 C.ar      1 UNK         0.0000 
     12 N12         2.7795   53.3012   22.5466 N.ar      1 UNK         0.0000 
     13 C13         4.0467   53.6995   22.2973 C.ar      1 UNK         0.0000 
     14 N14         4.9691   54.1074   23.2003 N.ar      1 UNK         0.0000 
     15 S15         0.6924   52.7834   24.1400 S.3       1 UNK         0.0000 
     16 C16         0.1688   51.5564   22.8876 C.3       1 UNK         0.0000 
     17 H17         0.9650   50.8111   22.8421 H         1 UNK         0.0000 
     18 C18        -0.0204   52.1054   21.4528 C.3       1 UNK         0.0000 
     19 C19        -1.1150   50.8508   23.3762 C.2       1 UNK         0.0000 
     20 O20        -2.2117   51.3496   23.1157 O.2       1 UNK         0.0000 
     21 N21        -0.9361   49.7081   24.0771 N.am      1 UNK         0.0000 
     22 C22        -1.8869   48.8399   24.6530 C.ar      1 UNK         0.0000 
     23 C23        -1.3704   47.6971   25.2661 C.ar      1 UNK         0.0000 
     24 C24        -2.2159   46.7829   25.8927 C.ar      1 UNK         0.0000 
     25 C25        -3.5921   47.0068   25.9091 C.ar      1 UNK         0.0000 
     26 C26        -4.1202   48.1396   25.2849 C.ar      1 UNK         0.0000 
     27 C27        -3.2746   49.0536   24.6596 C.ar      1 UNK         0.0000 
     28 S28        -4.6834   45.8459   26.7340 S.o2      1 UNK         0.0000 
     29 O29        -6.0075   46.4712   26.8052 O.2       1 UNK         0.0000 
     30 O30        -4.4953   44.5458   26.0811 O.2       1 UNK         0.0000 
     31 N31        -4.0955   45.7001   28.3717 N.pl3     1 UNK         0.0000 
     32 C32         4.4996   54.3529   28.4328 C.3       1 UNK         0.0000 
     33 H33         2.1479   55.9721   28.1605 H         1 UNK         0.0000 
     34 H34         1.4106   55.5240   29.6941 H         1 UNK         0.0000 
     35 H35         2.9288   56.4048   29.6742 H         1 UNK         0.0000 
     36 H36         2.8992   52.1652   28.7309 H         1 UNK         0.0000 
     37 H37         1.4158   52.9544   29.2239 H         1 UNK         0.0000 
     38 H38         1.1048   54.0045   27.0705 H         1 UNK         0.0000 
     39 H39         1.5030   52.3236   26.7919 H         1 UNK         0.0000 
     40 H40         4.3537   53.6950   21.2613 H         1 UNK         0.0000 
     41 H41        -0.3485   51.3231   20.7664 H         1 UNK         0.0000 
     42 H42        -0.7687   52.8956   21.4234 H         1 UNK         0.0000 
     43 H43         0.8968   52.5142   21.0338 H         1 UNK         0.0000 
     44 H44         0.0199   49.4267   24.2317 H         1 UNK         0.0000 
     45 H45        -0.3046   47.5212   25.2809 H         1 UNK         0.0000 
     46 H46        -1.7908   45.9258   26.3944 H         1 UNK         0.0000 
     47 H47        -5.1845   48.3245   25.2896 H         1 UNK         0.0000 
     48 H48        -3.7249   49.9209   24.2070 H         1 UNK         0.0000 
     49 H49        -3.3313   45.0105   28.4818 H         1 UNK         0.0000 
     50 H50        -3.8399   46.6058   28.7788 H         1 UNK         0.0000 
     51 H51         5.1451   53.5527   28.7964 H         1 UNK         0.0000 
     52 H52         5.0145   55.2847   28.6700 H         1 UNK         0.0000 
@<TRIPOS>BOND
     1    1    2 1    
     2    1   33 1    
     3    1   34 1    
     4    1   35 1    
     5    2    3 1    
     6    2   32 1    
     7    2    4 1    
     8    4    5 1    
     9    4   36 1    
    10    4   37 1    
    11    5    6 1    
    12    5   38 1    
    13    5   39 1    
    14    6   10 1    
    15    6    7 2    
    16    7    8 1    
    17    7   32 1    
    18    8    9 1    
    19    9   14 ar   
    20    9   10 ar   
    21   10   11 ar   
    22   11   12 ar   
    23   11   15 1    
    24   12   13 ar   
    25   13   14 ar   
    26   13   40 1    
    27   15   16 1    
    28   16   17 1    
    29   16   18 1    
    30   16   19 1    
    31   18   41 1    
    32   18   42 1    
    33   18   43 1    
    34   19   20 2    
    35   19   21 am   BACKBONE|DICT|INTERRES
    36   21   22 1    
    37   21   44 1    
    38   22   27 ar   
    39   22   23 ar   
    40   23   24 ar   
    41   23   45 1    
    42   24   25 ar   
    43   24   46 1    
    44   25   26 ar   
    45   25   28 1    
    46   26   27 ar   
    47   26   47 1    
    48   27   48 1    
    49   28   29 2    
    50   28   30 2    
    51   28   31 1    
    52   31   49 1    
    53   31   50 1    
    54   32   51 1    
    55   32   52 1    
@<TRIPOS>SUBSTRUCTURE
     1 UNK         1 GROUP             0       ****    0 ROOT    
