@<TRIPOS>MOLECULE
ZINC39779855_2684
48   51    1
SMALL
USER_CHARGES


@<TRIPOS>ATOM
      1 C1          4.7034   54.7397   26.9902 C.3       1 UNK         0.0000 
      2 C2          3.7154   54.0576   27.9764 C.3       1 UNK         0.0000 
      3 C3          4.5637   53.0803   28.8300 C.3       1 UNK         0.0000 
      4 C4          3.1116   55.1379   28.9014 C.3       1 UNK         0.0000 
      5 C5          2.5589   53.3153   27.2611 C.ar      1 UNK         0.0000 
      6 C6          2.2882   53.5048   25.8967 C.ar      1 UNK         0.0000 
      7 C7          1.2332   52.8402   25.2801 C.ar      1 UNK         0.0000 
      8 C8          0.4397   51.9597   26.0120 C.ar      1 UNK         0.0000 
      9 C9          0.6907   51.7646   27.3705 C.ar      1 UNK         0.0000 
     10 C10         1.7316   52.4472   27.9913 C.ar      1 UNK         0.0000 
     11 C11        -0.6487   51.2139   25.3199 C.ar      1 UNK         0.0000 
     12 N12        -1.5524   51.7680   24.5457 N.2       1 UNK         0.0000 
     13 N13        -2.3549   50.7408   24.0597 N.2       1 UNK         0.0000 
     14 C14        -1.8596   49.6044   24.4946 C.ar      1 UNK         0.0000 
     15 N15        -0.8178   49.8465   25.3598 N.pl3     1 UNK         0.0000 
     16 N16        -0.0810   48.9210   26.0741 N.3       1 UNK         0.0000 
     17 S17        -2.3962   47.9886   24.0014 S.3       1 UNK         0.0000 
     18 C18        -2.7640   48.1781   22.2082 C.3       1 UNK         0.0000 
     19 C19        -1.8173   49.0946   21.4311 C.2       1 UNK         0.0000 
     20 N20        -2.3692   50.1593   20.9599 N.am      1 UNK         0.0000 
     21 C21        -1.5986   51.1184   20.2946 C.2       1 UNK         0.0000 
     22 O22        -2.0219   52.0982   19.6815 O.2       1 UNK         0.0000 
     23 C23        -0.0574   50.9166   20.4457 C.3       1 UNK         0.0000 
     24 H24         0.2206   51.5630   21.2767 H         1 UNK         0.0000 
     25 C25         0.3279   49.4720   20.7511 C.2       1 UNK         0.0000 
     26 N26        -0.4976   48.6572   21.2966 N.2       1 UNK         0.0000 
     27 C27         1.6608   49.1905   20.3412 C.2       1 UNK         0.0000 
     28 C28         2.1380   50.1044   19.4712 C.2       1 UNK         0.0000 
     29 S29         0.9712   51.3830   19.0447 S.3       1 UNK         0.0000 
     30 H30         5.5091   55.2532   27.5169 H         1 UNK         0.0000 
     31 H31         4.2151   55.4906   26.3706 H         1 UNK         0.0000 
     32 H32         5.1666   54.0121   26.3206 H         1 UNK         0.0000 
     33 H33         4.0001   52.6332   29.6477 H         1 UNK         0.0000 
     34 H34         4.9655   52.2687   28.2245 H         1 UNK         0.0000 
     35 H35         5.4162   53.5871   29.2800 H         1 UNK         0.0000 
     36 H36         2.4652   54.7048   29.6658 H         1 UNK         0.0000 
     37 H37         3.8905   55.6952   29.4199 H         1 UNK         0.0000 
     38 H38         2.5113   55.8566   28.3408 H         1 UNK         0.0000 
     39 H39         2.8799   54.1649   25.2826 H         1 UNK         0.0000 
     40 H40         1.0489   52.9972   24.2268 H         1 UNK         0.0000 
     41 H41         0.0736   51.0884   27.9471 H         1 UNK         0.0000 
     42 H42         1.8895   52.2911   29.0464 H         1 UNK         0.0000 
     43 H43        -0.6190   48.5190   26.8476 H         1 UNK         0.0000 
     44 H44         0.3570   48.2197   25.4923 H         1 UNK         0.0000 
     45 H45        -2.7266   47.1831   21.7639 H         1 UNK         0.0000 
     46 H46        -3.8016   48.5055   22.1184 H         1 UNK         0.0000 
     47 H47         2.2047   48.2972   20.6088 H         1 UNK         0.0000 
     48 H48         3.1021   50.0755   18.9772 H         1 UNK         0.0000 
@<TRIPOS>BOND
     1    1    2 1    
     2    1   30 1    
     3    1   31 1    
     4    1   32 1    
     5    2    3 1    
     6    2    4 1    
     7    2    5 1    
     8    3   33 1    
     9    3   34 1    
    10    3   35 1    
    11    4   36 1    
    12    4   37 1    
    13    4   38 1    
    14    5   10 ar   
    15    5    6 ar   
    16    6    7 ar   
    17    6   39 1    
    18    7    8 ar   
    19    7   40 1    
    20    8    9 ar   
    21    8   11 1    
    22    9   10 ar   
    23    9   41 1    
    24   10   42 1    
    25   11   15 ar   
    26   11   12 ar   
    27   12   13 ar   
    28   13   14 ar   
    29   14   15 ar   
    30   14   17 1    
    31   15   16 1    
    32   16   43 1    
    33   16   44 1    
    34   17   18 1    
    35   18   19 1    
    36   18   45 1    
    37   18   46 1    
    38   19   26 1    
    39   19   20 2    
    40   20   21 am   BACKBONE|DICT|INTERRES
    41   21   22 2    
    42   21   23 1    
    43   23   24 1    
    44   23   29 1    
    45   23   25 1    
    46   25   26 2    
    47   25   27 1    
    48   27   28 2    
    49   27   47 1    
    50   28   29 1    
    51   28   48 1    
@<TRIPOS>SUBSTRUCTURE
     1 UNK         1 GROUP             0       ****    0 ROOT    
