@<TRIPOS>MOLECULE
ZINC56899395_1338
59   61    1
SMALL
USER_CHARGES


@<TRIPOS>ATOM
      1 C1          7.0206   53.6979   28.2494 C.3       1 UNK         0.0000 
      2 C2          5.6474   54.3828   28.0880 C.3       1 UNK         0.0000 
      3 H3          5.7656   55.4198   28.4004 H         1 UNK         0.0000 
      4 C4          5.2278   54.3822   26.6055 C.ar      1 UNK         0.0000 
      5 C5          6.0931   54.8767   25.6223 C.ar      1 UNK         0.0000 
      6 C6          5.7768   54.7447   24.2694 C.ar      1 UNK         0.0000 
      7 C7          4.5768   54.1334   23.8716 C.ar      1 UNK         0.0000 
      8 C8          3.6981   53.6968   24.8676 C.ar      1 UNK         0.0000 
      9 C9          4.0119   53.8342   26.2034 C.ar      1 UNK         0.0000 
     10 N10         4.2511   53.9141   22.5352 N.pl3     1 UNK         0.0000 
     11 C11         2.8519   53.8862   22.0810 C.3       1 UNK         0.0000 
     12 C12         2.5720   52.8042   21.0204 C.3       1 UNK         0.0000 
     13 N13         3.5024   53.0275   19.8159 N.4       1 UNK         0.0000 
     14 C14         4.9740   53.0128   20.2774 C.3       1 UNK         0.0000 
     15 C15         5.1821   54.0617   21.3984 C.3       1 UNK         0.0000 
     16 C16         3.2403   51.9397   18.7499 C.3       1 UNK         0.0000 
     17 N17         4.6917   53.7480   29.0147 N.am      1 UNK         0.0000 
     18 C18         3.4716   54.1994   29.3891 C.2       1 UNK         0.0000 
     19 O19         3.1550   55.3810   29.2710 O.2       1 UNK         0.0000 
     20 N20         2.6668   53.2847   30.0010 N.am      1 UNK         0.0000 
     21 C21         2.7650   51.8386   29.7020 C.3       1 UNK         0.0000 
     22 C22         1.7643   51.5376   28.5642 C.3       1 UNK         0.0000 
     23 C23         0.3226   51.8656   28.9971 C.3       1 UNK         0.0000 
     24 C24         0.2810   53.3626   29.3853 C.3       1 UNK         0.0000 
     25 C25         1.3235   53.6889   30.4876 C.3       1 UNK         0.0000 
     26 C26        -0.7109   51.4616   27.9203 C.3       1 UNK         0.0000 
     27 O27        -1.9979   51.2966   28.4812 O.3       1 UNK         0.0000 
     28 H28         7.7965   54.2138   27.6871 H         1 UNK         0.0000 
     29 H29         7.3584   53.6983   29.2818 H         1 UNK         0.0000 
     30 H30         6.9951   52.6623   27.9089 H         1 UNK         0.0000 
     31 H31         7.0283   55.3374   25.8955 H         1 UNK         0.0000 
     32 H32         6.4813   55.1220   23.5435 H         1 UNK         0.0000 
     33 H33         2.7761   53.1861   24.6431 H         1 UNK         0.0000 
     34 H34         3.3040   53.4533   26.9089 H         1 UNK         0.0000 
     35 H35         2.1107   53.8158   22.8735 H         1 UNK         0.0000 
     36 H36         2.7044   54.8860   21.6817 H         1 UNK         0.0000 
     37 H37         1.5543   52.8975   20.6370 H         1 UNK         0.0000 
     38 H38         2.7285   51.7941   21.4021 H         1 UNK         0.0000 
     39 H39         5.5597   53.2678   19.3930 H         1 UNK         0.0000 
     40 H40         5.2157   51.9979   20.6007 H         1 UNK         0.0000 
     41 H41         4.9791   55.0547   20.9920 H         1 UNK         0.0000 
     42 H42         6.2228   54.0884   21.7167 H         1 UNK         0.0000 
     43 H43         3.4494   50.9678   19.2026 H         1 UNK         0.0000 
     44 H44         2.1968   52.0166   18.4410 H         1 UNK         0.0000 
     45 H45         3.9041   52.1164   17.9005 H         1 UNK         0.0000 
     46 H46         4.9269   52.8041   29.2746 H         1 UNK         0.0000 
     47 H47         2.4575   51.3165   30.6089 H         1 UNK         0.0000 
     48 H48         3.7828   51.4861   29.5267 H         1 UNK         0.0000 
     49 H49         1.8454   50.4962   28.2886 H         1 UNK         0.0000 
     50 H50         2.0072   52.0519   27.6384 H         1 UNK         0.0000 
     51 H51         0.1183   51.2970   29.9045 H         1 UNK         0.0000 
     52 H52         0.4425   53.9919   28.5077 H         1 UNK         0.0000 
     53 H53        -0.7175   53.6239   29.7344 H         1 UNK         0.0000 
     54 H54         1.1138   53.0926   31.3770 H         1 UNK         0.0000 
     55 H55         1.2908   54.7220   30.8390 H         1 UNK         0.0000 
     56 H56        -0.4426   50.5058   27.4686 H         1 UNK         0.0000 
     57 H57        -0.7434   52.1957   27.1137 H         1 UNK         0.0000 
     58 H58        -2.0955   50.3624   28.7265 H         1 UNK         0.0000 
     59 H59         3.2901   53.9416   19.4325 H         1 UNK         0.0000 
@<TRIPOS>BOND
     1    1    2 1    
     2    1   28 1    
     3    1   29 1    
     4    1   30 1    
     5    2    3 1    
     6    2    4 1    
     7    2   17 1    
     8    4    9 ar   
     9    4    5 ar   
    10    5    6 ar   
    11    5   31 1    
    12    6    7 ar   
    13    6   32 1    
    14    7    8 ar   
    15    7   10 1    
    16    8    9 ar   
    17    8   33 1    
    18    9   34 1    
    19   10   15 1    
    20   10   11 1    
    21   11   12 1    
    22   11   35 1    
    23   11   36 1    
    24   12   13 1    
    25   12   37 1    
    26   12   38 1    
    27   13   14 1    
    28   13   16 1    
    29   13   59 1    
    30   14   15 1    
    31   14   39 1    
    32   14   40 1    
    33   15   41 1    
    34   15   42 1    
    35   16   43 1    
    36   16   44 1    
    37   16   45 1    
    38   17   18 am   BACKBONE|DICT|INTERRES
    39   17   46 1    
    40   18   19 2    
    41   18   20 am   BACKBONE|DICT|INTERRES
    42   20   25 1    
    43   20   21 1    
    44   21   22 1    
    45   21   47 1    
    46   21   48 1    
    47   22   23 1    
    48   22   49 1    
    49   22   50 1    
    50   23   24 1    
    51   23   26 1    
    52   23   51 1    
    53   24   25 1    
    54   24   52 1    
    55   24   53 1    
    56   25   54 1    
    57   25   55 1    
    58   26   27 1    
    59   26   56 1    
    60   26   57 1    
    61   27   58 1    
@<TRIPOS>SUBSTRUCTURE
     1 UNK         1 GROUP             0       ****    0 ROOT    
