@<TRIPOS>MOLECULE
ZINC09064654_53
47   49    1
SMALL
USER_CHARGES


@<TRIPOS>ATOM
      1 C1          0.6759   49.6449   24.1493 C.ar      1 UNK         0.0000 
      2 C2          0.1274   50.4936   23.1884 C.ar      1 UNK         0.0000 
      3 C3         -0.8119   51.4554   23.5613 C.ar      1 UNK         0.0000 
      4 C4         -1.1970   51.5819   24.8972 C.ar      1 UNK         0.0000 
      5 C5         -0.6281   50.7420   25.8652 C.ar      1 UNK         0.0000 
      6 C6          0.2948   49.7600   25.4865 C.ar      1 UNK         0.0000 
      7 N7         -0.9629   50.8967   27.2167 N.pl3     1 UNK         0.0000 
      8 C8         -0.2104   51.4745   28.1939 C.2       1 UNK         0.0000 
      9 S9         -0.8956   51.6967   29.6817 S.2       1 UNK         0.0000 
     10 N10         1.0533   51.8407   27.8401 N.am      1 UNK         0.0000 
     11 C11         2.0360   52.4577   28.5318 C.2       1 UNK         0.0000 
     12 O12         2.2301   52.3842   29.7498 O.2       1 UNK         0.0000 
     13 C13         2.9907   53.1858   27.6427 C.ar      1 UNK         0.0000 
     14 C14         2.5994   53.6488   26.3761 C.ar      1 UNK         0.0000 
     15 C15         3.5535   54.0968   25.4793 C.ar      1 UNK         0.0000 
     16 C16         4.8997   54.0966   25.8368 C.ar      1 UNK         0.0000 
     17 C17         5.2632   53.8367   27.1673 C.ar      1 UNK         0.0000 
     18 C18         4.3100   53.3507   28.0563 C.ar      1 UNK         0.0000 
     19 N19         6.5982   54.1545   27.6695 N.pl3     1 UNK         0.0000 
     20 O20         7.1044   55.1960   27.2816 O.co2     1 UNK         0.0000 
     21 O21         7.1044   53.3993   28.4816 O.co2     1 UNK         0.0000 
     22 N22         5.8067   54.2844   24.8152 N.pl3     1 UNK         0.0000 
     23 C23         5.9626   55.5526   24.1704 C.3       1 UNK         0.0000 
     24 C24         6.0840   55.2967   22.6400 C.3       1 UNK         0.0000 
     25 C25         7.3882   54.6727   22.3631 C.3       1 UNK         0.0000 
     26 C26         7.5043   53.4243   23.2817 C.3       1 UNK         0.0000 
     27 C27         7.1275   53.7342   24.7435 C.3       1 UNK         0.0000 
     28 Br28       -2.4987   52.8965   25.3623 Br        1 UNK         0.0000 
     29 H29         1.3973   48.8966   23.8567 H         1 UNK         0.0000 
     30 H30         0.4251   50.4004   22.1539 H         1 UNK         0.0000 
     31 H31        -1.2432   52.1028   22.8123 H         1 UNK         0.0000 
     32 H32         0.7201   49.0940   26.2262 H         1 UNK         0.0000 
     33 H33        -1.8791   50.5670   27.4888 H         1 UNK         0.0000 
     34 H34         1.2013   51.8441   26.8433 H         1 UNK         0.0000 
     35 H35         1.5739   53.5934   26.0373 H         1 UNK         0.0000 
     36 H36         3.2553   54.3469   24.4708 H         1 UNK         0.0000 
     37 H37         4.6102   53.0796   29.0606 H         1 UNK         0.0000 
     38 H38         6.8052   56.1339   24.5535 H         1 UNK         0.0000 
     39 H39         5.1043   56.0967   24.4817 H         1 UNK         0.0000 
     40 H40         6.0899   56.2135   22.0566 H         1 UNK         0.0000 
     41 H41         5.2526   54.6935   22.2683 H         1 UNK         0.0000 
     42 H42         7.4335   54.4968   21.2941 H         1 UNK         0.0000 
     43 H43         8.1503   55.4341   22.4817 H         1 UNK         0.0000 
     44 H44         6.8644   52.6350   22.8817 H         1 UNK         0.0000 
     45 H45         8.5180   53.0239   23.2817 H         1 UNK         0.0000 
     46 H46         7.8534   54.4623   25.1165 H         1 UNK         0.0000 
     47 H47         7.2323   52.8967   25.4085 H         1 UNK         0.0000 
@<TRIPOS>BOND
     1    1    6 ar   
     2    1    2 ar   
     3    1   29 1    
     4    2    3 ar   
     5    2   30 1    
     6    3    4 ar   
     7    3   31 1    
     8    4    5 ar   
     9    4   28 1    
    10    5    6 ar   
    11    5    7 1    
    12    6   32 1    
    13    7    8 1    
    14    7   33 1    
    15    8    9 2    
    16    8   10 am   BACKBONE|DICT|INTERRES
    17   10   11 am   BACKBONE|DICT|INTERRES
    18   10   34 1    
    19   11   12 2    
    20   11   13 1    
    21   13   18 ar   
    22   13   14 ar   
    23   14   15 ar   
    24   14   35 1    
    25   15   16 ar   
    26   15   36 1    
    27   16   17 ar   
    28   16   22 1    
    29   17   18 ar   
    30   17   19 1    
    31   18   37 1    
    32   19   20 2    
    33   19   21 1    
    34   22   27 1    
    35   22   23 1    
    36   23   24 1    
    37   23   38 1    
    38   23   39 1    
    39   24   25 1    
    40   24   40 1    
    41   24   41 1    
    42   25   26 1    
    43   25   42 1    
    44   25   43 1    
    45   26   27 1    
    46   26   44 1    
    47   26   45 1    
    48   27   46 1    
    49   27   47 1    
@<TRIPOS>SUBSTRUCTURE
     1 UNK         1 GROUP             0       ****    0 ROOT    
