@<TRIPOS>MOLECULE
ZINC14740944_113
66   70    1
SMALL
USER_CHARGES


@<TRIPOS>ATOM
      1 C1          1.4665   56.0768   30.4817 C.3       1 UNK         0.0000 
      2 N2          1.8388   55.1160   29.4544 N.pl3     1 UNK         0.0000 
      3 C3          1.1601   54.0015   29.0547 C.ar      1 UNK         0.0000 
      4 C4          1.8127   53.5644   27.9008 C.ar      1 UNK         0.0000 
      5 C5          2.9322   54.4245   27.7588 C.ar      1 UNK         0.0000 
      6 N6          2.9548   55.2967   28.7476 N.2       1 UNK         0.0000 
      7 C7          4.0075   54.3583   26.7739 C.2       1 UNK         0.0000 
      8 O8          5.1675   54.4967   27.1756 O.2       1 UNK         0.0000 
      9 N9          3.7188   54.1985   25.4448 N.am      1 UNK         0.0000 
     10 C10         2.3969   54.4457   24.8375 C.3       1 UNK         0.0000 
     11 C11         2.1415   53.2743   23.8718 C.3       1 UNK         0.0000 
     12 C12         3.1776   53.2967   22.7653 C.ar      1 UNK         0.0000 
     13 C13         2.8655   52.8966   21.4621 C.ar      1 UNK         0.0000 
     14 C14         3.8241   52.9351   20.4543 C.ar      1 UNK         0.0000 
     15 C15         5.1044   53.3906   20.7430 C.ar      1 UNK         0.0000 
     16 C16         5.4284   53.7833   22.0413 C.ar      1 UNK         0.0000 
     17 C17         4.4814   53.7353   23.0677 C.ar      1 UNK         0.0000 
     18 C18         4.8498   54.2013   24.4832 C.3       1 UNK         0.0000 
     19 C19         1.3467   52.3322   27.1461 C.3       1 UNK         0.0000 
     20 C20         0.3344   51.5461   27.9947 C.3       1 UNK         0.0000 
     21 H21         0.9018   50.9770   28.7354 H         1 UNK         0.0000 
     22 C22        -0.7183   52.3817   28.7344 C.3       1 UNK         0.0000 
     23 C23        -0.0957   53.4211   29.6936 C.3       1 UNK         0.0000 
     24 C24        -1.2711   50.9251   25.9441 C.3       1 UNK         0.0000 
     25 C25        -2.6206   50.1678   26.0172 C.3       1 UNK         0.0000 
     26 C26        -3.4280   50.4976   27.3145 C.3       1 UNK         0.0000 
     27 C27        -4.9265   50.1340   27.3226 C.3       1 UNK         0.0000 
     28 C28        -5.6456   50.6028   26.0532 C.3       1 UNK         0.0000 
     29 C29        -4.9747   50.0031   24.8128 C.3       1 UNK         0.0000 
     30 C30        -3.4739   50.3531   24.7252 C.3       1 UNK         0.0000 
     31 O31        -2.4864   48.7535   26.0817 O.3       1 UNK         0.0000 
     32 H32         1.1043   55.5553   31.3669 H         1 UNK         0.0000 
     33 H33         2.3044   56.7161   30.7515 H         1 UNK         0.0000 
     34 H34         0.6783   56.7169   30.0920 H         1 UNK         0.0000 
     35 H35         1.5982   54.4963   25.5696 H         1 UNK         0.0000 
     36 H36         2.3732   55.3825   24.2819 H         1 UNK         0.0000 
     37 H37         1.1431   53.3688   23.4429 H         1 UNK         0.0000 
     38 H38         2.1722   52.3145   24.3876 H         1 UNK         0.0000 
     39 H39         1.8678   52.5593   21.2229 H         1 UNK         0.0000 
     40 H40         3.5737   52.6232   19.4501 H         1 UNK         0.0000 
     41 H41         5.8460   53.4339   19.9584 H         1 UNK         0.0000 
     42 H42         6.4276   54.1355   22.2524 H         1 UNK         0.0000 
     43 H43         5.6713   53.5892   24.8602 H         1 UNK         0.0000 
     44 H44         5.2442   55.2166   24.4216 H         1 UNK         0.0000 
     45 H45         0.8744   52.6289   26.2145 H         1 UNK         0.0000 
     46 H46         2.1868   51.7002   26.8817 H         1 UNK         0.0000 
     47 H47        -1.4431   51.7469   29.2477 H         1 UNK         0.0000 
     48 H48        -1.2956   52.8967   27.9726 H         1 UNK         0.0000 
     49 H49         0.1699   52.9219   30.6272 H         1 UNK         0.0000 
     50 H50        -0.8172   54.1938   29.9523 H         1 UNK         0.0000 
     51 H51        -1.3991   52.0060   25.9817 H         1 UNK         0.0000 
     52 H52        -0.7068   50.6758   25.0442 H         1 UNK         0.0000 
     53 H53        -2.9403   50.0967   28.2040 H         1 UNK         0.0000 
     54 H54        -3.3657   51.5756   27.4678 H         1 UNK         0.0000 
     55 H55        -5.0306   49.0516   27.4190 H         1 UNK         0.0000 
     56 H56        -5.4075   50.5593   28.2046 H         1 UNK         0.0000 
     57 H57        -6.6954   50.3074   26.0887 H         1 UNK         0.0000 
     58 H58        -5.6337   51.6924   25.9958 H         1 UNK         0.0000 
     59 H59        -5.0863   48.9175   24.8335 H         1 UNK         0.0000 
     60 H60        -5.4881   50.3398   23.9110 H         1 UNK         0.0000 
     61 H61        -3.4065   51.4033   24.4374 H         1 UNK         0.0000 
     62 H62        -3.0138   49.8309   23.8836 H         1 UNK         0.0000 
     63 H63        -2.1957   48.4967   26.9871 H         1 UNK         0.0000 
     64 N64        -0.3501   50.4967   27.1070 N.4       1 UNK         0.0000 
     65 H65         0.3644   49.8984   26.7152 H         1 UNK         0.0000 
     66 H66        -0.8956   49.8747   27.7050 H         1 UNK         0.0000 
@<TRIPOS>BOND
     1    1    2 1    
     2    1   32 1    
     3    1   33 1    
     4    1   34 1    
     5    2    6 ar   
     6    2    3 ar   
     7    3   23 1    
     8    3    4 ar   
     9    4    5 ar   
    10    4   19 1    
    11    5    6 ar   
    12    5    7 1    
    13    7    8 2    
    14    7    9 am   BACKBONE|DICT|INTERRES
    15    9   18 1    
    16    9   10 1    
    17   10   11 1    
    18   10   35 1    
    19   10   36 1    
    20   11   12 1    
    21   11   37 1    
    22   11   38 1    
    23   12   17 ar   
    24   12   13 ar   
    25   13   14 ar   
    26   13   39 1    
    27   14   15 ar   
    28   14   40 1    
    29   15   16 ar   
    30   15   41 1    
    31   16   17 ar   
    32   16   42 1    
    33   17   18 1    
    34   18   43 1    
    35   18   44 1    
    36   19   20 1    
    37   19   45 1    
    38   19   46 1    
    39   20   21 1    
    40   20   22 1    
    41   20   64 1    
    42   22   23 1    
    43   22   47 1    
    44   22   48 1    
    45   23   49 1    
    46   23   50 1    
    47   24   25 1    
    48   24   51 1    
    49   24   52 1    
    50   24   64 1    
    51   25   30 1    
    52   25   26 1    
    53   25   31 1    
    54   26   27 1    
    55   26   53 1    
    56   26   54 1    
    57   27   28 1    
    58   27   55 1    
    59   27   56 1    
    60   28   29 1    
    61   28   57 1    
    62   28   58 1    
    63   29   30 1    
    64   29   59 1    
    65   29   60 1    
    66   30   61 1    
    67   30   62 1    
    68   31   63 1    
    69   64   65 1    
    70   64   66 1    
@<TRIPOS>SUBSTRUCTURE
     1 UNK         1 GROUP             0       ****    0 ROOT    
