ZINC04387637_4667
                    3D
 Schrodinger Suite 2024-2.
 34 35  0  0  1  0            999 V2000
    1.6166   53.8010   23.5947 C   0  0  0  0  0  0
    1.9260   52.5023   22.8784 C   0  0  0  0  0  0
    2.6591   52.4597   21.6819 C   0  0  0  0  0  0
    2.8014   51.1949   21.1476 C   0  0  0  0  0  0
    1.9889   50.0191   22.1060 S   0  0  0  0  0  0
    1.4511   51.2259   23.2489 C   0  0  0  0  0  0
    0.5977   50.7689   24.4334 C   0  0  2  0  0  0
    1.0287   49.8172   24.7553 H   0  0  0  0  0  0
   -0.9131   50.5177   24.1325 C   0  0  1  0  0  0
   -0.9682   49.7088   23.4036 H   0  0  0  0  0  0
   -1.6547   50.0168   25.4265 C   0  0  1  0  0  0
   -1.2581   50.8912   26.5529 N   0  0  0  0  0  0
   -0.0772   51.5310   26.7160 C   0  0  0  0  0  0
    0.2881   51.9578   27.8058 O   0  0  0  0  0  0
    0.7040   51.6344   25.6189 N   0  0  0  0  0  0
   -3.2100   49.8597   25.3052 C   0  0  0  0  0  0
   -3.8432   51.0303   25.2130 F   0  0  0  0  0  0
   -3.7333   49.2476   26.3704 F   0  0  0  0  0  0
   -3.5531   49.1438   24.2312 F   0  0  0  0  0  0
   -1.1646   48.7058   25.6817 O   0  0  0  0  0  0
   -1.5739   51.7346   23.4353 C   0  0  0  0  0  0
   -1.8701   52.7663   24.0362 O   0  0  0  0  0  0
   -1.8657   51.6011   21.9471 C   0  0  0  0  0  0
    1.6851   54.6622   22.9293 H   0  0  0  0  0  0
    0.6008   53.8213   23.9875 H   0  0  0  0  0  0
    2.2856   53.9699   24.4385 H   0  0  0  0  0  0
    3.0807   53.3401   21.2181 H   0  0  0  0  0  0
    3.3219   50.9070   20.2435 H   0  0  0  0  0  0
   -1.7583   50.7416   27.4175 H   0  0  0  0  0  0
    1.5833   52.1033   25.7712 H   0  0  0  0  0  0
   -1.2917   48.5020   26.6282 H   0  0  0  0  0  0
   -2.5139   50.7449   21.7626 H   0  0  0  0  0  0
   -2.3666   52.4960   21.5821 H   0  0  0  0  0  0
   -0.9366   51.4775   21.3909 H   0  0  0  0  0  0
  1  2  1  0  0  0
  1 24  1  0  0  0
  1 25  1  0  0  0
  1 26  1  0  0  0
  2  6  2  0  0  0
  2  3  1  0  0  0
  3  4  2  0  0  0
  3 27  1  0  0  0
  4  5  1  0  0  0
  4 28  1  0  0  0
  5  6  1  0  0  0
  6  7  1  0  0  0
  7  8  1  0  0  0
  7 15  1  0  0  0
  7  9  1  0  0  0
  9 10  1  0  0  0
  9 11  1  0  0  0
  9 21  1  0  0  0
 11 12  1  0  0  0
 11 16  1  0  0  0
 11 20  1  0  0  0
 12 13  1  0  0  0
 12 29  1  0  0  0
 13 14  2  0  0  0
 13 15  1  0  0  0
 15 30  1  0  0  0
 16 17  1  0  0  0
 16 18  1  0  0  0
 16 19  1  0  0  0
 20 31  1  0  0  0
 21 22  2  0  0  0
 21 23  1  0  0  0
 23 32  1  0  0  0
 23 33  1  0  0  0
 23 34  1  0  0  0
M  END
> <i_i_glide_confnum>
3

> <i_i_glide_lignum>
4668

> <i_i_glide_posenum>
267

> <i_i_glide_rotatable_bonds>
4

> <i_m_Source_File_Index>
2121

> <b_m_subgroup_collapsed>
0

> <r_i_docking_score>
-4.4871

> <r_i_glide_ecoul>
-6.28393

> <r_i_glide_eff_state_penalty>
0

> <r_i_glide_einternal>
2.44424

> <r_i_glide_emodel>
-39.743

> <r_i_glide_energy>
-31.6601

> <r_i_glide_erotb>
0.180001

> <r_i_glide_esite>
-0.232706

> <r_i_glide_evdw>
-25.3762

> <r_i_glide_gscore>
-4.4871

> <r_i_glide_hbond>
-0.16

> <r_i_glide_ligand_efficiency>
-0.213671

> <r_i_glide_ligand_efficiency_ln>
-1.10943

> <r_i_glide_ligand_efficiency_sa>
-0.589503

> <r_i_glide_lipo>
-0.835459

> <r_i_glide_metal>
0

> <r_i_glide_rewards>
-1.22754

> <s_i_glide_gridfile>
wee1_glide-grid

> <s_m_Source_File>
wee1_decoys_glide_SP.sdf

> <s_m_Source_Path>
/Users/zhangxujun/Desktop

> <s_m_entry_id>
2396

> <s_m_entry_name>
wee1_decoys_glide_SP.2121

> <s_m_subgroup_title>
wee1_decoys_glide_SP

> <s_m_subgroupid>
wee1_decoys_glide_SP


$$$$
