ZINC33058241_4490
                    3D
 Schrodinger Suite 2024-2.
 52 55  0  0  1  0            999 V2000
    6.5022   54.3357   27.1295 C   0  0  0  0  0  0
    5.8240   55.2889   26.3188 O   0  0  0  0  0  0
    5.6740   54.9118   25.0050 C   0  0  0  0  0  0
    6.6706   55.2655   24.0958 C   0  0  0  0  0  0
    6.5686   54.8959   22.7571 C   0  0  0  0  0  0
    5.4562   54.1796   22.3208 C   0  0  0  0  0  0
    4.4409   53.8468   23.2186 C   0  0  0  0  0  0
    4.5297   54.2186   24.5692 C   0  0  0  0  0  0
    3.5654   53.8932   25.5424 N   0  0  0  0  0  0
    2.3219   53.3016   25.4960 C   0  0  0  0  0  0
    1.7076   52.6490   26.5672 C   0  0  0  0  0  0
    0.4679   52.0965   26.2039 C   0  0  0  0  0  0
    0.1117   52.3371   24.8736 C   0  0  0  0  0  0
    1.3029   53.3232   24.0852 S   0  0  0  0  0  0
   -1.0418   51.8977   24.0886 C   0  0  0  0  0  0
   -1.6725   52.7317   23.4336 O   0  0  0  0  0  0
   -1.4369   50.4461   24.1034 C   0  0  0  0  0  0
   -0.5714   49.4468   24.5821 C   0  0  0  0  0  0
   -0.9547   48.1090   24.5621 C   0  0  0  0  0  0
   -2.1985   47.7550   24.0477 C   0  0  0  0  0  0
   -3.0613   48.7291   23.5516 C   0  0  0  0  0  0
   -2.6801   50.0682   23.5748 C   0  0  0  0  0  0
   -2.6730   46.0971   24.0184 Cl  0  0  0  0  0  0
   -0.3099   51.3941   27.0795 N   0  0  0  0  0  0
    2.4498   52.5129   28.2270 S   0  0  0  0  0  0
    1.9132   51.3119   28.8782 O   0  0  0  0  0  0
    3.8951   52.7332   28.1070 O   0  0  0  0  0  0
    1.8372   53.9327   29.0884 C   0  0  0  0  0  0
    0.9441   53.7790   30.1465 C   0  0  0  0  0  0
    0.5799   54.8973   30.8816 C   0  0  0  0  0  0
    1.1041   56.1474   30.5492 C   0  0  0  0  0  0
    1.9364   56.3071   29.4522 C   0  0  0  0  0  0
    2.3194   55.1905   28.7239 C   0  0  0  0  0  0
    6.3252   54.5614   28.1813 H   0  0  0  0  0  0
    6.1703   53.3111   26.9508 H   0  0  0  0  0  0
    7.5762   54.3813   26.9566 H   0  0  0  0  0  0
    7.5199   55.8338   24.4352 H   0  0  0  0  0  0
    7.3524   55.1632   22.0627 H   0  0  0  0  0  0
    5.3766   53.8837   21.2846 H   0  0  0  0  0  0
    3.6113   53.2756   22.8395 H   0  0  0  0  0  0
    3.9915   53.9668   26.4588 H   0  0  0  0  0  0
    0.4081   49.6806   24.9744 H   0  0  0  0  0  0
   -0.2852   47.3549   24.9514 H   0  0  0  0  0  0
   -4.0242   48.4500   23.1496 H   0  0  0  0  0  0
   -3.3648   50.8079   23.1836 H   0  0  0  0  0  0
    0.0570   51.1234   27.9857 H   0  0  0  0  0  0
   -1.1638   50.9307   26.7979 H   0  0  0  0  0  0
    0.5641   52.8053   30.4251 H   0  0  0  0  0  0
   -0.0884   54.7904   31.7237 H   0  0  0  0  0  0
    0.8362   57.0108   31.1376 H   0  0  0  0  0  0
    2.3051   57.2871   29.1916 H   0  0  0  0  0  0
    3.0086   55.2983   27.8993 H   0  0  0  0  0  0
  1  2  1  0  0  0
  1 34  1  0  0  0
  1 35  1  0  0  0
  1 36  1  0  0  0
  2  3  1  0  0  0
  3  8  2  0  0  0
  3  4  1  0  0  0
  4  5  2  0  0  0
  4 37  1  0  0  0
  5  6  1  0  0  0
  5 38  1  0  0  0
  6  7  2  0  0  0
  6 39  1  0  0  0
  7  8  1  0  0  0
  7 40  1  0  0  0
  8  9  1  0  0  0
  9 10  1  0  0  0
  9 41  1  0  0  0
 10 14  1  0  0  0
 10 11  2  0  0  0
 11 12  1  0  0  0
 11 25  1  0  0  0
 12 13  2  0  0  0
 12 24  1  0  0  0
 13 14  1  0  0  0
 13 15  1  0  0  0
 15 16  2  0  0  0
 15 17  1  0  0  0
 17 22  2  0  0  0
 17 18  1  0  0  0
 18 19  2  0  0  0
 18 42  1  0  0  0
 19 20  1  0  0  0
 19 43  1  0  0  0
 20 21  2  0  0  0
 20 23  1  0  0  0
 21 22  1  0  0  0
 21 44  1  0  0  0
 22 45  1  0  0  0
 24 46  1  0  0  0
 24 47  1  0  0  0
 25 26  2  0  0  0
 25 27  2  0  0  0
 25 28  1  0  0  0
 28 33  2  0  0  0
 28 29  1  0  0  0
 29 30  2  0  0  0
 29 48  1  0  0  0
 30 31  1  0  0  0
 30 49  1  0  0  0
 31 32  2  0  0  0
 31 50  1  0  0  0
 32 33  1  0  0  0
 32 51  1  0  0  0
 33 52  1  0  0  0
M  END
> <i_i_glide_confnum>
37

> <i_i_glide_lignum>
4491

> <i_i_glide_posenum>
362

> <i_i_glide_rotatable_bonds>
7

> <i_m_Source_File_Index>
2008

> <b_m_subgroup_collapsed>
0

> <r_i_docking_score>
-7.21256

> <r_i_glide_ecoul>
-4.86297

> <r_i_glide_eff_state_penalty>
0

> <r_i_glide_einternal>
11.6766

> <r_i_glide_emodel>
-73.5701

> <r_i_glide_energy>
-55.8575

> <r_i_glide_erotb>
0.491796

> <r_i_glide_esite>
-0.0463916

> <r_i_glide_evdw>
-50.9946

> <r_i_glide_gscore>
-7.21256

> <r_i_glide_hbond>
0

> <r_i_glide_ligand_efficiency>
-0.218563

> <r_i_glide_ligand_efficiency_ln>
-1.60404

> <r_i_glide_ligand_efficiency_sa>
-0.701047

> <r_i_glide_lipo>
-4.10573

> <r_i_glide_metal>
0

> <r_i_glide_rewards>
-0.273067

> <s_i_glide_gridfile>
wee1_glide-grid

> <s_m_Source_File>
wee1_decoys_glide_SP.sdf

> <s_m_Source_Path>
/Users/zhangxujun/Desktop

> <s_m_entry_id>
2283

> <s_m_entry_name>
wee1_decoys_glide_SP.2008

> <s_m_subgroup_title>
wee1_decoys_glide_SP

> <s_m_subgroupid>
wee1_decoys_glide_SP


$$$$
