@<TRIPOS>MOLECULE
ZINC04275595_1541
51   54    1
SMALL
USER_CHARGES


@<TRIPOS>ATOM
      1 C1         -0.1592   48.3111   24.5853 C.3       1 UNK         0.0000 
      2 C2          0.2324   49.7637   24.3913 C.ar      1 UNK         0.0000 
      3 C3         -0.2050   50.7328   25.2993 C.ar      1 UNK         0.0000 
      4 C4          0.1581   52.0673   25.1259 C.ar      1 UNK         0.0000 
      5 C5          0.9665   52.4332   24.0477 C.ar      1 UNK         0.0000 
      6 C6          1.4193   51.4797   23.1337 C.ar      1 UNK         0.0000 
      7 C7          1.0407   50.1359   23.3131 C.ar      1 UNK         0.0000 
      8 O8          2.2137   51.9504   22.1045 O.3       1 UNK         0.0000 
      9 C9          2.8269   51.0715   21.2009 C.3       1 UNK         0.0000 
     10 H10         3.1431   50.1572   21.7058 H         1 UNK         0.0000 
     11 C11         1.8837   50.8183   19.9977 C.3       1 UNK         0.0000 
     12 H12         0.8992   50.5863   20.4134 H         1 UNK         0.0000 
     13 C13         1.7150   52.1250   19.1717 C.3       1 UNK         0.0000 
     14 H14         1.2344   52.8891   19.7857 H         1 UNK         0.0000 
     15 C15         3.1091   52.6191   18.7486 C.3       1 UNK         0.0000 
     16 H16         3.5491   51.8717   18.0850 H         1 UNK         0.0000 
     17 C17         3.9572   52.7934   20.0134 C.3       1 UNK         0.0000 
     18 H18         3.4965   53.5795   20.6121 H         1 UNK         0.0000 
     19 O19         4.0694   51.5840   20.7762 O.3       1 UNK         0.0000 
     20 C20         5.3383   53.2860   19.5898 C.3       1 UNK         0.0000 
     21 O21         5.2064   54.4761   18.8088 O.3       1 UNK         0.0000 
     22 C22         4.3734   54.2815   17.6873 C.3       1 UNK         0.0000 
     23 H23         4.8085   53.4887   17.0743 H         1 UNK         0.0000 
     24 O24         3.0773   53.8885   18.0812 O.3       1 UNK         0.0000 
     25 C25         4.2734   55.5788   16.9679 C.2       1 UNK         0.0000 
     26 C26         4.4956   55.9306   15.6454 C.2       1 UNK         0.0000 
     27 C27         4.2619   57.3054   15.5544 C.2       1 UNK         0.0000 
     28 C28         3.9041   57.7274   16.8237 C.2       1 UNK         0.0000 
     29 O29         3.9048   56.6760   17.6828 O.3       1 UNK         0.0000 
     30 O30         0.8655   51.9298   18.0504 O.3       1 UNK         0.0000 
     31 N31         2.3044   49.6653   19.1821 N.am      1 UNK         0.0000 
     32 C32         1.7959   48.4277   19.2483 C.2       1 UNK         0.0000 
     33 O33         0.9547   48.0758   20.0751 O.2       1 UNK         0.0000 
     34 C34         2.3044   47.4409   18.2051 C.3       1 UNK         0.0000 
     35 H35        -0.5109   48.1153   25.6008 H         1 UNK         0.0000 
     36 H36         0.7040   47.6669   24.4246 H         1 UNK         0.0000 
     37 H37        -0.9327   48.0244   23.8720 H         1 UNK         0.0000 
     38 H38        -0.8272   50.4498   26.1393 H         1 UNK         0.0000 
     39 H39        -0.1853   52.8138   25.8270 H         1 UNK         0.0000 
     40 H40         1.2472   53.4708   23.9210 H         1 UNK         0.0000 
     41 H41         1.3582   49.3671   22.6233 H         1 UNK         0.0000 
     42 H42         5.9042   53.5372   20.4826 H         1 UNK         0.0000 
     43 H43         5.9050   52.5221   19.0492 H         1 UNK         0.0000 
     44 H44         4.7978   55.2692   14.8472 H         1 UNK         0.0000 
     45 H45         4.3511   57.9243   14.6726 H         1 UNK         0.0000 
     46 H46         3.6418   58.6910   17.2398 H         1 UNK         0.0000 
     47 H47         1.3336   51.3851   17.4131 H         1 UNK         0.0000 
     48 H48         3.0662   49.8165   18.5329 H         1 UNK         0.0000 
     49 H49         3.3925   47.3881   18.2181 H         1 UNK         0.0000 
     50 H50         1.9014   46.4473   18.3961 H         1 UNK         0.0000 
     51 H51         1.9940   47.7541   17.2080 H         1 UNK         0.0000 
@<TRIPOS>BOND
     1    1    2 1    
     2    1   35 1    
     3    1   36 1    
     4    1   37 1    
     5    2    7 ar   
     6    2    3 ar   
     7    3    4 ar   
     8    3   38 1    
     9    4    5 ar   
    10    4   39 1    
    11    5    6 ar   
    12    5   40 1    
    13    6    7 ar   
    14    6    8 1    
    15    7   41 1    
    16    8    9 1    
    17    9   10 1    
    18    9   19 1    
    19    9   11 1    
    20   11   12 1    
    21   11   13 1    
    22   11   31 1    
    23   13   14 1    
    24   13   15 1    
    25   13   30 1    
    26   15   16 1    
    27   15   24 1    
    28   15   17 1    
    29   17   18 1    
    30   17   19 1    
    31   17   20 1    
    32   20   21 1    
    33   20   42 1    
    34   20   43 1    
    35   21   22 1    
    36   22   23 1    
    37   22   24 1    
    38   22   25 1    
    39   25   29 1    
    40   25   26 2    
    41   26   27 1    
    42   26   44 1    
    43   27   28 2    
    44   27   45 1    
    45   28   29 1    
    46   28   46 1    
    47   30   47 1    
    48   31   32 am   BACKBONE|DICT|INTERRES
    49   31   48 1    
    50   32   33 2    
    51   32   34 1    
    52   34   49 1    
    53   34   50 1    
    54   34   51 1    
@<TRIPOS>SUBSTRUCTURE
     1 UNK         1 GROUP             0       ****    0 ROOT    
