@<TRIPOS>MOLECULE
ZINC52603393_2935
74   79    1
SMALL
USER_CHARGES


@<TRIPOS>ATOM
      1 C1          2.5062   53.5677   22.6051 C.3       1 UNK         0.0000 
      2 C2          3.6048   52.9806   21.6793 C.3       1 UNK         0.0000 
      3 C3          3.3342   51.4423   21.5084 C.3       1 UNK         0.0000 
      4 C4          2.2011   51.0238   20.5803 C.2       1 UNK         0.0000 
      5 C5          0.9255   50.6961   20.8547 C.2       1 UNK         0.0000 
      6 C6          0.1887   50.6851   22.1288 C.2       1 UNK         0.0000 
      7 C7         -1.1090   50.3197   22.1706 C.2       1 UNK         0.0000 
      8 C8         -1.7550   49.9409   20.9212 C.2       1 UNK         0.0000 
      9 C9         -1.0880   49.9415   19.7355 C.2       1 UNK         0.0000 
     10 C10         0.2640   50.3105   19.6834 C.2       1 UNK         0.0000 
     11 N11         1.0788   50.3587   18.6561 N.pl3     1 UNK         0.0000 
     12 C12         2.4170   50.7792   19.0980 C.3       1 UNK         0.0000 
     13 C13         5.0152   53.2527   22.3247 C.2       1 UNK         0.0000 
     14 O14         5.8144   52.3407   22.4816 O.2       1 UNK         0.0000 
     15 N15         5.3424   54.4970   22.6915 N.am      1 UNK         0.0000 
     16 C16         6.6293   54.9278   23.2664 C.3       1 UNK         0.0000 
     17 C17         6.5027   55.6964   24.6004 C.3       1 UNK         0.0000 
     18 C18         5.9046   54.9025   25.7518 C.ar      1 UNK         0.0000 
     19 C19         4.5208   54.7744   25.9047 C.ar      1 UNK         0.0000 
     20 C20         4.0343   54.0844   27.0163 C.ar      1 UNK         0.0000 
     21 C21         4.9331   53.5427   27.9380 C.ar      1 UNK         0.0000 
     22 C22         6.3004   53.7057   27.7102 C.ar      1 UNK         0.0000 
     23 N23         6.7907   54.3764   26.6371 N.ar      1 UNK         0.0000 
     24 N24         3.5045   53.6968   20.3872 N.am      1 UNK         0.0000 
     25 C25         4.4259   53.6992   19.3482 C.2       1 UNK         0.0000 
     26 O26         5.5100   53.1260   19.3311 O.2       1 UNK         0.0000 
     27 O27         3.9455   54.4616   18.3516 O.3       1 UNK         0.0000 
     28 C28         4.7330   54.7862   17.2010 C.3       1 UNK         0.0000 
     29 C29         5.8473   55.8396   17.5014 C.3       1 UNK         0.0000 
     30 C30         6.6805   56.0948   16.2169 C.3       1 UNK         0.0000 
     31 C31         5.7580   56.6353   15.0924 C.3       1 UNK         0.0000 
     32 C32         5.1033   57.9651   15.5575 C.3       1 UNK         0.0000 
     33 C33         4.2654   57.7161   16.8401 C.3       1 UNK         0.0000 
     34 C34         5.2005   57.1748   17.9559 C.3       1 UNK         0.0000 
     35 C35         3.1582   56.6715   16.5294 C.3       1 UNK         0.0000 
     36 C36         3.8094   55.3359   16.0747 C.3       1 UNK         0.0000 
     37 C37         4.6487   55.5917   14.7940 C.3       1 UNK         0.0000 
     38 H38         2.5349   53.1220   23.6013 H         1 UNK         0.0000 
     39 H39         2.6061   54.6470   22.7313 H         1 UNK         0.0000 
     40 H40         1.5081   53.3941   22.2008 H         1 UNK         0.0000 
     41 H41         4.2255   50.9254   21.1484 H         1 UNK         0.0000 
     42 H42         3.1045   51.0007   22.4815 H         1 UNK         0.0000 
     43 H43         0.6659   50.9591   23.0590 H         1 UNK         0.0000 
     44 H44        -1.6528   50.3029   23.1054 H         1 UNK         0.0000 
     45 H45        -2.7960   49.6471   20.9391 H         1 UNK         0.0000 
     46 H46        -1.6183   49.6465   18.8406 H         1 UNK         0.0000 
     47 H47         2.7064   51.6577   18.5210 H         1 UNK         0.0000 
     48 H48         3.1041   49.9611   18.8823 H         1 UNK         0.0000 
     49 H49         4.6904   55.2284   22.4577 H         1 UNK         0.0000 
     50 H50         7.2108   55.4966   22.5382 H         1 UNK         0.0000 
     51 H51         7.2346   54.0436   23.4841 H         1 UNK         0.0000 
     52 H52         5.9051   56.5960   24.4816 H         1 UNK         0.0000 
     53 H53         7.4869   56.0729   24.8808 H         1 UNK         0.0000 
     54 H54         3.8399   55.2044   25.1853 H         1 UNK         0.0000 
     55 H55         2.9705   53.9693   27.1618 H         1 UNK         0.0000 
     56 H56         4.5806   53.0024   28.8035 H         1 UNK         0.0000 
     57 H57         7.0269   53.3006   28.3996 H         1 UNK         0.0000 
     58 H58         2.6264   54.1756   20.1966 H         1 UNK         0.0000 
     59 H59         5.1888   53.8543   16.8591 H         1 UNK         0.0000 
     60 H60         6.5080   55.4668   18.2848 H         1 UNK         0.0000 
     61 H61         7.4840   56.8052   16.4213 H         1 UNK         0.0000 
     62 H62         7.1688   55.1734   15.8958 H         1 UNK         0.0000 
     63 H63         6.3449   56.8144   14.1916 H         1 UNK         0.0000 
     64 H64         5.8673   58.7212   15.7490 H         1 UNK         0.0000 
     65 H65         4.4687   58.3733   14.7685 H         1 UNK         0.0000 
     66 H66         3.8084   58.6544   17.1616 H         1 UNK         0.0000 
     67 H67         4.6477   57.0178   18.8813 H         1 UNK         0.0000 
     68 H68         5.9700   57.9121   18.1895 H         1 UNK         0.0000 
     69 H69         2.4887   57.0514   15.7568 H         1 UNK         0.0000 
     70 H70         2.5326   56.4997   17.4060 H         1 UNK         0.0000 
     71 H71         3.0297   54.6061   15.8525 H         1 UNK         0.0000 
     72 H72         5.0899   54.6581   14.4385 H         1 UNK         0.0000 
     73 H73         4.0049   55.9456   13.9866 H         1 UNK         0.0000 
     74 H74         0.8444   50.1189   17.6962 H         1 UNK         0.0000 
@<TRIPOS>BOND
     1    1    2 1    
     2    1   38 1    
     3    1   39 1    
     4    1   40 1    
     5    2    3 1    
     6    2   13 1    
     7    2   24 1    
     8    3    4 1    
     9    3   41 1    
    10    3   42 1    
    11    4   12 1    
    12    4    5 2    
    13    5   10 1    
    14    5    6 1    
    15    6    7 2    
    16    6   43 1    
    17    7    8 1    
    18    7   44 1    
    19    8    9 2    
    20    8   45 1    
    21    9   10 1    
    22    9   46 1    
    23   10   11 2    
    24   11   12 1    
    25   11   74 1    
    26   12   47 1    
    27   12   48 1    
    28   13   14 2    
    29   13   15 am   BACKBONE|DICT|INTERRES
    30   15   16 1    
    31   15   49 1    
    32   16   17 1    
    33   16   50 1    
    34   16   51 1    
    35   17   18 1    
    36   17   52 1    
    37   17   53 1    
    38   18   23 ar   
    39   18   19 ar   
    40   19   20 ar   
    41   19   54 1    
    42   20   21 ar   
    43   20   55 1    
    44   21   22 ar   
    45   21   56 1    
    46   22   23 ar   
    47   22   57 1    
    48   24   25 am   BACKBONE|DICT|INTERRES
    49   24   58 1    
    50   25   26 2    
    51   25   27 1    
    52   27   28 1    
    53   28   36 1    
    54   28   29 1    
    55   28   59 1    
    56   29   34 1    
    57   29   30 1    
    58   29   60 1    
    59   30   31 1    
    60   30   61 1    
    61   30   62 1    
    62   31   37 1    
    63   31   32 1    
    64   31   63 1    
    65   32   33 1    
    66   32   64 1    
    67   32   65 1    
    68   33   34 1    
    69   33   35 1    
    70   33   66 1    
    71   34   67 1    
    72   34   68 1    
    73   35   36 1    
    74   35   69 1    
    75   35   70 1    
    76   36   37 1    
    77   36   71 1    
    78   37   72 1    
    79   37   73 1    
@<TRIPOS>SUBSTRUCTURE
     1 UNK         1 GROUP             0       ****    0 ROOT    
