@<TRIPOS>MOLECULE
ZINC31057745_4840
71   75    1
SMALL
USER_CHARGES


@<TRIPOS>ATOM
      1 C1         -0.7505   51.6326   29.6953 C.3       1 UNK         0.0000 
      2 C2          0.4665   52.5434   29.4858 C.3       1 UNK         0.0000 
      3 H3          1.3612   52.0248   29.8331 H         1 UNK         0.0000 
      4 C4          0.4004   53.8485   30.2898 C.3       1 UNK         0.0000 
      5 C5          1.6594   54.6751   30.0064 C.3       1 UNK         0.0000 
      6 C6          1.8813   54.8825   28.4895 C.3       1 UNK         0.0000 
      7 N7          1.9049   53.6274   27.7052 N.pl3     1 UNK         0.0000 
      8 C8          0.6749   52.8651   27.9915 C.3       1 UNK         0.0000 
      9 C9          2.4194   53.6875   26.4053 C.ar      1 UNK         0.0000 
     10 C10         1.6669   53.2893   25.2952 C.ar      1 UNK         0.0000 
     11 C11         2.1726   53.4129   24.0048 C.ar      1 UNK         0.0000 
     12 C12         3.4535   53.9345   23.7807 C.ar      1 UNK         0.0000 
     13 C13         4.2152   54.3217   24.8901 C.ar      1 UNK         0.0000 
     14 C14         3.7044   54.1993   26.1818 C.ar      1 UNK         0.0000 
     15 C15         3.9988   54.0856   22.3409 C.3       1 UNK         0.0000 
     16 H16         3.7518   55.1121   22.0722 H         1 UNK         0.0000 
     17 C17         5.5397   53.9887   22.2098 C.3       1 UNK         0.0000 
     18 N18         3.2624   53.2965   21.3387 N.am      1 UNK         0.0000 
     19 C19         3.4447   52.0011   21.0040 C.2       1 UNK         0.0000 
     20 O20         4.4467   51.3487   21.2949 O.2       1 UNK         0.0000 
     21 C21         2.2872   51.3237   20.2451 C.3       1 UNK         0.0000 
     22 H22         1.3859   51.8758   20.5159 H         1 UNK         0.0000 
     23 C23         2.1613   49.8364   20.6929 C.3       1 UNK         0.0000 
     24 C24         1.1606   49.0730   19.8106 C.3       1 UNK         0.0000 
     25 C25         1.5099   49.1965   18.3204 C.3       1 UNK         0.0000 
     26 N26         1.4584   50.6956   17.9512 N.4       1 UNK         0.0000 
     27 C27         2.5281   51.5028   18.7272 C.3       1 UNK         0.0000 
     28 C28         1.6200   50.8950   16.4206 C.3       1 UNK         0.0000 
     29 C29         0.8048   52.1030   15.9843 C.2       1 UNK         0.0000 
     30 N30         0.5322   53.1963   16.6511 N.2       1 UNK         0.0000 
     31 C31        -0.3179   53.8072   15.8453 C.2       1 UNK         0.0000 
     32 N32        -0.6015   53.1843   14.7192 N.2       1 UNK         0.0000 
     33 O33         0.1577   52.0183   14.7948 O.3       1 UNK         0.0000 
     34 C34        -0.9170   55.0958   16.2026 C.2       1 UNK         0.0000 
     35 C35        -0.4453   56.0325   17.1211 C.2       1 UNK         0.0000 
     36 C36        -1.2494   57.1726   17.2275 C.2       1 UNK         0.0000 
     37 C37        -2.3581   57.1164   16.3986 C.2       1 UNK         0.0000 
     38 S38        -2.4029   55.6510   15.4743 S.3       1 UNK         0.0000 
     39 H39        -1.6733   52.0963   29.3492 H         1 UNK         0.0000 
     40 H40        -0.8869   51.3553   30.7427 H         1 UNK         0.0000 
     41 H41        -0.6317   50.7173   29.1213 H         1 UNK         0.0000 
     42 H42        -0.4916   54.4111   30.0167 H         1 UNK         0.0000 
     43 H43         0.2894   53.6394   31.3574 H         1 UNK         0.0000 
     44 H44         1.5769   55.6453   30.4961 H         1 UNK         0.0000 
     45 H45         2.5418   54.2019   30.4356 H         1 UNK         0.0000 
     46 H46         1.1029   55.5331   28.0819 H         1 UNK         0.0000 
     47 H47         2.8214   55.4232   28.3685 H         1 UNK         0.0000 
     48 H48         0.7594   51.9069   27.4770 H         1 UNK         0.0000 
     49 H49        -0.2080   53.3389   27.5665 H         1 UNK         0.0000 
     50 H50         0.6678   52.8960   25.4122 H         1 UNK         0.0000 
     51 H51         1.5417   53.1044   23.1837 H         1 UNK         0.0000 
     52 H52         5.2060   54.7293   24.7728 H         1 UNK         0.0000 
     53 H53         4.3196   54.5059   27.0147 H         1 UNK         0.0000 
     54 H54         6.0450   54.8024   22.7298 H         1 UNK         0.0000 
     55 H55         5.9162   53.0517   22.6201 H         1 UNK         0.0000 
     56 H56         5.8596   54.0482   21.1694 H         1 UNK         0.0000 
     57 H57         2.4446   53.7604   20.9602 H         1 UNK         0.0000 
     58 H58         3.1043   49.3036   20.5568 H         1 UNK         0.0000 
     59 H59         1.8195   49.7593   21.7257 H         1 UNK         0.0000 
     60 H60         1.1445   48.0192   20.0923 H         1 UNK         0.0000 
     61 H61         0.1484   49.4438   19.9835 H         1 UNK         0.0000 
     62 H62         2.5067   48.8186   18.0818 H         1 UNK         0.0000 
     63 H63         0.7592   48.6842   17.7173 H         1 UNK         0.0000 
     64 H64         2.4108   52.5473   18.4307 H         1 UNK         0.0000 
     65 H65         3.4931   51.1218   18.3948 H         1 UNK         0.0000 
     66 H66         2.6893   50.9476   16.1972 H         1 UNK         0.0000 
     67 H67         1.2372   49.9888   15.9469 H         1 UNK         0.0000 
     68 H68         0.4679   55.8990   17.6817 H         1 UNK         0.0000 
     69 H69        -1.0197   58.0102   17.8737 H         1 UNK         0.0000 
     70 H70        -3.1339   57.8581   16.2714 H         1 UNK         0.0000 
     71 H71         0.5393   51.0355   18.1964 H         1 UNK         0.0000 
@<TRIPOS>BOND
     1    1    2 1    
     2    1   39 1    
     3    1   40 1    
     4    1   41 1    
     5    2    3 1    
     6    2    8 1    
     7    2    4 1    
     8    4    5 1    
     9    4   42 1    
    10    4   43 1    
    11    5    6 1    
    12    5   44 1    
    13    5   45 1    
    14    6    7 1    
    15    6   46 1    
    16    6   47 1    
    17    7    8 1    
    18    7    9 1    
    19    8   48 1    
    20    8   49 1    
    21    9   14 ar   
    22    9   10 ar   
    23   10   11 ar   
    24   10   50 1    
    25   11   12 ar   
    26   11   51 1    
    27   12   13 ar   
    28   12   15 1    
    29   13   14 ar   
    30   13   52 1    
    31   14   53 1    
    32   15   16 1    
    33   15   17 1    
    34   15   18 1    
    35   17   54 1    
    36   17   55 1    
    37   17   56 1    
    38   18   19 am   BACKBONE|DICT|INTERRES
    39   18   57 1    
    40   19   20 2    
    41   19   21 1    
    42   21   22 1    
    43   21   27 1    
    44   21   23 1    
    45   23   24 1    
    46   23   58 1    
    47   23   59 1    
    48   24   25 1    
    49   24   60 1    
    50   24   61 1    
    51   25   26 1    
    52   25   62 1    
    53   25   63 1    
    54   26   27 1    
    55   26   28 1    
    56   26   71 1    
    57   27   64 1    
    58   27   65 1    
    59   28   29 1    
    60   28   66 1    
    61   28   67 1    
    62   29   33 1    
    63   29   30 2    
    64   30   31 1    
    65   31   32 2    
    66   31   34 1    
    67   32   33 1    
    68   34   38 1    
    69   34   35 2    
    70   35   36 1    
    71   35   68 1    
    72   36   37 2    
    73   36   69 1    
    74   37   38 1    
    75   37   70 1    
@<TRIPOS>SUBSTRUCTURE
     1 UNK         1 GROUP             0       ****    0 ROOT    
