@<TRIPOS>MOLECULE
ZINC06418097_2574
51   54    1
SMALL
USER_CHARGES


@<TRIPOS>ATOM
      1 C1         -1.5499   49.6995   20.1526 C.3       1 UNK         0.0000 
      2 C2         -0.3451   48.9843   19.5148 C.3       1 UNK         0.0000 
      3 N3          0.8306   48.8863   20.5213 N.4       1 UNK         0.0000 
      4 C4          1.9259   47.9003   20.0440 C.3       1 UNK         0.0000 
      5 C5          2.7099   48.4267   18.8340 C.3       1 UNK         0.0000 
      6 C6          1.3470   50.1776   21.0497 C.ar      1 UNK         0.0000 
      7 C7          1.6481   51.2230   20.1789 C.ar      1 UNK         0.0000 
      8 C8          2.0763   52.4310   20.7138 C.ar      1 UNK         0.0000 
      9 C9          2.1870   52.6020   22.0978 C.ar      1 UNK         0.0000 
     10 C10         1.9028   51.5260   22.9499 C.ar      1 UNK         0.0000 
     11 C11         1.4843   50.3024   22.4307 C.ar      1 UNK         0.0000 
     12 C12         2.5889   53.9863   22.6267 C.3       1 UNK         0.0000 
     13 H13         1.8028   54.6551   22.2802 H         1 UNK         0.0000 
     14 N14         2.6004   54.1531   24.0901 N.pl3     1 UNK         0.0000 
     15 C15         3.7788   54.1374   24.8012 C.2       1 UNK         0.0000 
     16 C16         4.9343   54.2806   24.1359 C.2       1 UNK         0.0000 
     17 S17         6.3031   54.3610   25.2168 S.3       1 UNK         0.0000 
     18 C18         5.2298   54.1022   26.5785 C.2       1 UNK         0.0000 
     19 S19         5.9038   53.9095   28.0820 S.2       1 UNK         0.0000 
     20 N20         3.9160   54.0915   26.1663 N.pl3     1 UNK         0.0000 
     21 C21         2.8080   53.9572   27.0554 C.ar      1 UNK         0.0000 
     22 C22         1.9019   52.8978   26.9053 C.ar      1 UNK         0.0000 
     23 C23         0.8283   52.7574   27.7812 C.ar      1 UNK         0.0000 
     24 C24         0.6470   53.6814   28.8073 C.ar      1 UNK         0.0000 
     25 C25         1.5294   54.7461   28.9635 C.ar      1 UNK         0.0000 
     26 C26         2.6072   54.8811   28.0948 C.ar      1 UNK         0.0000 
     27 C27         5.0662   54.4674   22.7052 C.2       1 UNK         0.0000 
     28 O28         6.1192   54.6762   22.1074 O.2       1 UNK         0.0000 
     29 N29         3.8776   54.4718   22.0522 N.am      1 UNK         0.0000 
     30 H30        -2.3906   49.7286   19.4595 H         1 UNK         0.0000 
     31 H31        -1.3139   50.7307   20.4201 H         1 UNK         0.0000 
     32 H32        -1.8869   49.1934   21.0582 H         1 UNK         0.0000 
     33 H33        -0.5970   47.9567   19.2435 H         1 UNK         0.0000 
     34 H34         0.0263   49.5045   18.6300 H         1 UNK         0.0000 
     35 H35         2.5824   47.7520   20.9035 H         1 UNK         0.0000 
     36 H36         1.4197   46.9612   19.8188 H         1 UNK         0.0000 
     37 H37         3.4498   47.6973   18.5051 H         1 UNK         0.0000 
     38 H38         2.0750   48.6390   17.9746 H         1 UNK         0.0000 
     39 H39         3.2740   49.3304   19.0665 H         1 UNK         0.0000 
     40 H40         1.5565   51.1171   19.1070 H         1 UNK         0.0000 
     41 H41         2.3037   53.2451   20.0420 H         1 UNK         0.0000 
     42 H42         1.9954   51.6256   24.0179 H         1 UNK         0.0000 
     43 H43         1.2634   49.4831   23.0999 H         1 UNK         0.0000 
     44 H44         1.7133   54.3823   24.5137 H         1 UNK         0.0000 
     45 H45         2.0375   52.1656   26.1266 H         1 UNK         0.0000 
     46 H46         0.1405   51.9301   27.6706 H         1 UNK         0.0000 
     47 H47        -0.1828   53.5676   29.4905 H         1 UNK         0.0000 
     48 H48         1.3841   55.4576   29.7650 H         1 UNK         0.0000 
     49 H49         3.2962   55.6962   28.2431 H         1 UNK         0.0000 
     50 H50         3.9362   54.5913   21.0523 H         1 UNK         0.0000 
     51 H51         0.4030   48.4112   21.3034 H         1 UNK         0.0000 
@<TRIPOS>BOND
     1    1    2 1    
     2    1   30 1    
     3    1   31 1    
     4    1   32 1    
     5    2    3 1    
     6    2   33 1    
     7    2   34 1    
     8    3    4 1    
     9    3    6 1    
    10    3   51 1    
    11    4    5 1    
    12    4   35 1    
    13    4   36 1    
    14    5   37 1    
    15    5   38 1    
    16    5   39 1    
    17    6   11 ar   
    18    6    7 ar   
    19    7    8 ar   
    20    7   40 1    
    21    8    9 ar   
    22    8   41 1    
    23    9   10 ar   
    24    9   12 1    
    25   10   11 ar   
    26   10   42 1    
    27   11   43 1    
    28   12   13 1    
    29   12   29 1    
    30   12   14 1    
    31   14   15 1    
    32   14   44 1    
    33   15   20 1    
    34   15   16 2    
    35   16   17 1    
    36   16   27 1    
    37   17   18 1    
    38   18   19 2    
    39   18   20 1    
    40   20   21 1    
    41   21   26 ar   
    42   21   22 ar   
    43   22   23 ar   
    44   22   45 1    
    45   23   24 ar   
    46   23   46 1    
    47   24   25 ar   
    48   24   47 1    
    49   25   26 ar   
    50   25   48 1    
    51   26   49 1    
    52   27   28 2    
    53   27   29 am   BACKBONE|DICT|INTERRES
    54   29   50 1    
@<TRIPOS>SUBSTRUCTURE
     1 UNK         1 GROUP             0       ****    0 ROOT    
