@<TRIPOS>MOLECULE
ZINC35397202_6079
59   62    1
SMALL
USER_CHARGES


@<TRIPOS>ATOM
      1 C1         -5.0483   52.1596   26.7421 C.3       1 UNK         0.0000 
      2 C2         -4.2386   53.0544   25.7895 C.3       1 UNK         0.0000 
      3 N3         -3.3802   52.2069   24.8189 N.4       1 UNK         0.0000 
      4 C4         -2.2949   51.3796   25.5684 C.3       1 UNK         0.0000 
      5 C5         -1.4268   50.6321   24.5348 C.3       1 UNK         0.0000 
      6 C6         -0.7811   51.6159   23.5256 C.3       1 UNK         0.0000 
      7 C7         -1.9399   52.2698   22.7384 C.3       1 UNK         0.0000 
      8 C8         -2.8309   53.1086   23.6732 C.3       1 UNK         0.0000 
      9 N9         -0.0091   52.6102   24.2443 N.2       1 UNK         0.0000 
     10 C10         1.1922   52.4689   23.8718 C.2       1 UNK         0.0000 
     11 C11         1.2305   51.3785   22.8286 C.2       1 UNK         0.0000 
     12 N12         0.0788   50.9045   22.6253 N.2       1 UNK         0.0000 
     13 S13         2.7442   50.7534   22.0798 S.3       1 UNK         0.0000 
     14 C14         2.7816   51.6510   20.4842 C.3       1 UNK         0.0000 
     15 C15         4.0473   52.5064   20.3284 C.2       1 UNK         0.0000 
     16 O16         5.1048   52.0983   20.8052 O.2       1 UNK         0.0000 
     17 N17         3.9019   53.6951   19.7003 N.am      1 UNK         0.0000 
     18 C18         4.8652   54.7047   19.5118 C.ar      1 UNK         0.0000 
     19 C19         4.6405   55.6144   18.4731 C.ar      1 UNK         0.0000 
     20 C20         5.5501   56.6441   18.2249 C.ar      1 UNK         0.0000 
     21 C21         6.6930   56.7728   19.0141 C.ar      1 UNK         0.0000 
     22 C22         6.9203   55.8840   20.0683 C.ar      1 UNK         0.0000 
     23 C23         5.9969   54.8689   20.3255 C.ar      1 UNK         0.0000 
     24 C24         8.1789   55.9802   20.9104 C.3       1 UNK         0.0000 
     25 C25         2.3413   53.2338   24.3932 C.ar      1 UNK         0.0000 
     26 C26         3.3288   53.7313   23.5386 C.ar      1 UNK         0.0000 
     27 C27         4.4679   54.3440   24.0494 C.ar      1 UNK         0.0000 
     28 C28         4.6100   54.4983   25.4245 C.ar      1 UNK         0.0000 
     29 C29         3.6049   54.0681   26.2883 C.ar      1 UNK         0.0000 
     30 C30         2.4734   53.4330   25.7757 C.ar      1 UNK         0.0000 
     31 Br31        6.1949   55.2969   26.1165 Br        1 UNK         0.0000 
     32 H32        -5.7418   52.7592   27.3311 H         1 UNK         0.0000 
     33 H33        -5.6387   51.4210   26.1988 H         1 UNK         0.0000 
     34 H34        -4.4144   51.6270   27.4509 H         1 UNK         0.0000 
     35 H35        -3.5572   53.7281   26.3124 H         1 UNK         0.0000 
     36 H36        -4.9115   53.6376   25.1557 H         1 UNK         0.0000 
     37 H37        -2.8080   50.6468   26.1946 H         1 UNK         0.0000 
     38 H38        -1.7193   52.0623   26.1979 H         1 UNK         0.0000 
     39 H39        -2.0638   49.9167   24.0108 H         1 UNK         0.0000 
     40 H40        -0.6617   50.0452   25.0485 H         1 UNK         0.0000 
     41 H41        -1.5546   52.8903   21.9296 H         1 UNK         0.0000 
     42 H42        -2.5597   51.5012   22.2735 H         1 UNK         0.0000 
     43 H43        -3.6965   53.4870   23.1397 H         1 UNK         0.0000 
     44 H44        -2.2873   53.9535   24.0823 H         1 UNK         0.0000 
     45 H45         1.8736   52.2374   20.3316 H         1 UNK         0.0000 
     46 H46         2.8291   50.9059   19.6886 H         1 UNK         0.0000 
     47 H47         2.9973   53.8954   19.2989 H         1 UNK         0.0000 
     48 H48         3.7617   55.5231   17.8485 H         1 UNK         0.0000 
     49 H49         5.3735   57.3369   17.4140 H         1 UNK         0.0000 
     50 H50         7.3998   57.5620   18.7993 H         1 UNK         0.0000 
     51 H51         6.1820   54.2078   21.1587 H         1 UNK         0.0000 
     52 H52         8.9820   56.4959   20.3813 H         1 UNK         0.0000 
     53 H53         8.5574   54.9844   21.1389 H         1 UNK         0.0000 
     54 H54         7.9745   56.4837   21.8553 H         1 UNK         0.0000 
     55 H55         3.2149   53.6606   22.4736 H         1 UNK         0.0000 
     56 H56         5.2389   54.6958   23.3814 H         1 UNK         0.0000 
     57 H57         3.7161   54.1970   27.3549 H         1 UNK         0.0000 
     58 H58         1.7207   53.0663   26.4631 H         1 UNK         0.0000 
     59 H59        -3.9785   51.5273   24.3663 H         1 UNK         0.0000 
@<TRIPOS>BOND
     1    1    2 1    
     2    1   32 1    
     3    1   33 1    
     4    1   34 1    
     5    2    3 1    
     6    2   35 1    
     7    2   36 1    
     8    3    8 1    
     9    3    4 1    
    10    3   59 1    
    11    4    5 1    
    12    4   37 1    
    13    4   38 1    
    14    5    6 1    
    15    5   39 1    
    16    5   40 1    
    17    6   12 1    
    18    6    7 1    
    19    6    9 1    
    20    7    8 1    
    21    7   41 1    
    22    7   42 1    
    23    8   43 1    
    24    8   44 1    
    25    9   10 2    
    26   10   11 1    
    27   10   25 1    
    28   11   12 2    
    29   11   13 1    
    30   13   14 1    
    31   14   15 1    
    32   14   45 1    
    33   14   46 1    
    34   15   16 2    
    35   15   17 am   BACKBONE|DICT|INTERRES
    36   17   18 1    
    37   17   47 1    
    38   18   23 ar   
    39   18   19 ar   
    40   19   20 ar   
    41   19   48 1    
    42   20   21 ar   
    43   20   49 1    
    44   21   22 ar   
    45   21   50 1    
    46   22   23 ar   
    47   22   24 1    
    48   23   51 1    
    49   24   52 1    
    50   24   53 1    
    51   24   54 1    
    52   25   30 ar   
    53   25   26 ar   
    54   26   27 ar   
    55   26   55 1    
    56   27   28 ar   
    57   27   56 1    
    58   28   29 ar   
    59   28   31 1    
    60   29   30 ar   
    61   29   57 1    
    62   30   58 1    
@<TRIPOS>SUBSTRUCTURE
     1 UNK         1 GROUP             0       ****    0 ROOT    
