@<TRIPOS>MOLECULE
ZINC00723944_6085
65   69    1
SMALL
USER_CHARGES


@<TRIPOS>ATOM
      1 C1          4.6164   54.8149   29.2815 C.ar      1 UNK         0.0000 
      2 C2          3.3259   55.2957   29.0614 C.ar      1 UNK         0.0000 
      3 C3          2.5777   54.7986   28.0017 C.ar      1 UNK         0.0000 
      4 C4          3.1092   53.7995   27.1743 C.ar      1 UNK         0.0000 
      5 C5          4.3920   53.2966   27.4376 C.ar      1 UNK         0.0000 
      6 C6          5.1493   53.8115   28.4815 C.ar      1 UNK         0.0000 
      7 N7          2.3363   53.2966   26.0857 N.pl3     1 UNK         0.0000 
      8 C8          1.1977   52.5689   26.4570 C.ar      1 UNK         0.0000 
      9 O9          0.9257   52.2735   27.6259 O.2       1 UNK         0.0000 
     10 C10         0.3792   52.2226   25.2973 C.ar      1 UNK         0.0000 
     11 C11        -0.8431   51.5156   25.2631 C.2       1 UNK         0.0000 
     12 C12        -1.3243   51.3788   23.9501 C.2       1 UNK         0.0000 
     13 S13        -0.2619   52.0968   22.7812 S.3       1 UNK         0.0000 
     14 C14         0.8159   52.6023   24.0356 C.ar      1 UNK         0.0000 
     15 N15         1.9674   53.2721   23.7715 N.2       1 UNK         0.0000 
     16 C16         2.7440   53.5566   24.7599 C.ar      1 UNK         0.0000 
     17 S17         4.3976   54.2543   24.3854 S.3       1 UNK         0.0000 
     18 C18         4.6223   54.3317   22.5574 C.3       1 UNK         0.0000 
     19 H19         3.8897   55.0531   22.1949 H         1 UNK         0.0000 
     20 C20         6.0543   54.8940   22.2719 C.3       1 UNK         0.0000 
     21 C21         6.2832   55.4125   20.8411 C.3       1 UNK         0.0000 
     22 O22         7.5135   56.0968   20.7540 O.3       1 UNK         0.0000 
     23 C23         4.4079   52.9953   21.8049 C.2       1 UNK         0.0000 
     24 O24         5.2468   52.0993   21.8886 O.2       1 UNK         0.0000 
     25 N25         3.3100   52.8796   21.0382 N.am      1 UNK         0.0000 
     26 C26         2.9585   51.7074   20.2343 C.3       1 UNK         0.0000 
     27 C27         2.6514   50.4061   21.0258 C.3       1 UNK         0.0000 
     28 C28         2.2412   49.2234   20.1280 C.3       1 UNK         0.0000 
     29 C29         1.1016   49.5937   19.1678 C.3       1 UNK         0.0000 
     30 C30         1.4877   50.8056   18.3047 C.3       1 UNK         0.0000 
     31 C31         1.8933   52.0245   19.1575 C.3       1 UNK         0.0000 
     32 C32        -2.6516   50.7415   23.5656 C.3       1 UNK         0.0000 
     33 C33        -3.1707   49.8939   24.7471 C.3       1 UNK         0.0000 
     34 C34        -3.0794   50.6530   26.0835 C.3       1 UNK         0.0000 
     35 C35        -1.6220   50.9910   26.4734 C.3       1 UNK         0.0000 
     36 H36         5.2168   55.2208   30.0814 H         1 UNK         0.0000 
     37 H37         2.9152   56.0783   29.6821 H         1 UNK         0.0000 
     38 H38         1.5849   55.1878   27.8245 H         1 UNK         0.0000 
     39 H39         4.8125   52.5032   26.8363 H         1 UNK         0.0000 
     40 H40         6.1460   53.4370   28.6681 H         1 UNK         0.0000 
     41 H41         6.3044   55.6974   22.9664 H         1 UNK         0.0000 
     42 H42         6.8014   54.1283   22.4928 H         1 UNK         0.0000 
     43 H43         6.2075   54.6125   20.1041 H         1 UNK         0.0000 
     44 H44         5.5043   56.1184   20.5702 H         1 UNK         0.0000 
     45 H45         8.2272   55.4539   20.7403 H         1 UNK         0.0000 
     46 H46         2.6253   53.6221   21.0516 H         1 UNK         0.0000 
     47 H47         3.8595   51.4607   19.6674 H         1 UNK         0.0000 
     48 H48         1.8358   50.5946   21.7202 H         1 UNK         0.0000 
     49 H49         3.5044   50.1040   21.6309 H         1 UNK         0.0000 
     50 H50         1.9499   48.3738   20.7450 H         1 UNK         0.0000 
     51 H51         3.1043   48.8929   19.5464 H         1 UNK         0.0000 
     52 H52         0.1990   49.8166   19.7373 H         1 UNK         0.0000 
     53 H53         0.8639   48.7429   18.5278 H         1 UNK         0.0000 
     54 H54         0.6621   51.0701   17.6433 H         1 UNK         0.0000 
     55 H55         2.3174   50.5285   17.6503 H         1 UNK         0.0000 
     56 H56         2.2475   52.8202   18.5020 H         1 UNK         0.0000 
     57 H57         0.9949   52.3989   19.6506 H         1 UNK         0.0000 
     58 H58        -3.3798   51.5184   23.3310 H         1 UNK         0.0000 
     59 H59        -2.5514   50.1210   22.6745 H         1 UNK         0.0000 
     60 H60        -4.2029   49.5941   24.5582 H         1 UNK         0.0000 
     61 H61        -2.5968   48.9684   24.8168 H         1 UNK         0.0000 
     62 H62        -3.6669   51.5705   26.0193 H         1 UNK         0.0000 
     63 H63        -3.5330   50.0570   26.8767 H         1 UNK         0.0000 
     64 H64        -1.1332   50.0986   26.8712 H         1 UNK         0.0000 
     65 H65        -1.6242   51.7145   27.2906 H         1 UNK         0.0000 
@<TRIPOS>BOND
     1    1    6 ar   
     2    1    2 ar   
     3    1   36 1    
     4    2    3 ar   
     5    2   37 1    
     6    3    4 ar   
     7    3   38 1    
     8    4    5 ar   
     9    4    7 1    
    10    5    6 ar   
    11    5   39 1    
    12    6   40 1    
    13    7   16 ar   
    14    7    8 ar   
    15    8    9 2    
    16    8   10 ar   
    17   10   14 ar   
    18   10   11 1    
    19   11   35 1    
    20   11   12 2    
    21   12   13 1    
    22   12   32 1    
    23   13   14 1    
    24   14   15 ar   
    25   15   16 ar   
    26   16   17 1    
    27   17   18 1    
    28   18   19 1    
    29   18   20 1    
    30   18   23 1    
    31   20   21 1    
    32   20   41 1    
    33   20   42 1    
    34   21   22 1    
    35   21   43 1    
    36   21   44 1    
    37   22   45 1    
    38   23   24 2    
    39   23   25 am   BACKBONE|DICT|INTERRES
    40   25   26 1    
    41   25   46 1    
    42   26   31 1    
    43   26   27 1    
    44   26   47 1    
    45   27   28 1    
    46   27   48 1    
    47   27   49 1    
    48   28   29 1    
    49   28   50 1    
    50   28   51 1    
    51   29   30 1    
    52   29   52 1    
    53   29   53 1    
    54   30   31 1    
    55   30   54 1    
    56   30   55 1    
    57   31   56 1    
    58   31   57 1    
    59   32   33 1    
    60   32   58 1    
    61   32   59 1    
    62   33   34 1    
    63   33   60 1    
    64   33   61 1    
    65   34   35 1    
    66   34   62 1    
    67   34   63 1    
    68   35   64 1    
    69   35   65 1    
@<TRIPOS>SUBSTRUCTURE
     1 UNK         1 GROUP             0       ****    0 ROOT    
