ZINC40295459_4684
                    3D
 Schrodinger Suite 2024-2.
 31 32  0  0  1  0            999 V2000
    4.0986   53.8907   21.3723 C   0  0  0  0  0  0
    4.0849   53.9455   22.8803 C   0  0  0  0  0  0
    2.9958   53.8495   23.7553 C   0  0  0  0  0  0
    3.5187   53.9430   25.0372 C   0  0  0  0  0  0
    4.8709   54.1012   24.8424 N   0  0  0  0  0  0
    5.2107   54.0967   23.5446 N   0  0  0  0  0  0
    5.9180   54.2288   25.8477 C   0  0  0  0  0  0
    2.9408   53.9019   26.2944 N   0  0  0  0  0  0
    1.7698   53.2966   26.5929 C   0  0  0  0  0  0
    1.1090   52.6284   25.7943 O   0  0  0  0  0  0
    1.2993   53.4612   28.0221 C   0  0  0  0  0  0
    1.6595   54.5923   28.7728 C   0  0  0  0  0  0
    1.2160   54.7440   30.0816 C   0  0  0  0  0  0
    0.4084   53.7728   30.6660 C   0  0  0  0  0  0
    0.0012   52.6539   29.9285 C   0  0  0  0  0  0
    0.4523   52.5044   28.6122 C   0  0  0  0  0  0
   -0.8579   51.6967   30.4817 N   0  0  0  0  0  0
   -0.0954   54.0171   32.4817 Br  0  0  0  0  0  0
    3.1058   53.6996   20.9635 H   0  0  0  0  0  0
    4.7502   53.0989   21.0013 H   0  0  0  0  0  0
    4.4476   54.8280   20.9391 H   0  0  0  0  0  0
    1.9586   53.7181   23.4832 H   0  0  0  0  0  0
    5.6708   55.0454   26.5262 H   0  0  0  0  0  0
    5.9876   53.2966   26.4091 H   0  0  0  0  0  0
    6.8824   54.4348   25.3798 H   0  0  0  0  0  0
    3.5019   54.2293   27.0644 H   0  0  0  0  0  0
    2.2752   55.3747   28.3519 H   0  0  0  0  0  0
    1.5011   55.6191   30.6485 H   0  0  0  0  0  0
    0.1388   51.6369   28.0464 H   0  0  0  0  0  0
   -1.0922   51.7306   31.4813 H   0  0  0  0  0  0
   -1.0857   50.8588   29.9605 H   0  0  0  0  0  0
  1  2  1  0  0  0
  1 19  1  0  0  0
  1 20  1  0  0  0
  1 21  1  0  0  0
  2  6  2  0  0  0
  2  3  1  0  0  0
  3  4  2  0  0  0
  3 22  1  0  0  0
  4  5  1  0  0  0
  4  8  1  0  0  0
  5  6  1  0  0  0
  5  7  1  0  0  0
  7 23  1  0  0  0
  7 24  1  0  0  0
  7 25  1  0  0  0
  8  9  1  0  0  0
  8 26  1  0  0  0
  9 10  2  0  0  0
  9 11  1  0  0  0
 11 16  2  0  0  0
 11 12  1  0  0  0
 12 13  2  0  0  0
 12 27  1  0  0  0
 13 14  1  0  0  0
 13 28  1  0  0  0
 14 15  2  0  0  0
 14 18  1  0  0  0
 15 16  1  0  0  0
 15 17  1  0  0  0
 16 29  1  0  0  0
 17 30  1  0  0  0
 17 31  1  0  0  0
M  END
> <i_i_glide_confnum>
5

> <i_i_glide_lignum>
4685

> <i_i_glide_posenum>
240

> <i_i_glide_rotatable_bonds>
3

> <i_m_Source_File_Index>
5906

> <b_m_subgroup_collapsed>
0

> <r_i_docking_score>
-5.6796

> <r_i_glide_ecoul>
-4.13808

> <r_i_glide_eff_state_penalty>
0

> <r_i_glide_einternal>
0.882954

> <r_i_glide_emodel>
-45.3385

> <r_i_glide_energy>
-33.1154

> <r_i_glide_erotb>
0.58104

> <r_i_glide_esite>
-0.0946273

> <r_i_glide_evdw>
-28.9773

> <r_i_glide_gscore>
-5.6796

> <r_i_glide_hbond>
-0.16

> <r_i_glide_ligand_efficiency>
-0.315533

> <r_i_glide_ligand_efficiency_ln>
-1.45991

> <r_i_glide_ligand_efficiency_sa>
-0.826931

> <r_i_glide_lipo>
-2.11924

> <r_i_glide_metal>
0

> <r_i_glide_rewards>
-1.81719

> <s_i_glide_gridfile>
wee1_glide-grid

> <s_m_Source_File>
wee1_decoys_glide_SP.sdf

> <s_m_Source_Path>
/Users/zhangxujun/Desktop

> <s_m_entry_id>
6181

> <s_m_entry_name>
wee1_decoys_glide_SP.5906

> <s_m_subgroup_title>
wee1_decoys_glide_SP

> <s_m_subgroupid>
wee1_decoys_glide_SP


$$$$
