@<TRIPOS>MOLECULE
ZINC14881248_5081
73   77    1
SMALL
USER_CHARGES


@<TRIPOS>ATOM
      1 C1          0.0092   55.5032   16.4358 C.3       1 UNK         0.0000 
      2 C2         -0.4027   54.0627   16.1100 C.ar      1 UNK         0.0000 
      3 C3         -1.7483   53.6561   16.2511 C.ar      1 UNK         0.0000 
      4 C4         -2.1232   52.3274   15.9782 C.ar      1 UNK         0.0000 
      5 C5         -1.1462   51.4198   15.5440 C.ar      1 UNK         0.0000 
      6 C6          0.1748   51.8191   15.3882 C.ar      1 UNK         0.0000 
      7 C7          0.5596   53.1296   15.6690 C.ar      1 UNK         0.0000 
      8 C8          2.0272   53.4970   15.4843 C.3       1 UNK         0.0000 
      9 C9          3.0700   52.3981   17.5182 C.3       1 UNK         0.0000 
     10 C10         3.6599   52.7126   18.9044 C.3       1 UNK         0.0000 
     11 C11         4.9172   53.6358   18.9118 C.3       1 UNK         0.0000 
     12 C12         4.6237   54.8743   18.0165 C.3       1 UNK         0.0000 
     13 C13         4.0367   54.5605   16.6285 C.3       1 UNK         0.0000 
     14 C14         5.3526   54.1016   20.3260 C.ar      1 UNK         0.0000 
     15 C15         6.5064   54.8991   20.4478 C.ar      1 UNK         0.0000 
     16 C16         7.0164   55.2974   21.6876 C.ar      1 UNK         0.0000 
     17 C17         6.3048   54.8954   22.8188 C.ar      1 UNK         0.0000 
     18 C18         5.1140   54.1401   22.7414 C.ar      1 UNK         0.0000 
     19 C19         4.6487   53.7294   21.4875 C.ar      1 UNK         0.0000 
     20 C20         4.6772   53.9989   24.0889 C.2       1 UNK         0.0000 
     21 C21         5.6373   54.6181   24.8884 C.2       1 UNK         0.0000 
     22 O22         6.6213   55.1763   24.1181 O.3       1 UNK         0.0000 
     23 C23         5.7431   54.7411   26.3227 C.2       1 UNK         0.0000 
     24 O24         6.7048   55.2961   26.8517 O.2       1 UNK         0.0000 
     25 N25         4.7116   54.2168   27.0074 N.am      1 UNK         0.0000 
     26 C26         4.5681   54.2250   28.4687 C.3       1 UNK         0.0000 
     27 C27         3.7372   53.0304   28.9879 C.3       1 UNK         0.0000 
     28 H28         4.3276   52.1199   28.8635 H         1 UNK         0.0000 
     29 C29         2.3941   52.8131   28.2903 C.3       1 UNK         0.0000 
     30 C30         1.6025   52.0599   29.3300 C.3       1 UNK         0.0000 
     31 C31         2.0900   52.6678   30.6466 C.3       1 UNK         0.0000 
     32 O32         3.3765   53.2340   30.3560 O.3       1 UNK         0.0000 
     33 O33         5.9517   52.8968   18.2781 O.3       1 UNK         0.0000 
     34 O34        -3.4514   51.9746   16.1547 O.3       1 UNK         0.0000 
     35 C35        -3.8711   50.6382   15.8915 C.3       1 UNK         0.0000 
     36 C36        -2.8092   54.6567   16.7139 C.3       1 UNK         0.0000 
     37 H37        -0.7941   56.2182   16.2665 H         1 UNK         0.0000 
     38 H38         0.3247   55.5802   17.4762 H         1 UNK         0.0000 
     39 H39         0.8172   55.8631   15.8020 H         1 UNK         0.0000 
     40 H40        -1.3921   50.3934   15.3203 H         1 UNK         0.0000 
     41 H41         0.9025   51.0922   15.0513 H         1 UNK         0.0000 
     42 H42         2.1298   54.4035   14.8883 H         1 UNK         0.0000 
     43 H43         2.5993   52.7170   14.9750 H         1 UNK         0.0000 
     44 H44         3.7569   51.8304   16.8824 H         1 UNK         0.0000 
     45 H45         2.1326   51.8495   17.6285 H         1 UNK         0.0000 
     46 H46         3.9024   51.7754   19.4120 H         1 UNK         0.0000 
     47 H47         2.8689   53.1488   19.5174 H         1 UNK         0.0000 
     48 H48         3.9753   55.5687   18.5541 H         1 UNK         0.0000 
     49 H49         5.5374   55.4504   17.8771 H         1 UNK         0.0000 
     50 H50         4.7156   53.9775   15.9993 H         1 UNK         0.0000 
     51 H51         3.7587   55.4865   16.1202 H         1 UNK         0.0000 
     52 H52         7.0625   55.1663   19.5611 H         1 UNK         0.0000 
     53 H53         7.9313   55.8674   21.7752 H         1 UNK         0.0000 
     54 H54         3.7555   53.1292   21.4500 H         1 UNK         0.0000 
     55 H55         3.7945   53.4817   24.4354 H         1 UNK         0.0000 
     56 H56         3.9388   53.8320   26.4859 H         1 UNK         0.0000 
     57 H57         4.0760   55.1593   28.7438 H         1 UNK         0.0000 
     58 H58         5.5455   54.2193   28.9548 H         1 UNK         0.0000 
     59 H59         2.4940   52.3009   27.3320 H         1 UNK         0.0000 
     60 H60         1.9306   53.7738   28.0538 H         1 UNK         0.0000 
     61 H61         1.8362   50.9961   29.2815 H         1 UNK         0.0000 
     62 H62         0.5243   52.1674   29.1950 H         1 UNK         0.0000 
     63 H63         2.1501   51.9038   31.4233 H         1 UNK         0.0000 
     64 H64         1.4043   53.4645   30.9399 H         1 UNK         0.0000 
     65 H65         5.7275   51.9459   18.2909 H         1 UNK         0.0000 
     66 H66        -4.9405   50.5512   16.0860 H         1 UNK         0.0000 
     67 H67        -3.7028   50.3623   14.8484 H         1 UNK         0.0000 
     68 H68        -3.3599   49.9231   16.5394 H         1 UNK         0.0000 
     69 H69        -3.7889   54.2109   16.8810 H         1 UNK         0.0000 
     70 H70        -2.4994   55.1272   17.6465 H         1 UNK         0.0000 
     71 H71        -2.9327   55.4448   15.9707 H         1 UNK         0.0000 
     72 N72         2.7470   53.7412   16.8291 N.4       1 UNK         0.0000 
     73 H73         2.1115   54.2636   17.4175 H         1 UNK         0.0000 
@<TRIPOS>BOND
     1    1    2 1    
     2    1   37 1    
     3    1   38 1    
     4    1   39 1    
     5    2    7 ar   
     6    2    3 ar   
     7    3    4 ar   
     8    3   36 1    
     9    4    5 ar   
    10    4   34 1    
    11    5    6 ar   
    12    5   40 1    
    13    6    7 ar   
    14    6   41 1    
    15    7    8 1    
    16    8   42 1    
    17    8   43 1    
    18    8   72 1    
    19    9   10 1    
    20    9   44 1    
    21    9   45 1    
    22    9   72 1    
    23   10   11 1    
    24   10   46 1    
    25   10   47 1    
    26   11   12 1    
    27   11   14 1    
    28   11   33 1    
    29   12   13 1    
    30   12   48 1    
    31   12   49 1    
    32   13   50 1    
    33   13   51 1    
    34   13   72 1    
    35   14   19 ar   
    36   14   15 ar   
    37   15   16 ar   
    38   15   52 1    
    39   16   17 ar   
    40   16   53 1    
    41   17   22 1    
    42   17   18 ar   
    43   18   19 ar   
    44   18   20 1    
    45   19   54 1    
    46   20   21 2    
    47   20   55 1    
    48   21   22 1    
    49   21   23 1    
    50   23   24 2    
    51   23   25 am   BACKBONE|DICT|INTERRES
    52   25   26 1    
    53   25   56 1    
    54   26   27 1    
    55   26   57 1    
    56   26   58 1    
    57   27   28 1    
    58   27   32 1    
    59   27   29 1    
    60   29   30 1    
    61   29   59 1    
    62   29   60 1    
    63   30   31 1    
    64   30   61 1    
    65   30   62 1    
    66   31   32 1    
    67   31   63 1    
    68   31   64 1    
    69   33   65 1    
    70   34   35 1    
    71   35   66 1    
    72   35   67 1    
    73   35   68 1    
    74   36   69 1    
    75   36   70 1    
    76   36   71 1    
    77   72   73 1    
@<TRIPOS>SUBSTRUCTURE
     1 UNK         1 GROUP             0       ****    0 ROOT    
