@<TRIPOS>MOLECULE
ZINC09281352_2740
52   56    1
SMALL
USER_CHARGES


@<TRIPOS>ATOM
      1 C1         -5.0665   48.1704   22.0654 C.3       1 UNK         0.0000 
      2 C2         -5.2426   49.6925   21.9275 C.3       1 UNK         0.0000 
      3 C3         -5.3597   50.3731   23.3022 C.3       1 UNK         0.0000 
      4 C4         -4.1890   50.3108   21.0024 C.ar      1 UNK         0.0000 
      5 C5         -2.8450   50.7501   21.2202 C.ar      1 UNK         0.0000 
      6 C6         -2.4745   51.2069   19.9683 C.ar      1 UNK         0.0000 
      7 N7         -3.5170   51.0429   19.1193 N.pl3     1 UNK         0.0000 
      8 H8         -3.5155   51.2672   18.1346 H         1 UNK         0.0000 
      9 N9         -4.5572   50.4918   19.7405 N.2       1 UNK         0.0000 
     10 O10        -1.2737   51.7158   19.5544 O.3       1 UNK         0.0000 
     11 C11        -0.3051   51.6732   20.5079 C.2       1 UNK         0.0000 
     12 C12        -0.4499   51.2557   21.7926 C.2       1 UNK         0.0000 
     13 C13        -1.8171   50.8017   22.3772 C.3       1 UNK         0.0000 
     14 C14        -1.7374   49.5163   23.1403 C.ar      1 UNK         0.0000 
     15 C15        -1.4931   48.2058   22.7257 C.ar      1 UNK         0.0000 
     16 C16        -1.4807   47.1809   23.6738 C.ar      1 UNK         0.0000 
     17 C17        -1.6900   47.4652   25.0255 C.ar      1 UNK         0.0000 
     18 C18        -1.9220   48.7787   25.4321 C.ar      1 UNK         0.0000 
     19 C19        -1.9363   49.7959   24.4796 C.ar      1 UNK         0.0000 
     20 N20        -2.2043   51.1526   24.6487 N.am      1 UNK         0.0000 
     21 C21        -2.2246   51.8194   23.4672 C.2       1 UNK         0.0000 
     22 O22        -2.4922   53.0077   23.2815 O.2       1 UNK         0.0000 
     23 C23        -2.4114   51.8348   25.9342 C.3       1 UNK         0.0000 
     24 C24        -1.1722   51.9287   26.8238 C.ar      1 UNK         0.0000 
     25 C25        -1.2956   51.6953   28.1957 C.ar      1 UNK         0.0000 
     26 C26        -0.1828   51.7859   29.0271 C.ar      1 UNK         0.0000 
     27 C27         1.0610   52.1002   28.4842 C.ar      1 UNK         0.0000 
     28 C28         1.1951   52.3277   27.1162 C.ar      1 UNK         0.0000 
     29 C29         0.0803   52.2414   26.2868 C.ar      1 UNK         0.0000 
     30 Cl30        2.4450   52.2062   29.5112 Cl        1 UNK         0.0000 
     31 C31         0.7081   51.2433   22.6319 C.1       1 UNK         0.0000 
     32 N32         1.6628   51.2509   23.2839 N.1       1 UNK         0.0000 
     33 N33         0.8541   52.0969   19.9178 N.pl3     1 UNK         0.0000 
     34 H34        -5.0523   47.6811   21.0908 H         1 UNK         0.0000 
     35 H35        -5.8834   47.7318   22.6401 H         1 UNK         0.0000 
     36 H36        -4.1441   47.9158   22.5816 H         1 UNK         0.0000 
     37 H37        -6.2253   49.8326   21.4702 H         1 UNK         0.0000 
     38 H38        -5.3655   51.4605   23.2259 H         1 UNK         0.0000 
     39 H39        -6.2843   50.0791   23.8003 H         1 UNK         0.0000 
     40 H40        -4.5526   50.0810   23.9668 H         1 UNK         0.0000 
     41 H41        -1.3242   47.9764   21.6838 H         1 UNK         0.0000 
     42 H42        -1.2989   46.1659   23.3579 H         1 UNK         0.0000 
     43 H43        -1.6642   46.6793   25.7668 H         1 UNK         0.0000 
     44 H44        -2.0923   48.9868   26.4800 H         1 UNK         0.0000 
     45 H45        -2.7900   52.8477   25.7871 H         1 UNK         0.0000 
     46 H46        -3.1868   51.2885   26.4728 H         1 UNK         0.0000 
     47 H47        -2.2507   51.4285   28.6251 H         1 UNK         0.0000 
     48 H48        -0.2898   51.6022   30.0869 H         1 UNK         0.0000 
     49 H49         2.1609   52.5673   26.6961 H         1 UNK         0.0000 
     50 H50         0.1914   52.4278   25.2296 H         1 UNK         0.0000 
     51 H51         1.6806   52.2873   20.4664 H         1 UNK         0.0000 
     52 H52         0.9600   52.0684   18.9142 H         1 UNK         0.0000 
@<TRIPOS>BOND
     1    1    2 1    
     2    1   34 1    
     3    1   35 1    
     4    1   36 1    
     5    2    3 1    
     6    2    4 1    
     7    2   37 1    
     8    3   38 1    
     9    3   39 1    
    10    3   40 1    
    11    4    9 ar   
    12    4    5 ar   
    13    5   13 1    
    14    5    6 ar   
    15    6    7 ar   
    16    6   10 1    
    17    7    8 1    
    18    7    9 ar   
    19   10   11 1    
    20   11   12 2    
    21   11   33 1    
    22   12   13 1    
    23   12   31 1    
    24   13   21 1    
    25   13   14 1    
    26   14   19 ar   
    27   14   15 ar   
    28   15   16 ar   
    29   15   41 1    
    30   16   17 ar   
    31   16   42 1    
    32   17   18 ar   
    33   17   43 1    
    34   18   19 ar   
    35   18   44 1    
    36   19   20 1    
    37   20   21 am   BACKBONE|DICT|INTERRES
    38   20   23 1    
    39   21   22 2    
    40   23   24 1    
    41   23   45 1    
    42   23   46 1    
    43   24   29 ar   
    44   24   25 ar   
    45   25   26 ar   
    46   25   47 1    
    47   26   27 ar   
    48   26   48 1    
    49   27   28 ar   
    50   27   30 1    
    51   28   29 ar   
    52   28   49 1    
    53   29   50 1    
    54   31   32 3    
    55   33   51 1    
    56   33   52 1    
@<TRIPOS>SUBSTRUCTURE
     1 UNK         1 GROUP             0       ****    0 ROOT    
