@<TRIPOS>MOLECULE
ZINC57316268_2126
44   47    1
SMALL
USER_CHARGES


@<TRIPOS>ATOM
      1 C1          6.5424   53.7785   27.9730 C.3       1 UNK         0.0000 
      2 C2          5.4865   54.5279   28.8023 C.3       1 UNK         0.0000 
      3 C3          4.2173   53.7339   29.0322 C.ar      1 UNK         0.0000 
      4 N4          3.8176   53.1302   30.1327 N.2       1 UNK         0.0000 
      5 N5          2.5951   52.4979   29.8911 N.2       1 UNK         0.0000 
      6 C6          2.3165   52.7340   28.6314 C.ar      1 UNK         0.0000 
      7 N7          3.2841   53.5033   28.0500 N.pl3     1 UNK         0.0000 
      8 N8          3.1709   53.8363   26.7458 N.2       1 UNK         0.0000 
      9 C9          2.1108   53.2472   26.2552 C.2       1 UNK         0.0000 
     10 S10         1.1044   52.3584   27.4229 S.3       1 UNK         0.0000 
     11 C11         1.8801   53.1789   24.7743 C.ar      1 UNK         0.0000 
     12 C12         0.8441   52.4416   24.1920 C.ar      1 UNK         0.0000 
     13 C13         0.7786   52.2935   22.8043 C.ar      1 UNK         0.0000 
     14 C14         1.7657   52.8542   21.9907 C.ar      1 UNK         0.0000 
     15 C15         2.8148   53.5863   22.5511 C.ar      1 UNK         0.0000 
     16 C16         2.8167   53.7942   23.9325 C.ar      1 UNK         0.0000 
     17 N17         3.8033   54.0960   21.6801 N.pl3     1 UNK         0.0000 
     18 C18         5.1273   54.4242   21.8383 C.2       1 UNK         0.0000 
     19 S19         6.0469   54.0967   23.2180 S.2       1 UNK         0.0000 
     20 N20         5.5801   55.0469   20.7009 N.am      1 UNK         0.0000 
     21 C21         6.7330   55.7036   20.3947 C.2       1 UNK         0.0000 
     22 O22         7.7592   55.6965   21.0779 O.2       1 UNK         0.0000 
     23 C23         6.7101   56.5019   19.1066 C.ar      1 UNK         0.0000 
     24 C24         7.9148   56.9403   18.5292 C.ar      1 UNK         0.0000 
     25 C25         7.9106   57.7298   17.3776 C.ar      1 UNK         0.0000 
     26 C26         6.7039   58.0963   16.7849 C.ar      1 UNK         0.0000 
     27 C27         5.5010   57.6611   17.3345 C.ar      1 UNK         0.0000 
     28 C28         5.5039   56.8669   18.4805 C.ar      1 UNK         0.0000 
     29 Br29        3.8462   58.1645   16.5428 Br        1 UNK         0.0000 
     30 H30         7.3997   54.4221   27.7709 H         1 UNK         0.0000 
     31 H31         6.9151   52.8962   28.4818 H         1 UNK         0.0000 
     32 H32         6.1402   53.4543   27.0090 H         1 UNK         0.0000 
     33 H33         5.2326   55.4108   28.2277 H         1 UNK         0.0000 
     34 H34         5.9049   54.8968   29.7361 H         1 UNK         0.0000 
     35 H35         0.1007   51.9550   24.8065 H         1 UNK         0.0000 
     36 H36        -0.0182   51.7156   22.3622 H         1 UNK         0.0000 
     37 H37         1.7183   52.7043   20.9207 H         1 UNK         0.0000 
     38 H38         3.5790   54.4135   24.3724 H         1 UNK         0.0000 
     39 H39         3.4540   54.1850   20.7382 H         1 UNK         0.0000 
     40 H40         4.8921   55.1058   19.9666 H         1 UNK         0.0000 
     41 H41         8.8668   56.6843   18.9749 H         1 UNK         0.0000 
     42 H42         8.8420   58.0689   16.9490 H         1 UNK         0.0000 
     43 H43         6.6975   58.7250   15.9052 H         1 UNK         0.0000 
     44 H44         4.5456   56.5718   18.8816 H         1 UNK         0.0000 
@<TRIPOS>BOND
     1    1    2 1    
     2    1   30 1    
     3    1   31 1    
     4    1   32 1    
     5    2    3 1    
     6    2   33 1    
     7    2   34 1    
     8    3    7 ar   
     9    3    4 ar   
    10    4    5 ar   
    11    5    6 ar   
    12    6   10 1    
    13    6    7 ar   
    14    7    8 1    
    15    8    9 2    
    16    9   10 1    
    17    9   11 1    
    18   11   16 ar   
    19   11   12 ar   
    20   12   13 ar   
    21   12   35 1    
    22   13   14 ar   
    23   13   36 1    
    24   14   15 ar   
    25   14   37 1    
    26   15   16 ar   
    27   15   17 1    
    28   16   38 1    
    29   17   18 1    
    30   17   39 1    
    31   18   19 2    
    32   18   20 am   BACKBONE|DICT|INTERRES
    33   20   21 am   BACKBONE|DICT|INTERRES
    34   20   40 1    
    35   21   22 2    
    36   21   23 1    
    37   23   28 ar   
    38   23   24 ar   
    39   24   25 ar   
    40   24   41 1    
    41   25   26 ar   
    42   25   42 1    
    43   26   27 ar   
    44   26   43 1    
    45   27   28 ar   
    46   27   29 1    
    47   28   44 1    
@<TRIPOS>SUBSTRUCTURE
     1 UNK         1 GROUP             0       ****    0 ROOT    
