@<TRIPOS>MOLECULE
ZINC36704291_5712
67   70    1
SMALL
USER_CHARGES


@<TRIPOS>ATOM
      1 C1          5.4062   54.4769   28.7181 C.3       1 UNK         0.0000 
      2 C2          4.2395   53.9707   27.8903 C.ar      1 UNK         0.0000 
      3 C3          3.2422   53.2005   28.4943 C.ar      1 UNK         0.0000 
      4 C4          2.1546   52.6889   27.7745 C.ar      1 UNK         0.0000 
      5 C5          2.0977   52.9829   26.3947 C.ar      1 UNK         0.0000 
      6 C6          3.1028   53.7874   25.7911 C.ar      1 UNK         0.0000 
      7 C7          4.1764   54.2886   26.5332 C.ar      1 UNK         0.0000 
      8 S8          2.7397   53.9873   24.0878 S.3       1 UNK         0.0000 
      9 C9          1.3193   52.9663   24.3083 C.2       1 UNK         0.0000 
     10 N10         1.1409   52.5382   25.5332 N.2       1 UNK         0.0000 
     11 N11         0.5056   52.6446   23.1964 N.am      1 UNK         0.0000 
     12 C12         1.1981   52.4961   21.8863 C.3       1 UNK         0.0000 
     13 C13         1.8719   51.1113   21.7092 C.3       1 UNK         0.0000 
     14 C14         3.2086   51.0857   20.9252 C.3       1 UNK         0.0000 
     15 N15         3.1041   51.3184   19.3937 N.4       1 UNK         0.0000 
     16 C16         2.2222   50.2901   18.6508 C.3       1 UNK         0.0000 
     17 C17         2.7597   52.7662   18.9903 C.3       1 UNK         0.0000 
     18 C18        -0.8221   52.2854   23.2753 C.2       1 UNK         0.0000 
     19 O19        -1.4264   51.8770   22.2767 O.2       1 UNK         0.0000 
     20 C20        -1.6542   52.4343   24.5846 C.3       1 UNK         0.0000 
     21 C21        -3.1055   52.9049   24.3024 C.3       1 UNK         0.0000 
     22 C22        -3.8381   53.0892   25.6526 C.3       1 UNK         0.0000 
     23 N23        -3.7501   51.8720   26.5082 N.pl3     1 UNK         0.0000 
     24 C24        -2.4081   51.2532   26.6719 C.3       1 UNK         0.0000 
     25 C25        -1.6893   51.0687   25.3209 C.3       1 UNK         0.0000 
     26 S26        -5.1971   50.8845   26.8050 S.o2      1 UNK         0.0000 
     27 O27        -6.3955   51.6523   26.4461 O.2       1 UNK         0.0000 
     28 O28        -4.9595   49.5337   26.2813 O.2       1 UNK         0.0000 
     29 C29        -5.1738   50.7487   28.6110 C.2       1 UNK         0.0000 
     30 C30        -4.2748   49.9945   29.3548 C.2       1 UNK         0.0000 
     31 C31        -4.4954   50.0937   30.7319 C.2       1 UNK         0.0000 
     32 C32        -5.5807   50.8971   31.0432 C.2       1 UNK         0.0000 
     33 S33        -6.3097   51.5861   29.6273 S.3       1 UNK         0.0000 
     34 C34         1.1159   51.8399   28.4952 C.3       1 UNK         0.0000 
     35 H35         5.9128   55.3061   28.2283 H         1 UNK         0.0000 
     36 H36         5.0678   54.8408   29.6882 H         1 UNK         0.0000 
     37 H37         6.1295   53.6775   28.8793 H         1 UNK         0.0000 
     38 H38         3.3223   52.9801   29.5494 H         1 UNK         0.0000 
     39 H39         4.9438   54.8855   26.0626 H         1 UNK         0.0000 
     40 H40         0.5031   52.6689   21.0619 H         1 UNK         0.0000 
     41 H41         1.9383   53.2867   21.7713 H         1 UNK         0.0000 
     42 H42         2.0942   50.7004   22.6970 H         1 UNK         0.0000 
     43 H43         1.1528   50.4083   21.2883 H         1 UNK         0.0000 
     44 H44         3.9376   51.8073   21.3003 H         1 UNK         0.0000 
     45 H45         3.6604   50.0983   20.9939 H         1 UNK         0.0000 
     46 H46         1.1864   50.4166   18.9694 H         1 UNK         0.0000 
     47 H47         2.3318   50.4900   17.5809 H         1 UNK         0.0000 
     48 H48         2.6078   49.2982   18.8863 H         1 UNK         0.0000 
     49 H49         1.6982   52.9336   19.1760 H         1 UNK         0.0000 
     50 H50         3.3853   53.4403   19.5761 H         1 UNK         0.0000 
     51 H51         2.9874   52.8532   17.9267 H         1 UNK         0.0000 
     52 H52        -1.1737   53.2166   25.1700 H         1 UNK         0.0000 
     53 H53        -3.1272   53.8772   23.8052 H         1 UNK         0.0000 
     54 H54        -3.6774   52.1592   23.7410 H         1 UNK         0.0000 
     55 H55        -3.4481   53.9312   26.2244 H         1 UNK         0.0000 
     56 H56        -4.8876   53.3155   25.4664 H         1 UNK         0.0000 
     57 H57        -1.8332   51.8573   27.3728 H         1 UNK         0.0000 
     58 H58        -2.5231   50.2740   27.1404 H         1 UNK         0.0000 
     59 H59        -2.2490   50.3168   24.7580 H         1 UNK         0.0000 
     60 H60        -0.6941   50.6940   25.5673 H         1 UNK         0.0000 
     61 H61        -3.4829   49.3917   28.9327 H         1 UNK         0.0000 
     62 H62        -3.8772   49.5948   31.4670 H         1 UNK         0.0000 
     63 H63        -5.9590   51.1231   32.0302 H         1 UNK         0.0000 
     64 H64         0.9352   50.9107   27.9498 H         1 UNK         0.0000 
     65 H65         0.1670   52.3776   28.5538 H         1 UNK         0.0000 
     66 H66         1.4201   51.5718   29.5106 H         1 UNK         0.0000 
     67 H67         4.0405   51.1359   19.0172 H         1 UNK         0.0000 
@<TRIPOS>BOND
     1    1    2 1    
     2    1   35 1    
     3    1   36 1    
     4    1   37 1    
     5    2    7 ar   
     6    2    3 ar   
     7    3    4 ar   
     8    3   38 1    
     9    4    5 ar   
    10    4   34 1    
    11    5   10 1    
    12    5    6 ar   
    13    6    7 ar   
    14    6    8 1    
    15    7   39 1    
    16    8    9 1    
    17    9   10 2    
    18    9   11 am   BACKBONE|DICT|INTERRES
    19   11   12 1    
    20   11   18 am   BACKBONE|DICT|INTERRES
    21   12   13 1    
    22   12   40 1    
    23   12   41 1    
    24   13   14 1    
    25   13   42 1    
    26   13   43 1    
    27   14   15 1    
    28   14   44 1    
    29   14   45 1    
    30   15   16 1    
    31   15   17 1    
    32   15   67 1    
    33   16   46 1    
    34   16   47 1    
    35   16   48 1    
    36   17   49 1    
    37   17   50 1    
    38   17   51 1    
    39   18   19 2    
    40   18   20 1    
    41   20   25 1    
    42   20   21 1    
    43   20   52 1    
    44   21   22 1    
    45   21   53 1    
    46   21   54 1    
    47   22   23 1    
    48   22   55 1    
    49   22   56 1    
    50   23   24 1    
    51   23   26 1    
    52   24   25 1    
    53   24   57 1    
    54   24   58 1    
    55   25   59 1    
    56   25   60 1    
    57   26   27 2    
    58   26   28 2    
    59   26   29 1    
    60   29   33 1    
    61   29   30 2    
    62   30   31 1    
    63   30   61 1    
    64   31   32 2    
    65   31   62 1    
    66   32   33 1    
    67   32   63 1    
    68   34   64 1    
    69   34   65 1    
    70   34   66 1    
@<TRIPOS>SUBSTRUCTURE
     1 UNK         1 GROUP             0       ****    0 ROOT    
