@<TRIPOS>MOLECULE
ZINC00866080_5168
57   60    1
SMALL
USER_CHARGES


@<TRIPOS>ATOM
      1 C1          0.7035   52.7141   31.8985 C.3       1 UNK         0.0000 
      2 O2          1.7320   52.8682   30.9284 O.3       1 UNK         0.0000 
      3 C3          1.4158   52.7194   29.5922 C.ar      1 UNK         0.0000 
      4 C4          0.1482   52.3214   29.1384 C.ar      1 UNK         0.0000 
      5 C5         -0.1165   52.2199   27.7792 C.ar      1 UNK         0.0000 
      6 C6          0.8762   52.4982   26.8386 C.ar      1 UNK         0.0000 
      7 C7          2.1469   52.8817   27.2925 C.ar      1 UNK         0.0000 
      8 C8          2.4303   52.9924   28.6633 C.ar      1 UNK         0.0000 
      9 O9          3.6657   53.3714   29.1665 O.3       1 UNK         0.0000 
     10 C10         4.7329   53.6622   28.2724 C.3       1 UNK         0.0000 
     11 C11         0.5332   52.4192   25.3444 C.3       1 UNK         0.0000 
     12 H12        -0.3239   53.0840   25.2562 H         1 UNK         0.0000 
     13 C13         0.0887   51.0002   24.9054 C.3       1 UNK         0.0000 
     14 C14        -0.2646   50.9007   23.3969 C.3       1 UNK         0.0000 
     15 H15        -0.3108   49.8463   23.1161 H         1 UNK         0.0000 
     16 N16         0.8665   51.4978   22.6867 N.pl3     1 UNK         0.0000 
     17 C17         1.6822   52.5089   23.1556 C.ar      1 UNK         0.0000 
     18 C18         2.5703   52.8064   22.1304 C.ar      1 UNK         0.0000 
     19 C19         2.1698   51.9484   21.0898 C.ar      1 UNK         0.0000 
     20 N20         1.1425   51.1961   21.4110 N.2       1 UNK         0.0000 
     21 C21         3.7037   53.6968   22.1943 C.2       1 UNK         0.0000 
     22 O22         4.1252   54.0963   23.2807 O.2       1 UNK         0.0000 
     23 N23         4.2245   54.0073   20.9912 N.am      1 UNK         0.0000 
     24 C24         5.4119   54.6949   20.6643 C.ar      1 UNK         0.0000 
     25 C25         6.3900   55.0397   21.6163 C.ar      1 UNK         0.0000 
     26 C26         7.5541   55.6967   21.2278 C.ar      1 UNK         0.0000 
     27 C27         7.7588   56.0290   19.8920 C.ar      1 UNK         0.0000 
     28 C28         6.7927   55.7107   18.9412 C.ar      1 UNK         0.0000 
     29 C29         5.6309   55.0334   19.3163 C.ar      1 UNK         0.0000 
     30 S30         4.4313   54.6898   18.0527 S.3       1 UNK         0.0000 
     31 C31         4.5515   52.9050   17.7518 C.3       1 UNK         0.0000 
     32 N32         1.5551   52.9763   24.4477 N.pl3     1 UNK         0.0000 
     33 C33        -1.6325   51.5286   23.0239 C.3       1 UNK         0.0000 
     34 F34        -2.6228   50.9556   23.7086 F         1 UNK         0.0000 
     35 F35        -1.6927   52.8377   23.2817 F         1 UNK         0.0000 
     36 F36        -1.9124   51.3749   21.7279 F         1 UNK         0.0000 
     37 H37         1.1036   52.9361   32.8812 H         1 UNK         0.0000 
     38 H38        -0.1254   53.4051   31.7258 H         1 UNK         0.0000 
     39 H39         0.3149   51.6964   31.9173 H         1 UNK         0.0000 
     40 H40        -0.6497   52.0891   29.8293 H         1 UNK         0.0000 
     41 H41        -1.1070   51.9260   27.4625 H         1 UNK         0.0000 
     42 H42         2.9209   53.0881   26.5691 H         1 UNK         0.0000 
     43 H43         5.6162   53.9402   28.8459 H         1 UNK         0.0000 
     44 H44         4.9979   52.7948   27.6642 H         1 UNK         0.0000 
     45 H45         4.4900   54.4984   27.6152 H         1 UNK         0.0000 
     46 H46        -0.7769   50.6870   25.4918 H         1 UNK         0.0000 
     47 H47         0.8528   50.2633   25.1529 H         1 UNK         0.0000 
     48 H48         2.6237   51.8582   20.1163 H         1 UNK         0.0000 
     49 H49         3.6971   53.6968   20.1878 H         1 UNK         0.0000 
     50 H50         6.2871   54.7888   22.6605 H         1 UNK         0.0000 
     51 H51         8.3039   55.9425   21.9677 H         1 UNK         0.0000 
     52 H52         8.6688   56.5319   19.5913 H         1 UNK         0.0000 
     53 H53         6.9516   55.9799   17.9070 H         1 UNK         0.0000 
     54 H54         3.8664   52.5976   16.9626 H         1 UNK         0.0000 
     55 H55         5.5629   52.6352   17.4468 H         1 UNK         0.0000 
     56 H56         4.3047   52.3436   18.6513 H         1 UNK         0.0000 
     57 H57         1.8056   53.9337   24.6547 H         1 UNK         0.0000 
@<TRIPOS>BOND
     1    1    2 1    
     2    1   37 1    
     3    1   38 1    
     4    1   39 1    
     5    2    3 1    
     6    3    8 ar   
     7    3    4 ar   
     8    4    5 ar   
     9    4   40 1    
    10    5    6 ar   
    11    5   41 1    
    12    6    7 ar   
    13    6   11 1    
    14    7    8 ar   
    15    7   42 1    
    16    8    9 1    
    17    9   10 1    
    18   10   43 1    
    19   10   44 1    
    20   10   45 1    
    21   11   12 1    
    22   11   32 1    
    23   11   13 1    
    24   13   14 1    
    25   13   46 1    
    26   13   47 1    
    27   14   15 1    
    28   14   16 1    
    29   14   33 1    
    30   16   20 ar   
    31   16   17 ar   
    32   17   18 ar   
    33   17   32 1    
    34   18   19 ar   
    35   18   21 1    
    36   19   20 ar   
    37   19   48 1    
    38   21   22 2    
    39   21   23 am   BACKBONE|DICT|INTERRES
    40   23   24 1    
    41   23   49 1    
    42   24   29 ar   
    43   24   25 ar   
    44   25   26 ar   
    45   25   50 1    
    46   26   27 ar   
    47   26   51 1    
    48   27   28 ar   
    49   27   52 1    
    50   28   29 ar   
    51   28   53 1    
    52   29   30 1    
    53   30   31 1    
    54   31   54 1    
    55   31   55 1    
    56   31   56 1    
    57   32   57 1    
    58   33   34 1    
    59   33   35 1    
    60   33   36 1    
@<TRIPOS>SUBSTRUCTURE
     1 UNK         1 GROUP             0       ****    0 ROOT    
