ZINC51632525_4805
                    3D
 Schrodinger Suite 2024-2.
 39 41  0  0  1  0            999 V2000
    3.7779   53.9429   28.5957 C   0  0  0  0  0  0
    5.1106   54.3211   28.4821 C   0  0  0  0  0  0
    5.6743   54.4966   27.2232 C   0  0  0  0  0  0
    4.9223   54.3088   26.0580 C   0  0  0  0  0  0
    3.5715   53.8975   26.1700 C   0  0  0  0  0  0
    3.0202   53.7319   27.4466 C   0  0  0  0  0  0
    2.7291   53.5779   24.9302 C   0  0  0  0  0  0
    3.2849   54.2352   23.6576 C   0  0  0  0  0  0
    4.8006   53.9591   23.5257 C   0  0  2  0  0  0
    4.9960   52.8967   23.5230 H   0  0  0  0  0  0
    5.5527   54.6154   24.6993 C   0  0  0  0  0  0
    5.3697   54.4967   22.2936 N   0  0  0  0  0  0
    5.1056   54.0568   20.9852 C   0  0  0  0  0  0
    4.1448   53.0776   20.6981 C   0  0  0  0  0  0
    3.8773   52.7088   19.3823 C   0  0  0  0  0  0
    4.5807   53.2984   18.3370 C   0  0  0  0  0  0
    5.5737   54.2356   18.6075 C   0  0  0  0  0  0
    5.8592   54.6038   19.9268 C   0  0  0  0  0  0
    7.2251   55.7442   20.2186 S   0  0  0  0  0  0
    6.7043   57.1070   20.0818 O   0  0  0  0  0  0
    7.9041   55.3209   21.4449 O   0  0  0  0  0  0
    8.3610   55.4978   18.9215 N   0  0  0  0  0  0
    3.3331   53.8052   29.5697 H   0  0  0  0  0  0
    5.7096   54.4970   29.3624 H   0  0  0  0  0  0
    6.7045   54.8143   27.1553 H   0  0  0  0  0  0
    1.9919   53.4164   27.5481 H   0  0  0  0  0  0
    2.7053   52.4967   24.7957 H   0  0  0  0  0  0
    1.6939   53.8859   25.0857 H   0  0  0  0  0  0
    2.7019   53.9066   22.8012 H   0  0  0  0  0  0
    3.1051   55.2969   23.7282 H   0  0  0  0  0  0
    5.5506   55.6992   24.5801 H   0  0  0  0  0  0
    6.6002   54.3076   24.6923 H   0  0  0  0  0  0
    6.3413   54.7750   22.3843 H   0  0  0  0  0  0
    3.6041   52.5722   21.4798 H   0  0  0  0  0  0
    3.1404   51.9484   19.1688 H   0  0  0  0  0  0
    4.3806   52.9965   17.3191 H   0  0  0  0  0  0
    6.1319   54.6560   17.7836 H   0  0  0  0  0  0
    8.4431   56.2887   18.2792 H   0  0  0  0  0  0
    9.2633   55.1254   19.2327 H   0  0  0  0  0  0
  1  6  2  0  0  0
  1  2  1  0  0  0
  1 23  1  0  0  0
  2  3  2  0  0  0
  2 24  1  0  0  0
  3  4  1  0  0  0
  3 25  1  0  0  0
  4 11  1  0  0  0
  4  5  2  0  0  0
  5  6  1  0  0  0
  5  7  1  0  0  0
  6 26  1  0  0  0
  7  8  1  0  0  0
  7 27  1  0  0  0
  7 28  1  0  0  0
  8  9  1  0  0  0
  8 29  1  0  0  0
  8 30  1  0  0  0
  9 10  1  0  0  0
  9 11  1  0  0  0
  9 12  1  0  0  0
 11 31  1  0  0  0
 11 32  1  0  0  0
 12 13  1  0  0  0
 12 33  1  0  0  0
 13 18  2  0  0  0
 13 14  1  0  0  0
 14 15  2  0  0  0
 14 34  1  0  0  0
 15 16  1  0  0  0
 15 35  1  0  0  0
 16 17  2  0  0  0
 16 36  1  0  0  0
 17 18  1  0  0  0
 17 37  1  0  0  0
 18 19  1  0  0  0
 19 20  2  0  0  0
 19 21  2  0  0  0
 19 22  1  0  0  0
 22 38  1  0  0  0
 22 39  1  0  0  0
M  END
> <i_i_glide_confnum>
1

> <i_i_glide_lignum>
4806

> <i_i_glide_posenum>
298

> <i_i_glide_rotatable_bonds>
3

> <i_m_Source_File_Index>
3722

> <b_m_subgroup_collapsed>
0

> <r_i_docking_score>
-5.56099

> <r_i_glide_ecoul>
-3.10271

> <r_i_glide_eff_state_penalty>
0

> <r_i_glide_einternal>
2.96476

> <r_i_glide_emodel>
-46.6628

> <r_i_glide_energy>
-37.2546

> <r_i_glide_erotb>
0.402694

> <r_i_glide_esite>
-0.0611154

> <r_i_glide_evdw>
-34.1519

> <r_i_glide_gscore>
-5.56099

> <r_i_glide_hbond>
0

> <r_i_glide_ligand_efficiency>
-0.264809

> <r_i_glide_ligand_efficiency_ln>
-1.37494

> <r_i_glide_ligand_efficiency_sa>
-0.730588

> <r_i_glide_lipo>
-2.62007

> <r_i_glide_metal>
0

> <r_i_glide_rewards>
-1.1095

> <s_i_glide_gridfile>
wee1_glide-grid

> <s_m_Source_File>
wee1_decoys_glide_SP.sdf

> <s_m_Source_Path>
/Users/zhangxujun/Desktop

> <s_m_entry_id>
3997

> <s_m_entry_name>
wee1_decoys_glide_SP.3722

> <s_m_subgroup_title>
wee1_decoys_glide_SP

> <s_m_subgroupid>
wee1_decoys_glide_SP


$$$$
