@<TRIPOS>MOLECULE
ZINC13364826_5942
57   60    1
SMALL
USER_CHARGES


@<TRIPOS>ATOM
      1 C1          1.6841   55.7727   29.8045 C.3       1 UNK         0.0000 
      2 C2          1.0800   54.7388   28.8406 C.3       1 UNK         0.0000 
      3 C3          1.8697   53.4119   28.7078 C.3       1 UNK         0.0000 
      4 H4          1.8642   52.9529   29.6979 H         1 UNK         0.0000 
      5 C5          3.3611   53.5480   28.3105 C.3       1 UNK         0.0000 
      6 C6          3.5252   54.2435   26.9430 C.3       1 UNK         0.0000 
      7 C7          2.5756   53.5797   25.9538 C.2       1 UNK         0.0000 
      8 C8          1.5043   52.7479   26.3047 C.2       1 UNK         0.0000 
      9 C9          0.7890   52.3279   25.1759 C.2       1 UNK         0.0000 
     10 C10         1.3173   52.7653   23.9611 C.2       1 UNK         0.0000 
     11 S11         2.6707   53.8237   24.2415 S.3       1 UNK         0.0000 
     12 C12         0.8167   52.4306   22.6228 C.ar      1 UNK         0.0000 
     13 N13        -0.4194   52.0468   22.4136 N.2       1 UNK         0.0000 
     14 N14        -0.5523   51.7604   21.0626 N.2       1 UNK         0.0000 
     15 C15         0.6173   51.9425   20.5069 C.ar      1 UNK         0.0000 
     16 N16         1.5311   52.4020   21.4365 N.pl3     1 UNK         0.0000 
     17 C17         2.9338   52.7396   21.2108 C.3       1 UNK         0.0000 
     18 S18         0.9094   51.6919   18.7885 S.3       1 UNK         0.0000 
     19 C19         2.0240   50.2479   18.9072 C.3       1 UNK         0.0000 
     20 C20         1.3029   48.8972   18.8537 C.2       1 UNK         0.0000 
     21 O21         0.3221   48.7103   19.5725 O.2       1 UNK         0.0000 
     22 N22         1.8162   47.9847   17.9979 N.am      1 UNK         0.0000 
     23 C23         1.3678   46.6701   17.7406 C.ar      1 UNK         0.0000 
     24 C24         0.6725   45.9029   18.6967 C.ar      1 UNK         0.0000 
     25 C25         0.3039   44.5710   18.4443 C.ar      1 UNK         0.0000 
     26 C26         0.6299   44.0222   17.1948 C.ar      1 UNK         0.0000 
     27 C27         1.3112   44.7693   16.2374 C.ar      1 UNK         0.0000 
     28 C28         1.6965   46.0851   16.5022 C.ar      1 UNK         0.0000 
     29 C29         2.4620   46.8471   15.4281 C.3       1 UNK         0.0000 
     30 C30        -0.3869   43.7389   19.4908 C.2       1 UNK         0.0000 
     31 O31        -0.4070   42.4968   19.3350 O.co2     1 UNK         0.0000 
     32 C32         1.1665   52.4052   27.7572 C.3       1 UNK         0.0000 
     33 H33         1.0672   56.6717   29.8471 H         1 UNK         0.0000 
     34 H34         1.7469   55.3770   30.8163 H         1 UNK         0.0000 
     35 H35         2.6801   56.0848   29.4936 H         1 UNK         0.0000 
     36 H36         0.9597   55.2015   27.8608 H         1 UNK         0.0000 
     37 H37         0.0722   54.4966   29.1815 H         1 UNK         0.0000 
     38 H38         3.8336   52.5636   28.2761 H         1 UNK         0.0000 
     39 H39         3.9033   54.1307   29.0567 H         1 UNK         0.0000 
     40 H40         4.5608   54.1824   26.6076 H         1 UNK         0.0000 
     41 H41         3.2782   55.2962   27.0383 H         1 UNK         0.0000 
     42 H42        -0.0730   51.6791   25.2399 H         1 UNK         0.0000 
     43 H43         3.5592   52.1922   21.9153 H         1 UNK         0.0000 
     44 H44         3.2376   52.4810   20.1966 H         1 UNK         0.0000 
     45 H45         3.0675   53.8138   21.3298 H         1 UNK         0.0000 
     46 H46         2.6282   50.2844   19.8109 H         1 UNK         0.0000 
     47 H47         2.7153   50.3240   18.0703 H         1 UNK         0.0000 
     48 H48         2.5848   48.3014   17.4120 H         1 UNK         0.0000 
     49 H49         0.4417   46.3220   19.6658 H         1 UNK         0.0000 
     50 H50         0.3629   43.0010   16.9614 H         1 UNK         0.0000 
     51 H51         1.5564   44.3119   15.2912 H         1 UNK         0.0000 
     52 H52         2.4318   46.3443   14.4600 H         1 UNK         0.0000 
     53 H53         2.0387   47.8422   15.2811 H         1 UNK         0.0000 
     54 H54         3.5048   46.9699   15.7273 H         1 UNK         0.0000 
     55 H55         0.0887   52.4166   27.9179 H         1 UNK         0.0000 
     56 H56         1.4820   51.3880   27.9907 H         1 UNK         0.0000 
     57 O57        -0.8960   44.3130   20.4793 O.co2     1 UNK         0.0000 
@<TRIPOS>BOND
     1    1    2 1    
     2    1   33 1    
     3    1   34 1    
     4    1   35 1    
     5    2    3 1    
     6    2   36 1    
     7    2   37 1    
     8    3    4 1    
     9    3   32 1    
    10    3    5 1    
    11    5    6 1    
    12    5   38 1    
    13    5   39 1    
    14    6    7 1    
    15    6   40 1    
    16    6   41 1    
    17    7   11 1    
    18    7    8 2    
    19    8    9 1    
    20    8   32 1    
    21    9   10 2    
    22    9   42 1    
    23   10   11 1    
    24   10   12 1    
    25   12   16 ar   
    26   12   13 ar   
    27   13   14 ar   
    28   14   15 ar   
    29   15   16 ar   
    30   15   18 1    
    31   16   17 1    
    32   17   43 1    
    33   17   44 1    
    34   17   45 1    
    35   18   19 1    
    36   19   20 1    
    37   19   46 1    
    38   19   47 1    
    39   20   21 2    
    40   20   22 am   BACKBONE|DICT|INTERRES
    41   22   23 1    
    42   22   48 1    
    43   23   28 ar   
    44   23   24 ar   
    45   24   25 ar   
    46   24   49 1    
    47   25   26 ar   
    48   25   30 1    
    49   26   27 ar   
    50   26   50 1    
    51   27   28 ar   
    52   27   51 1    
    53   28   29 1    
    54   29   52 1    
    55   29   53 1    
    56   29   54 1    
    57   30   31 2    
    58   30   57 1    
    59   32   55 1    
    60   32   56 1    
@<TRIPOS>SUBSTRUCTURE
     1 UNK         1 GROUP             0       ****    0 ROOT    
