@<TRIPOS>MOLECULE
ZINC57328249_1909
22   23    1
SMALL
USER_CHARGES


@<TRIPOS>ATOM
      1 C1          2.5395   53.3338   27.4635 C.ar      1 UNK         0.0000 
      2 C2          3.5162   53.2980   28.4592 C.ar      1 UNK         0.0000 
      3 C3          4.8343   53.6630   28.1908 C.ar      1 UNK         0.0000 
      4 C4          5.1551   54.0577   26.8864 C.ar      1 UNK         0.0000 
      5 C5          4.1752   54.0920   25.8544 C.ar      1 UNK         0.0000 
      6 C6          2.8463   53.7137   26.1545 C.ar      1 UNK         0.0000 
      7 O7          1.8530   53.7902   25.2030 O.3       1 UNK         0.0000 
      8 C8          1.8797   52.8212   24.1601 C.3       1 UNK         0.0000 
      9 F9          2.5585   53.2589   23.1004 F         1 UNK         0.0000 
     10 F10         0.6268   52.5569   23.7935 F         1 UNK         0.0000 
     11 N11         4.6487   54.4966   24.6420 N.2       1 UNK         0.0000 
     12 C12         5.9285   54.7425   24.6862 C.2       1 UNK         0.0000 
     13 S13         6.7043   54.5566   26.2353 S.3       1 UNK         0.0000 
     14 N14         6.7044   55.1591   23.6251 N.pl3     1 UNK         0.0000 
     15 N15         6.3042   54.8963   22.2592 N.3       1 UNK         0.0000 
     16 Br16        3.0502   52.7297   30.2156 Br        1 UNK         0.0000 
     17 H17         1.5238   53.0561   27.7059 H         1 UNK         0.0000 
     18 H18         5.5876   53.6328   28.9641 H         1 UNK         0.0000 
     19 H19         2.3042   51.8671   24.4753 H         1 UNK         0.0000 
     20 H20         7.7131   55.0340   23.6820 H         1 UNK         0.0000 
     21 H21         5.6217   54.1481   22.2850 H         1 UNK         0.0000 
     22 H22         5.8579   55.7297   21.9004 H         1 UNK         0.0000 
@<TRIPOS>BOND
     1    1    6 ar   
     2    1    2 ar   
     3    1   17 1    
     4    2    3 ar   
     5    2   16 1    
     6    3    4 ar   
     7    3   18 1    
     8    4   13 1    
     9    4    5 ar   
    10    5    6 ar   
    11    5   11 1    
    12    6    7 1    
    13    7    8 1    
    14    8    9 1    
    15    8   10 1    
    16    8   19 1    
    17   11   12 2    
    18   12   13 1    
    19   12   14 1    
    20   14   15 1    
    21   14   20 1    
    22   15   21 1    
    23   15   22 1    
@<TRIPOS>SUBSTRUCTURE
     1 UNK         1 GROUP             0       ****    0 ROOT    
