ZINC30976460_4834
                    3D
 Schrodinger Suite 2024-2.
 66 69  0  0  1  0            999 V2000
    4.8823   53.9017   28.4979 C   0  0  0  0  0  0
    5.1458   54.1047   27.0162 C   0  0  0  0  0  0
    4.0940   54.0971   26.0993 C   0  0  0  0  0  0
    4.3525   54.2887   24.7429 C   0  0  0  0  0  0
    5.6630   54.4960   24.2881 C   0  0  0  0  0  0
    6.7049   54.4995   25.2207 C   0  0  0  0  0  0
    6.4522   54.3045   26.5763 C   0  0  0  0  0  0
    5.9546   54.7433   22.8315 C   0  0  0  0  0  0
    5.0646   54.4966   21.8870 N   0  0  0  0  0  0
    5.6508   54.9641   20.8156 C   0  0  0  0  0  0
    6.8845   55.4667   21.0522 O   0  0  0  0  0  0
    7.0807   55.2948   22.4191 N   0  0  0  0  0  0
    5.1221   55.0368   19.3910 C   0  0  0  0  0  0
    3.9045   54.0956   19.1913 N   0  3  1  0  0  0
    3.1987   54.3742   17.8365 C   0  0  0  0  0  0
    1.9799   53.4312   17.6880 C   0  0  0  0  0  0
    2.4392   51.9580   17.8108 C   0  0  1  0  0  0
    3.1168   51.7175   19.1770 C   0  0  0  0  0  0
    4.3573   52.6206   19.2821 C   0  0  0  0  0  0
    1.2518   50.9755   17.6939 C   0  0  0  0  0  0
    0.1703   51.2203   18.2310 O   0  0  0  0  0  0
    1.5045   49.8346   17.0341 N   0  0  0  0  0  0
    0.6543   48.6536   16.9605 C   0  0  0  0  0  0
    0.9975   47.6712   18.0956 C   0  0  0  0  0  0
    0.3481   46.2848   17.9808 C   0  0  0  0  0  0
    1.0043   45.2112   16.6613 S   0  0  0  0  0  0
    0.1299   43.6360   16.9548 C   0  0  0  0  0  0
    0.4616   43.0352   18.3149 C   0  0  0  0  0  0
   -0.3209   43.3675   19.4227 C   0  0  0  0  0  0
    0.0410   42.9139   20.6852 C   0  0  0  0  0  0
    1.1538   42.0966   20.8382 C   0  0  0  0  0  0
    1.9057   41.7091   19.7316 C   0  0  0  0  0  0
    1.5633   42.1860   18.4658 C   0  0  0  0  0  0
    1.5040   41.6968   22.0779 F   0  0  0  0  0  0
    3.8281   53.7157   28.7103 H   0  0  0  0  0  0
    5.4614   53.0554   28.8696 H   0  0  0  0  0  0
    5.2002   54.7840   29.0569 H   0  0  0  0  0  0
    3.0771   53.9434   26.4324 H   0  0  0  0  0  0
    3.5230   54.2892   24.0498 H   0  0  0  0  0  0
    7.7216   54.6506   24.8907 H   0  0  0  0  0  0
    7.2683   54.3076   27.2843 H   0  0  0  0  0  0
    5.8597   54.7388   18.6430 H   0  0  0  0  0  0
    4.7707   56.0419   19.1562 H   0  0  0  0  0  0
    3.9328   54.2419   17.0397 H   0  0  0  0  0  0
    2.8653   55.4130   17.8632 H   0  0  0  0  0  0
    1.5555   53.6304   16.7023 H   0  0  0  0  0  0
    1.2790   53.6964   18.4809 H   0  0  0  0  0  0
    3.1248   51.7004   16.9983 H   0  0  0  0  0  0
    2.4629   51.9770   20.0126 H   0  0  0  0  0  0
    3.4900   50.6952   19.2713 H   0  0  0  0  0  0
    5.0781   52.4973   18.4725 H   0  0  0  0  0  0
    4.8493   52.4552   20.2408 H   0  0  0  0  0  0
    2.4635   49.6952   16.7085 H   0  0  0  0  0  0
    0.8304   48.1735   15.9966 H   0  0  0  0  0  0
   -0.4091   48.9010   16.9617 H   0  0  0  0  0  0
    0.7069   48.1208   19.0468 H   0  0  0  0  0  0
    2.0810   47.5436   18.1497 H   0  0  0  0  0  0
   -0.7297   46.3826   17.8481 H   0  0  0  0  0  0
    0.5003   45.7851   18.9354 H   0  0  0  0  0  0
    0.3970   42.9344   16.1627 H   0  0  0  0  0  0
   -0.9442   43.8018   16.8653 H   0  0  0  0  0  0
   -1.1705   44.0277   19.3157 H   0  0  0  0  0  0
   -0.5105   43.2405   21.5559 H   0  0  0  0  0  0
    2.7701   41.0734   19.8613 H   0  0  0  0  0  0
    2.1735   41.9267   17.6110 H   0  0  0  0  0  0
    3.2313   54.2811   19.9269 H   0  0  0  0  0  0
  1  2  1  0  0  0
  1 35  1  0  0  0
  1 36  1  0  0  0
  1 37  1  0  0  0
  2  7  2  0  0  0
  2  3  1  0  0  0
  3  4  2  0  0  0
  3 38  1  0  0  0
  4  5  1  0  0  0
  4 39  1  0  0  0
  5  6  2  0  0  0
  5  8  1  0  0  0
  6  7  1  0  0  0
  6 40  1  0  0  0
  7 41  1  0  0  0
  8 12  2  0  0  0
  8  9  1  0  0  0
  9 10  2  0  0  0
 10 11  1  0  0  0
 10 13  1  0  0  0
 11 12  1  0  0  0
 13 14  1  0  0  0
 13 42  1  0  0  0
 13 43  1  0  0  0
 14 19  1  0  0  0
 14 15  1  0  0  0
 14 66  1  0  0  0
 15 16  1  0  0  0
 15 44  1  0  0  0
 15 45  1  0  0  0
 16 17  1  0  0  0
 16 46  1  0  0  0
 16 47  1  0  0  0
 17 18  1  0  0  0
 17 20  1  0  0  0
 17 48  1  0  0  0
 18 19  1  0  0  0
 18 49  1  0  0  0
 18 50  1  0  0  0
 19 51  1  0  0  0
 19 52  1  0  0  0
 20 21  2  0  0  0
 20 22  1  0  0  0
 22 23  1  0  0  0
 22 53  1  0  0  0
 23 24  1  0  0  0
 23 54  1  0  0  0
 23 55  1  0  0  0
 24 25  1  0  0  0
 24 56  1  0  0  0
 24 57  1  0  0  0
 25 26  1  0  0  0
 25 58  1  0  0  0
 25 59  1  0  0  0
 26 27  1  0  0  0
 27 28  1  0  0  0
 27 60  1  0  0  0
 27 61  1  0  0  0
 28 33  2  0  0  0
 28 29  1  0  0  0
 29 30  2  0  0  0
 29 62  1  0  0  0
 30 31  1  0  0  0
 30 63  1  0  0  0
 31 32  2  0  0  0
 31 34  1  0  0  0
 32 33  1  0  0  0
 32 64  1  0  0  0
 33 65  1  0  0  0
M  CHG  1  14   1
M  END
> <i_i_glide_confnum>
65

> <i_i_glide_lignum>
4835

> <i_i_glide_posenum>
271

> <i_i_glide_rotatable_bonds>
11

> <i_m_Source_File_Index>
490

> <b_m_subgroup_collapsed>
0

> <r_i_docking_score>
-5.63964

> <r_i_glide_ecoul>
-7.23941

> <r_i_glide_eff_state_penalty>
0

> <r_i_glide_einternal>
4.13411

> <r_i_glide_emodel>
-64.3844

> <r_i_glide_energy>
-47.1988

> <r_i_glide_erotb>
0.868016

> <r_i_glide_esite>
-0.160861

> <r_i_glide_evdw>
-39.9594

> <r_i_glide_gscore>
-5.63964

> <r_i_glide_hbond>
-0.16

> <r_i_glide_ligand_efficiency>
-0.165872

> <r_i_glide_ligand_efficiency_ln>
-1.24595

> <r_i_glide_ligand_efficiency_sa>
-0.53736

> <r_i_glide_lipo>
-2.17698

> <r_i_glide_metal>
0

> <r_i_glide_rewards>
-0.925928

> <s_i_glide_gridfile>
wee1_glide-grid

> <s_m_Source_File>
wee1_decoys_glide_SP.sdf

> <s_m_Source_Path>
/Users/zhangxujun/Desktop

> <s_m_entry_id>
765

> <s_m_entry_name>
wee1_decoys_glide_SP.490

> <s_m_subgroup_title>
wee1_decoys_glide_SP

> <s_m_subgroupid>
wee1_decoys_glide_SP


$$$$
