ZINC64774488_2026
                    3D
 Schrodinger Suite 2024-2.
 56 58  0  0  1  0            999 V2000
   -5.2956   44.2319   27.5478 C   0  0  0  0  0  0
   -4.8256   45.1513   26.4432 C   0  0  0  0  0  0
   -5.1838   44.8798   25.1220 C   0  0  0  0  0  0
   -4.7427   45.7074   24.0893 C   0  0  0  0  0  0
   -3.9692   46.8295   24.3918 C   0  0  0  0  0  0
   -3.6343   47.1350   25.7225 C   0  0  0  0  0  0
   -4.0374   46.2683   26.7403 C   0  0  0  0  0  0
   -2.8967   48.2801   26.0817 N   0  0  0  0  0  0
   -2.9663   49.4817   25.4657 C   0  0  0  0  0  0
   -3.7838   49.7438   24.5786 O   0  0  0  0  0  0
   -1.9844   50.5600   25.9401 C   0  0  0  0  0  0
   -1.7772   51.9220   24.7314 S   0  0  0  0  0  0
   -0.1468   52.5658   24.8915 C   0  0  0  0  0  0
    0.5053   52.3612   26.0537 N   0  0  0  0  0  0
    1.7448   52.8964   26.1382 C   0  0  0  0  0  0
    2.2970   52.6635   27.2563 O   0  5  0  0  0  0
    2.3328   53.6122   25.0654 C   0  0  0  0  0  0
    1.5544   53.8262   23.9646 N   0  0  0  0  0  0
    0.3262   53.2973   23.8570 N   0  0  0  0  0  0
    3.7839   54.0803   24.9872 C   0  0  0  0  0  0
    4.4655   54.3706   26.1842 C   0  0  0  0  0  0
    5.8266   54.6510   26.2277 C   0  0  0  0  0  0
    6.5305   54.7657   25.0385 C   0  0  0  0  0  0
    5.9005   54.5688   23.8135 C   0  0  0  0  0  0
    4.5387   54.1776   23.7757 C   0  0  0  0  0  0
    3.9148   53.9551   22.5277 N   0  0  0  0  0  0
    4.1990   52.9772   21.6447 C   0  0  0  0  0  0
    5.1056   52.1590   21.7711 O   0  0  0  0  0  0
    3.3096   52.9111   20.4105 C   0  0  0  0  0  0
    6.7451   54.8505   22.5741 C   0  0  0  0  0  0
    6.5385   54.7674   27.5641 C   0  0  0  0  0  0
   -5.1267   45.4118   22.6503 C   0  0  0  0  0  0
   -6.3755   44.3050   27.6781 H   0  0  0  0  0  0
   -4.7995   44.4831   28.4817 H   0  0  0  0  0  0
   -5.0517   43.1944   27.3123 H   0  0  0  0  0  0
   -5.8006   44.0205   24.8989 H   0  0  0  0  0  0
   -3.6428   47.4706   23.5860 H   0  0  0  0  0  0
   -3.7652   46.4817   27.7648 H   0  0  0  0  0  0
   -2.3565   48.2251   26.9552 H   0  0  0  0  0  0
   -2.3416   50.9734   26.8837 H   0  0  0  0  0  0
   -1.0147   50.1010   26.1388 H   0  0  0  0  0  0
    3.9570   54.3460   27.1330 H   0  0  0  0  0  0
    7.5796   55.0181   25.0562 H   0  0  0  0  0  0
    3.0777   54.4911   22.3515 H   0  0  0  0  0  0
    2.2559   52.9047   20.6899 H   0  0  0  0  0  0
    3.4997   53.7695   19.7654 H   0  0  0  0  0  0
    3.5171   52.0059   19.8381 H   0  0  0  0  0  0
    6.1773   54.9130   21.6473 H   0  0  0  0  0  0
    7.2535   55.8097   22.6866 H   0  0  0  0  0  0
    7.5251   54.0959   22.4823 H   0  0  0  0  0  0
    7.6193   54.6826   27.4547 H   0  0  0  0  0  0
    6.3024   55.6965   28.0808 H   0  0  0  0  0  0
    6.2298   53.9526   28.2186 H   0  0  0  0  0  0
   -5.3002   46.3382   22.1007 H   0  0  0  0  0  0
   -4.3371   44.8550   22.1444 H   0  0  0  0  0  0
   -6.0546   44.8396   22.5965 H   0  0  0  0  0  0
  1  2  1  0  0  0
  1 33  1  0  0  0
  1 34  1  0  0  0
  1 35  1  0  0  0
  2  7  2  0  0  0
  2  3  1  0  0  0
  3  4  2  0  0  0
  3 36  1  0  0  0
  4  5  1  0  0  0
  4 32  1  0  0  0
  5  6  2  0  0  0
  5 37  1  0  0  0
  6  7  1  0  0  0
  6  8  1  0  0  0
  7 38  1  0  0  0
  8  9  1  0  0  0
  8 39  1  0  0  0
  9 10  2  0  0  0
  9 11  1  0  0  0
 11 12  1  0  0  0
 11 40  1  0  0  0
 11 41  1  0  0  0
 12 13  1  0  0  0
 13 14  2  0  0  0
 13 19  1  0  0  0
 14 15  1  0  0  0
 15 16  1  0  0  0
 15 17  2  0  0  0
 17 18  1  0  0  0
 17 20  1  0  0  0
 18 19  2  0  0  0
 20 25  2  0  0  0
 20 21  1  0  0  0
 21 22  2  0  0  0
 21 42  1  0  0  0
 22 23  1  0  0  0
 22 31  1  0  0  0
 23 24  2  0  0  0
 23 43  1  0  0  0
 24 25  1  0  0  0
 24 30  1  0  0  0
 25 26  1  0  0  0
 26 27  1  0  0  0
 26 44  1  0  0  0
 27 28  2  0  0  0
 27 29  1  0  0  0
 29 45  1  0  0  0
 29 46  1  0  0  0
 29 47  1  0  0  0
 30 48  1  0  0  0
 30 49  1  0  0  0
 30 50  1  0  0  0
 31 51  1  0  0  0
 31 52  1  0  0  0
 31 53  1  0  0  0
 32 54  1  0  0  0
 32 55  1  0  0  0
 32 56  1  0  0  0
M  CHG  1  16  -1
M  END
> <i_i_glide_confnum>
25

> <i_i_glide_lignum>
2027

> <i_i_glide_posenum>
47

> <i_i_glide_rotatable_bonds>
8

> <i_m_Source_File_Index>
2883

> <b_m_subgroup_collapsed>
0

> <r_i_docking_score>
-6.01896

> <r_i_glide_ecoul>
-9.20664

> <r_i_glide_eff_state_penalty>
0

> <r_i_glide_einternal>
9.18872

> <r_i_glide_emodel>
-62.686

> <r_i_glide_energy>
-48.892

> <r_i_glide_erotb>
0.691436

> <r_i_glide_esite>
-0.150811

> <r_i_glide_evdw>
-39.6854

> <r_i_glide_gscore>
-6.01896

> <r_i_glide_hbond>
-0.16

> <r_i_glide_ligand_efficiency>
-0.188092

> <r_i_glide_ligand_efficiency_ln>
-1.34781

> <r_i_glide_ligand_efficiency_sa>
-0.597156

> <r_i_glide_lipo>
-2.41828

> <r_i_glide_metal>
0

> <r_i_glide_rewards>
-0.61604

> <s_i_glide_gridfile>
wee1_glide-grid

> <s_m_Source_File>
wee1_decoys_glide_SP.sdf

> <s_m_Source_Path>
/Users/zhangxujun/Desktop

> <s_m_entry_id>
3158

> <s_m_entry_name>
wee1_decoys_glide_SP.2883

> <s_m_subgroup_title>
wee1_decoys_glide_SP

> <s_m_subgroupid>
wee1_decoys_glide_SP


$$$$
