@<TRIPOS>MOLECULE
ZINC13466333_44
41   42    1
SMALL
USER_CHARGES


@<TRIPOS>ATOM
      1 C1          9.7753   57.2684   17.9305 C.3       1 UNK         0.0000 
      2 S2          8.2660   58.3819   18.0819 S.o       1 UNK         0.0000 
      3 N3          7.4644   57.6965   19.2156 N.2       1 UNK         0.0000 
      4 S4          6.6024   56.2304   18.8106 S.o2      1 UNK         0.0000 
      5 O5          7.2185   55.3397   17.8233 O.2       1 UNK         0.0000 
      6 O6          5.1445   56.3475   18.7221 O.2       1 UNK         0.0000 
      7 N7          6.9640   55.4785   20.3408 N.am      1 UNK         0.0000 
      8 C8          6.0264   54.8975   21.2095 C.2       1 UNK         0.0000 
      9 O9          4.9363   54.4957   20.8145 O.2       1 UNK         0.0000 
     10 N10         6.4654   54.8486   22.4839 N.am      1 UNK         0.0000 
     11 C11         5.7548   54.4974   23.6504 C.ar      1 UNK         0.0000 
     12 C12         6.4513   54.6096   24.8568 C.ar      1 UNK         0.0000 
     13 C13         5.7997   54.4085   26.0728 C.ar      1 UNK         0.0000 
     14 C14         4.4398   54.0969   26.0916 C.ar      1 UNK         0.0000 
     15 C15         3.7259   53.9641   24.8941 C.ar      1 UNK         0.0000 
     16 C16         4.3942   54.1462   23.6804 C.ar      1 UNK         0.0000 
     17 C17         2.2329   53.6372   24.8764 C.3       1 UNK         0.0000 
     18 F18         1.7000   53.6967   26.0978 F         1 UNK         0.0000 
     19 F19         2.0438   52.4094   24.4001 F         1 UNK         0.0000 
     20 F20         1.5872   54.4950   24.0831 F         1 UNK         0.0000 
     21 O21         8.7275   59.7697   18.1858 O.2       1 UNK         0.0000 
     22 C22         7.2962   58.2428   16.5704 C.ar      1 UNK         0.0000 
     23 C23         5.9304   58.5301   16.6041 C.ar      1 UNK         0.0000 
     24 C24         5.1788   58.4974   15.4330 C.ar      1 UNK         0.0000 
     25 C25         5.8033   58.1995   14.2246 C.ar      1 UNK         0.0000 
     26 C26         7.1728   57.9458   14.1757 C.ar      1 UNK         0.0000 
     27 C27         7.9251   57.9856   15.3482 C.ar      1 UNK         0.0000 
     28 H28         9.4768   56.2508   17.6967 H         1 UNK         0.0000 
     29 H29        10.4265   57.6607   17.1538 H         1 UNK         0.0000 
     30 H30        10.2977   57.2957   18.8838 H         1 UNK         0.0000 
     31 H31         7.8366   55.8479   20.7257 H         1 UNK         0.0000 
     32 H32         7.4055   55.1761   22.6455 H         1 UNK         0.0000 
     33 H33         7.5001   54.8748   24.8597 H         1 UNK         0.0000 
     34 H34         6.3395   54.5030   27.0023 H         1 UNK         0.0000 
     35 H35         3.9493   53.9476   27.0443 H         1 UNK         0.0000 
     36 H36         3.8114   54.0517   22.7789 H         1 UNK         0.0000 
     37 H37         5.4531   58.7960   17.5371 H         1 UNK         0.0000 
     38 H38         4.1237   58.7265   15.4657 H         1 UNK         0.0000 
     39 H39         5.2213   58.1793   13.3147 H         1 UNK         0.0000 
     40 H40         7.6507   57.7345   13.2308 H         1 UNK         0.0000 
     41 H41         8.9882   57.8043   15.2942 H         1 UNK         0.0000 
@<TRIPOS>BOND
     1    1    2 1    
     2    1   28 1    
     3    1   29 1    
     4    1   30 1    
     5    2    3 2    
     6    2   21 2    
     7    2   22 1    
     8    3    4 1    
     9    4    5 2    
    10    4    6 2    
    11    4    7 1    
    12    7    8 am   BACKBONE|DICT|INTERRES
    13    7   31 1    
    14    8    9 2    
    15    8   10 am   BACKBONE|DICT|INTERRES
    16   10   11 1    
    17   10   32 1    
    18   11   16 ar   
    19   11   12 ar   
    20   12   13 ar   
    21   12   33 1    
    22   13   14 ar   
    23   13   34 1    
    24   14   15 ar   
    25   14   35 1    
    26   15   16 ar   
    27   15   17 1    
    28   16   36 1    
    29   17   18 1    
    30   17   19 1    
    31   17   20 1    
    32   22   27 ar   
    33   22   23 ar   
    34   23   24 ar   
    35   23   37 1    
    36   24   25 ar   
    37   24   38 1    
    38   25   26 ar   
    39   25   39 1    
    40   26   27 ar   
    41   26   40 1    
    42   27   41 1    
@<TRIPOS>SUBSTRUCTURE
     1 UNK         1 GROUP             0       ****    0 ROOT    
