@<TRIPOS>MOLECULE
ZINC63479832_1260
61   67    1
SMALL
USER_CHARGES


@<TRIPOS>ATOM
      1 C1          5.3619   54.0996   25.8511 C.3       1 UNK         0.0000 
      2 C2          5.4800   54.3759   24.3645 C.ar      1 UNK         0.0000 
      3 C3          6.6701   54.8869   23.8482 C.ar      1 UNK         0.0000 
      4 C4          6.7933   55.1270   22.4817 C.ar      1 UNK         0.0000 
      5 C5          5.7263   54.8552   21.6148 C.ar      1 UNK         0.0000 
      6 C6          4.5331   54.3327   22.1428 C.ar      1 UNK         0.0000 
      7 C7          4.4134   54.0968   23.5109 C.ar      1 UNK         0.0000 
      8 N8          5.8564   55.0961   20.2183 N.am      1 UNK         0.0000 
      9 C9          5.4903   54.1931   19.2685 C.2       1 UNK         0.0000 
     10 O10         4.9816   53.0888   19.4592 O.2       1 UNK         0.0000 
     11 C11         5.7373   54.7856   17.8843 C.3       1 UNK         0.0000 
     12 H12         4.7697   54.8336   17.3818 H         1 UNK         0.0000 
     13 C13         6.7944   54.0513   17.0135 C.3       1 UNK         0.0000 
     14 H14         6.5516   54.2774   15.9751 H         1 UNK         0.0000 
     15 N15         8.0431   54.7431   17.2752 N.3       1 UNK         0.0000 
     16 C16         7.7037   56.1611   17.3876 C.3       1 UNK         0.0000 
     17 C17         6.3261   56.1477   18.1553 C.3       1 UNK         0.0000 
     18 H18         5.6577   56.9271   17.7852 H         1 UNK         0.0000 
     19 C19         6.3445   56.2511   19.6870 C.2       1 UNK         0.0000 
     20 O20         6.7006   57.2627   20.3009 O.2       1 UNK         0.0000 
     21 C21         7.6668   56.9330   16.0886 C.ar      1 UNK         0.0000 
     22 C22         6.8244   56.8428   14.9747 C.ar      1 UNK         0.0000 
     23 C23         6.9948   57.7250   13.9046 C.ar      1 UNK         0.0000 
     24 C24         7.9990   58.6954   13.9458 C.ar      1 UNK         0.0000 
     25 C25         8.8371   58.7921   15.0603 C.ar      1 UNK         0.0000 
     26 C26         8.6508   57.9048   16.1194 C.ar      1 UNK         0.0000 
     27 N27         9.3469   57.8214   17.3092 N.am      1 UNK         0.0000 
     28 C28         8.8985   56.8449   18.1137 C.2       1 UNK         0.0000 
     29 O29         9.3554   56.5464   19.2136 O.2       1 UNK         0.0000 
     30 C30         6.8677   52.5033   17.0517 C.3       1 UNK         0.0000 
     31 C31         8.1061   51.8882   16.4165 C.2       1 UNK         0.0000 
     32 C32         8.3569   51.4894   15.1561 C.2       1 UNK         0.0000 
     33 C33         7.5326   51.5625   13.9420 C.2       1 UNK         0.0000 
     34 C34         7.9924   51.0845   12.7663 C.2       1 UNK         0.0000 
     35 C35         9.3256   50.4964   12.7409 C.2       1 UNK         0.0000 
     36 C36        10.0970   50.4128   13.8555 C.2       1 UNK         0.0000 
     37 C37         9.6255   50.9007   15.0810 C.2       1 UNK         0.0000 
     38 N38        10.2033   50.9011   16.2580 N.pl3     1 UNK         0.0000 
     39 C39         9.3144   51.5226   17.2521 C.3       1 UNK         0.0000 
     40 H40         6.3029   53.7103   26.2436 H         1 UNK         0.0000 
     41 H41         5.1172   55.0144   26.3920 H         1 UNK         0.0000 
     42 H42         4.6008   53.3462   26.0609 H         1 UNK         0.0000 
     43 H43         7.5047   55.0980   24.4980 H         1 UNK         0.0000 
     44 H44         7.7292   55.5166   22.1051 H         1 UNK         0.0000 
     45 H45         3.6889   54.1213   21.4985 H         1 UNK         0.0000 
     46 H46         3.4888   53.6979   23.9026 H         1 UNK         0.0000 
     47 H47         8.6846   54.6028   16.5070 H         1 UNK         0.0000 
     48 H48         6.0266   56.1160   14.9304 H         1 UNK         0.0000 
     49 H49         6.3413   57.6624   13.0468 H         1 UNK         0.0000 
     50 H50         8.1205   59.3794   13.1185 H         1 UNK         0.0000 
     51 H51         9.6082   59.5485   15.0875 H         1 UNK         0.0000 
     52 H52        10.1316   58.4024   17.5542 H         1 UNK         0.0000 
     53 H53         5.9777   52.0965   16.5706 H         1 UNK         0.0000 
     54 H54         6.8363   52.1280   18.0729 H         1 UNK         0.0000 
     55 H55         6.5426   51.9956   13.9633 H         1 UNK         0.0000 
     56 H56         7.3898   51.1347   11.8715 H         1 UNK         0.0000 
     57 H57         9.7269   50.1153   11.8105 H         1 UNK         0.0000 
     58 H58        11.0776   49.9626   13.7650 H         1 UNK         0.0000 
     59 H59         9.1055   50.7868   18.0314 H         1 UNK         0.0000 
     60 H60         9.8328   52.3826   17.6818 H         1 UNK         0.0000 
     61 H61        11.1266   50.5293   16.4684 H         1 UNK         0.0000 
@<TRIPOS>BOND
     1    1    2 1    
     2    1   40 1    
     3    1   41 1    
     4    1   42 1    
     5    2    7 ar   
     6    2    3 ar   
     7    3    4 ar   
     8    3   43 1    
     9    4    5 ar   
    10    4   44 1    
    11    5    6 ar   
    12    5    8 1    
    13    6    7 ar   
    14    6   45 1    
    15    7   46 1    
    16    8   19 am   BACKBONE|DICT|INTERRES
    17    8    9 am   BACKBONE|DICT|INTERRES
    18    9   10 2    
    19    9   11 1    
    20   11   12 1    
    21   11   17 1    
    22   11   13 1    
    23   13   14 1    
    24   13   15 1    
    25   13   30 1    
    26   15   16 1    
    27   15   47 1    
    28   16   28 1    
    29   16   17 1    
    30   16   21 1    
    31   17   18 1    
    32   17   19 1    
    33   19   20 2    
    34   21   26 ar   
    35   21   22 ar   
    36   22   23 ar   
    37   22   48 1    
    38   23   24 ar   
    39   23   49 1    
    40   24   25 ar   
    41   24   50 1    
    42   25   26 ar   
    43   25   51 1    
    44   26   27 1    
    45   27   28 am   BACKBONE|DICT|INTERRES
    46   27   52 1    
    47   28   29 2    
    48   30   31 1    
    49   30   53 1    
    50   30   54 1    
    51   31   39 1    
    52   31   32 2    
    53   32   37 1    
    54   32   33 1    
    55   33   34 2    
    56   33   55 1    
    57   34   35 1    
    58   34   56 1    
    59   35   36 2    
    60   35   57 1    
    61   36   37 1    
    62   36   58 1    
    63   37   38 2    
    64   38   39 1    
    65   38   61 1    
    66   39   59 1    
    67   39   60 1    
@<TRIPOS>SUBSTRUCTURE
     1 UNK         1 GROUP             0       ****    0 ROOT    
