@<TRIPOS>MOLECULE
ZINC00681693_4409
47   50    1
SMALL
USER_CHARGES


@<TRIPOS>ATOM
      1 C1          5.6506   55.8949   18.4789 C.3       1 UNK         0.0000 
      2 C2          4.7562   54.6867   18.2837 C.ar      1 UNK         0.0000 
      3 C3          4.4187   54.2276   17.0085 C.ar      1 UNK         0.0000 
      4 C4          3.5856   53.1130   16.9035 C.ar      1 UNK         0.0000 
      5 C5          3.1129   52.4921   18.0612 C.ar      1 UNK         0.0000 
      6 C6          3.5051   53.0023   19.3100 C.ar      1 UNK         0.0000 
      7 N7          4.3109   54.0913   19.4202 N.ar      1 UNK         0.0000 
      8 N8          3.0827   52.4911   20.5438 N.am      1 UNK         0.0000 
      9 C9          2.4182   51.3486   20.8281 C.2       1 UNK         0.0000 
     10 O10         2.2041   50.4268   20.0399 O.2       1 UNK         0.0000 
     11 C11         1.9294   51.2914   22.1882 C.ar      1 UNK         0.0000 
     12 C12         1.6431   52.4006   23.0070 C.ar      1 UNK         0.0000 
     13 C13         1.1062   51.8971   24.1684 C.ar      1 UNK         0.0000 
     14 N14         1.0975   50.5286   24.0120 N.pl3     1 UNK         0.0000 
     15 N15         1.5743   50.1773   22.8031 N.2       1 UNK         0.0000 
     16 C16         0.4783   49.5602   24.9212 C.3       1 UNK         0.0000 
     17 H17         1.1043   48.6677   24.9432 H         1 UNK         0.0000 
     18 C18         0.4637   50.2058   26.3346 C.3       1 UNK         0.0000 
     19 C19         0.0340   51.7002   26.3748 C.3       1 UNK         0.0000 
     20 H20        -1.0315   51.7797   26.1515 H         1 UNK         0.0000 
     21 N21         0.7050   52.4974   25.3385 N.pl3     1 UNK         0.0000 
     22 C22         0.1658   52.2759   27.7901 C.ar      1 UNK         0.0000 
     23 C23        -0.5895   51.6967   28.8105 C.ar      1 UNK         0.0000 
     24 C24        -0.4956   52.1718   30.1094 C.ar      1 UNK         0.0000 
     25 C25         0.3045   53.2723   30.3922 C.ar      1 UNK         0.0000 
     26 C26         1.0710   53.8610   29.3901 C.ar      1 UNK         0.0000 
     27 C27         1.0150   53.3531   28.0937 C.ar      1 UNK         0.0000 
     28 Br28        0.3042   53.9963   32.1498 Br        1 UNK         0.0000 
     29 C29        -0.9218   49.0972   24.4395 C.3       1 UNK         0.0000 
     30 F30        -1.7788   50.1145   24.3331 F         1 UNK         0.0000 
     31 F31        -0.8609   48.4997   23.2487 F         1 UNK         0.0000 
     32 F32        -1.4609   48.2172   25.2825 F         1 UNK         0.0000 
     33 H33         6.0298   56.2718   17.5286 H         1 UNK         0.0000 
     34 H34         6.5066   55.6373   19.1032 H         1 UNK         0.0000 
     35 H35         5.1010   56.7007   18.9645 H         1 UNK         0.0000 
     36 H36         4.7922   54.7157   16.1205 H         1 UNK         0.0000 
     37 H37         3.3114   52.7258   15.9337 H         1 UNK         0.0000 
     38 H38         2.4743   51.6281   17.9650 H         1 UNK         0.0000 
     39 H39         3.2676   53.1086   21.3168 H         1 UNK         0.0000 
     40 H40         1.7945   53.4457   22.7789 H         1 UNK         0.0000 
     41 H41        -0.2270   49.6316   26.9457 H         1 UNK         0.0000 
     42 H42         1.4085   50.0533   26.8611 H         1 UNK         0.0000 
     43 H43         0.3437   53.4390   25.3035 H         1 UNK         0.0000 
     44 H44        -1.2544   50.8699   28.6051 H         1 UNK         0.0000 
     45 H45        -1.0866   51.7042   30.8828 H         1 UNK         0.0000 
     46 H46         1.6967   54.7126   29.6128 H         1 UNK         0.0000 
     47 H47         1.6225   53.8178   27.3316 H         1 UNK         0.0000 
@<TRIPOS>BOND
     1    1    2 1    
     2    1   33 1    
     3    1   34 1    
     4    1   35 1    
     5    2    7 ar   
     6    2    3 ar   
     7    3    4 ar   
     8    3   36 1    
     9    4    5 ar   
    10    4   37 1    
    11    5    6 ar   
    12    5   38 1    
    13    6    7 ar   
    14    6    8 1    
    15    8    9 am   BACKBONE|DICT|INTERRES
    16    8   39 1    
    17    9   10 2    
    18    9   11 1    
    19   11   15 ar   
    20   11   12 ar   
    21   12   13 ar   
    22   12   40 1    
    23   13   21 1    
    24   13   14 ar   
    25   14   15 ar   
    26   14   16 1    
    27   16   17 1    
    28   16   18 1    
    29   16   29 1    
    30   18   19 1    
    31   18   41 1    
    32   18   42 1    
    33   19   20 1    
    34   19   21 1    
    35   19   22 1    
    36   21   43 1    
    37   22   27 ar   
    38   22   23 ar   
    39   23   24 ar   
    40   23   44 1    
    41   24   25 ar   
    42   24   45 1    
    43   25   26 ar   
    44   25   28 1    
    45   26   27 ar   
    46   26   46 1    
    47   27   47 1    
    48   29   30 1    
    49   29   31 1    
    50   29   32 1    
@<TRIPOS>SUBSTRUCTURE
     1 UNK         1 GROUP             0       ****    0 ROOT    
