@<TRIPOS>MOLECULE
ZINC00887379_5762
75   80    1
SMALL
USER_CHARGES


@<TRIPOS>ATOM
      1 C1         -4.8884   47.2149   24.4152 C.3       1 UNK         0.0000 
      2 N2         -4.3851   47.9308   23.2422 N.pl3     1 UNK         0.0000 
      3 C3         -5.1840   47.8716   22.0176 C.3       1 UNK         0.0000 
      4 C4         -3.0762   48.4870   23.2214 C.ar      1 UNK         0.0000 
      5 C5         -2.1555   48.2369   24.2579 C.ar      1 UNK         0.0000 
      6 C6         -0.8838   48.8064   24.2398 C.ar      1 UNK         0.0000 
      7 C7         -0.5053   49.6548   23.1914 C.ar      1 UNK         0.0000 
      8 C8         -1.4086   49.8907   22.1455 C.ar      1 UNK         0.0000 
      9 C9         -2.6729   49.3094   22.1574 C.ar      1 UNK         0.0000 
     10 C10         0.8682   50.3179   23.2214 C.3       1 UNK         0.0000 
     11 H11         1.4374   49.8304   24.0199 H         1 UNK         0.0000 
     12 C12         1.7893   50.0019   21.9961 C.2       1 UNK         0.0000 
     13 O13         2.9796   50.3028   22.0768 O.2       1 UNK         0.0000 
     14 N14         1.2424   49.4197   20.9128 N.am      1 UNK         0.0000 
     15 C15         1.9109   49.1699   19.6369 C.3       1 UNK         0.0000 
     16 C16         2.3059   47.7024   19.5067 C.3       1 UNK         0.0000 
     17 C17         1.1436   46.9940   18.7821 C.3       1 UNK         0.0000 
     18 C18         0.1979   48.1044   18.2877 C.3       1 UNK         0.0000 
     19 C19         0.9731   49.4189   18.4567 C.3       1 UNK         0.0000 
     20 N20         0.7820   51.7625   23.6617 N.am      1 UNK         0.0000 
     21 C21         0.1802   52.0482   24.9052 C.ar      1 UNK         0.0000 
     22 C22         0.9940   52.0942   26.0423 C.ar      1 UNK         0.0000 
     23 C23         0.4361   52.1126   27.3140 C.ar      1 UNK         0.0000 
     24 C24        -0.9432   52.0935   27.4757 C.ar      1 UNK         0.0000 
     25 C25        -1.8075   52.1513   26.3495 C.ar      1 UNK         0.0000 
     26 C26        -1.2436   52.1948   25.0377 C.ar      1 UNK         0.0000 
     27 C27        -2.1331   52.3651   23.9325 C.ar      1 UNK         0.0000 
     28 C28        -3.5135   52.3966   24.1190 C.ar      1 UNK         0.0000 
     29 C29        -4.0530   52.2865   25.3904 C.ar      1 UNK         0.0000 
     30 C30        -3.2186   52.1724   26.4925 C.ar      1 UNK         0.0000 
     31 C31         1.1005   52.8195   22.8626 C.2       1 UNK         0.0000 
     32 O32         0.9970   52.7593   21.6370 O.2       1 UNK         0.0000 
     33 C33         1.6435   54.1254   23.4678 C.3       1 UNK         0.0000 
     34 N34         3.0625   54.2760   23.1886 N.pl3     1 UNK         0.0000 
     35 N35         3.5025   54.4956   21.9501 N.2       1 UNK         0.0000 
     36 C36         4.7942   54.4949   22.1246 C.ar      1 UNK         0.0000 
     37 N37         5.1863   54.2637   23.3677 N.2       1 UNK         0.0000 
     38 N38         4.0214   54.0951   24.0969 N.2       1 UNK         0.0000 
     39 C39         5.6792   54.7588   21.0212 C.2       1 UNK         0.0000 
     40 C40         5.5206   54.4376   19.6764 C.2       1 UNK         0.0000 
     41 C41         6.5704   54.8838   18.8696 C.2       1 UNK         0.0000 
     42 C42         7.5290   55.5795   19.5872 C.2       1 UNK         0.0000 
     43 S43         7.1181   55.6855   21.2654 S.3       1 UNK         0.0000 
     44 H44        -4.5880   47.6967   25.3523 H         1 UNK         0.0000 
     45 H45        -5.9742   47.1646   24.4107 H         1 UNK         0.0000 
     46 H46        -4.5094   46.1925   24.4262 H         1 UNK         0.0000 
     47 H47        -4.5801   47.4645   21.2113 H         1 UNK         0.0000 
     48 H48        -6.0592   47.2320   22.1309 H         1 UNK         0.0000 
     49 H49        -5.5156   48.8661   21.7158 H         1 UNK         0.0000 
     50 H50        -2.4138   47.6121   25.0992 H         1 UNK         0.0000 
     51 H51        -0.2060   48.6078   25.0630 H         1 UNK         0.0000 
     52 H52        -1.1423   50.5606   21.3354 H         1 UNK         0.0000 
     53 H53        -3.3461   49.5378   21.3430 H         1 UNK         0.0000 
     54 H54         0.2720   49.1464   20.9594 H         1 UNK         0.0000 
     55 H55         2.7873   49.8228   19.5904 H         1 UNK         0.0000 
     56 H56         3.1986   47.6896   18.8737 H         1 UNK         0.0000 
     57 H57         2.5904   47.2966   20.4767 H         1 UNK         0.0000 
     58 H58         1.5162   46.4089   17.9384 H         1 UNK         0.0000 
     59 H59         0.6142   46.3049   19.4408 H         1 UNK         0.0000 
     60 H60        -0.1159   47.9504   17.2550 H         1 UNK         0.0000 
     61 H61        -0.7058   48.1283   18.9014 H         1 UNK         0.0000 
     62 H62         0.3348   50.2949   18.5858 H         1 UNK         0.0000 
     63 H63         1.5751   49.6028   17.5651 H         1 UNK         0.0000 
     64 H64         2.0694   52.0958   25.9390 H         1 UNK         0.0000 
     65 H65         1.0797   52.1091   28.1831 H         1 UNK         0.0000 
     66 H66        -1.3615   52.0678   28.4697 H         1 UNK         0.0000 
     67 H67        -1.7340   52.4537   22.9343 H         1 UNK         0.0000 
     68 H68        -4.1921   52.4884   23.2853 H         1 UNK         0.0000 
     69 H69        -5.1243   52.3046   25.5225 H         1 UNK         0.0000 
     70 H70        -3.6450   52.1047   27.4829 H         1 UNK         0.0000 
     71 H71         1.1262   54.9603   23.0019 H         1 UNK         0.0000 
     72 H72         1.4867   54.2263   24.5391 H         1 UNK         0.0000 
     73 H73         4.6767   53.8811   19.2949 H         1 UNK         0.0000 
     74 H74         6.6208   54.7069   17.8048 H         1 UNK         0.0000 
     75 H75         8.4377   56.0276   19.2145 H         1 UNK         0.0000 
@<TRIPOS>BOND
     1    1    2 1    
     2    1   44 1    
     3    1   45 1    
     4    1   46 1    
     5    2    3 1    
     6    2    4 1    
     7    3   47 1    
     8    3   48 1    
     9    3   49 1    
    10    4    9 ar   
    11    4    5 ar   
    12    5    6 ar   
    13    5   50 1    
    14    6    7 ar   
    15    6   51 1    
    16    7    8 ar   
    17    7   10 1    
    18    8    9 ar   
    19    8   52 1    
    20    9   53 1    
    21   10   11 1    
    22   10   12 1    
    23   10   20 1    
    24   12   13 2    
    25   12   14 am   BACKBONE|DICT|INTERRES
    26   14   15 1    
    27   14   54 1    
    28   15   19 1    
    29   15   16 1    
    30   15   55 1    
    31   16   17 1    
    32   16   56 1    
    33   16   57 1    
    34   17   18 1    
    35   17   58 1    
    36   17   59 1    
    37   18   19 1    
    38   18   60 1    
    39   18   61 1    
    40   19   62 1    
    41   19   63 1    
    42   20   21 1    
    43   20   31 am   BACKBONE|DICT|INTERRES
    44   21   26 ar   
    45   21   22 ar   
    46   22   23 ar   
    47   22   64 1    
    48   23   24 ar   
    49   23   65 1    
    50   24   25 ar   
    51   24   66 1    
    52   25   30 ar   
    53   25   26 ar   
    54   26   27 ar   
    55   27   28 ar   
    56   27   67 1    
    57   28   29 ar   
    58   28   68 1    
    59   29   30 ar   
    60   29   69 1    
    61   30   70 1    
    62   31   32 2    
    63   31   33 1    
    64   33   34 1    
    65   33   71 1    
    66   33   72 1    
    67   34   38 ar   
    68   34   35 ar   
    69   35   36 ar   
    70   36   37 ar   
    71   36   39 1    
    72   37   38 ar   
    73   39   43 1    
    74   39   40 2    
    75   40   41 1    
    76   40   73 1    
    77   41   42 2    
    78   41   74 1    
    79   42   43 1    
    80   42   75 1    
@<TRIPOS>SUBSTRUCTURE
     1 UNK         1 GROUP             0       ****    0 ROOT    
