@<TRIPOS>MOLECULE
ZINC39462732_1639
51   53    1
SMALL
USER_CHARGES


@<TRIPOS>ATOM
      1 C1          2.5112   51.3402   28.7425 C.3       1 UNK         0.0000 
      2 C2          1.8999   52.5893   29.4050 C.3       1 UNK         0.0000 
      3 C3          0.3456   52.4862   29.1939 C.3       1 UNK         0.0000 
      4 C4         -0.0696   53.5881   28.2328 C.3       1 UNK         0.0000 
      5 C5          1.2295   54.0181   27.5222 C.3       1 UNK         0.0000 
      6 H6          1.1046   55.0664   27.2820 H         1 UNK         0.0000 
      7 C7          2.3389   53.8905   28.6123 C.3       1 UNK         0.0000 
      8 C8          2.2397   55.1590   29.5199 C.3       1 UNK         0.0000 
      9 C9          3.8052   53.8889   28.0752 C.3       1 UNK         0.0000 
     10 C10         1.5045   53.2967   26.1596 C.2       1 UNK         0.0000 
     11 O11         2.3761   53.7326   25.4045 O.2       1 UNK         0.0000 
     12 N12         0.7040   52.2496   25.8511 N.am      1 UNK         0.0000 
     13 N13         0.8134   51.5855   24.6307 N.am      1 UNK         0.0000 
     14 C14        -0.0557   51.8864   23.6403 C.2       1 UNK         0.0000 
     15 O15        -0.8764   52.8067   23.7022 O.2       1 UNK         0.0000 
     16 C16        -0.0468   51.0262   22.3616 C.3       1 UNK         0.0000 
     17 H17        -1.0401   50.8807   21.9363 H         1 UNK         0.0000 
     18 C18         0.9637   49.8966   22.2101 C.3       1 UNK         0.0000 
     19 C19         1.1287   51.1666   21.3994 C.3       1 UNK         0.0000 
     20 H20         0.8395   51.0966   20.3494 H         1 UNK         0.0000 
     21 C21         2.3967   51.9948   21.5749 C.ar      1 UNK         0.0000 
     22 C22         2.3626   53.2955   22.0844 C.ar      1 UNK         0.0000 
     23 C23         3.5387   54.0263   22.2219 C.ar      1 UNK         0.0000 
     24 C24         4.7480   53.4645   21.8218 C.ar      1 UNK         0.0000 
     25 C25         4.7854   52.1811   21.2815 C.ar      1 UNK         0.0000 
     26 C26         3.6103   51.4459   21.1590 C.ar      1 UNK         0.0000 
     27 C27         2.3679   52.4967   30.8815 C.2       1 UNK         0.0000 
     28 O28         3.6006   52.4962   31.1096 O.co2     1 UNK         0.0000 
     29 O29         1.5046   52.3654   31.7707 O.co2     1 UNK         0.0000 
     30 H30         2.3051   51.2624   27.6805 H         1 UNK         0.0000 
     31 H31         3.5910   51.2967   28.8811 H         1 UNK         0.0000 
     32 H32         2.0659   50.4698   29.1850 H         1 UNK         0.0000 
     33 H33         0.0398   51.5146   28.8004 H         1 UNK         0.0000 
     34 H34        -0.2298   52.6054   30.1130 H         1 UNK         0.0000 
     35 H35        -0.4732   54.4248   28.7957 H         1 UNK         0.0000 
     36 H36        -0.8838   53.2870   27.5715 H         1 UNK         0.0000 
     37 H37         2.3423   56.0809   28.9455 H         1 UNK         0.0000 
     38 H38         1.2945   55.2170   30.0606 H         1 UNK         0.0000 
     39 H39         3.0295   55.1751   30.2660 H         1 UNK         0.0000 
     40 H40         4.0277   54.8081   27.5324 H         1 UNK         0.0000 
     41 H41         4.5267   53.8120   28.8893 H         1 UNK         0.0000 
     42 H42         4.0151   53.0651   27.3938 H         1 UNK         0.0000 
     43 H43         0.0567   51.8149   26.4930 H         1 UNK         0.0000 
     44 H44         1.4323   50.7886   24.6446 H         1 UNK         0.0000 
     45 H45         1.6917   49.6764   22.9931 H         1 UNK         0.0000 
     46 H46         0.6542   48.9880   21.6941 H         1 UNK         0.0000 
     47 H47         1.4311   53.7584   22.3716 H         1 UNK         0.0000 
     48 H48         3.5044   55.0249   22.6307 H         1 UNK         0.0000 
     49 H49         5.6604   54.0342   21.9211 H         1 UNK         0.0000 
     50 H50         5.7232   51.7585   20.9545 H         1 UNK         0.0000 
     51 H51         3.6419   50.4525   20.7346 H         1 UNK         0.0000 
@<TRIPOS>BOND
     1    1    2 1    
     2    1   30 1    
     3    1   31 1    
     4    1   32 1    
     5    2    7 1    
     6    2    3 1    
     7    2   27 1    
     8    3    4 1    
     9    3   33 1    
    10    3   34 1    
    11    4    5 1    
    12    4   35 1    
    13    4   36 1    
    14    5    6 1    
    15    5    7 1    
    16    5   10 1    
    17    7    8 1    
    18    7    9 1    
    19    8   37 1    
    20    8   38 1    
    21    8   39 1    
    22    9   40 1    
    23    9   41 1    
    24    9   42 1    
    25   10   11 2    
    26   10   12 am   BACKBONE|DICT|INTERRES
    27   12   13 1    
    28   12   43 1    
    29   13   14 am   BACKBONE|DICT|INTERRES
    30   13   44 1    
    31   14   15 2    
    32   14   16 1    
    33   16   17 1    
    34   16   19 1    
    35   16   18 1    
    36   18   19 1    
    37   18   45 1    
    38   18   46 1    
    39   19   20 1    
    40   19   21 1    
    41   21   26 ar   
    42   21   22 ar   
    43   22   23 ar   
    44   22   47 1    
    45   23   24 ar   
    46   23   48 1    
    47   24   25 ar   
    48   24   49 1    
    49   25   26 ar   
    50   25   50 1    
    51   26   51 1    
    52   27   28 2    
    53   27   29 1    
@<TRIPOS>SUBSTRUCTURE
     1 UNK         1 GROUP             0       ****    0 ROOT    
