@<TRIPOS>MOLECULE
ZINC59921061_2837
48   50    1
SMALL
USER_CHARGES


@<TRIPOS>ATOM
      1 C1         -8.1411   45.3674   25.6823 C.ar      1 UNK         0.0000 
      2 C2         -8.0828   44.0599   26.1538 C.ar      1 UNK         0.0000 
      3 C3         -6.8481   43.4781   26.4246 C.ar      1 UNK         0.0000 
      4 C4         -5.6689   44.1983   26.2250 C.ar      1 UNK         0.0000 
      5 C5         -5.7055   45.5348   25.7634 C.ar      1 UNK         0.0000 
      6 C6         -6.9665   46.0935   25.4921 C.ar      1 UNK         0.0000 
      7 C7         -4.5259   46.4109   25.5750 C.2       1 UNK         0.0000 
      8 N8         -3.3094   46.0964   25.8366 N.2       1 UNK         0.0000 
      9 N9         -2.2625   46.9943   25.6821 N.am      1 UNK         0.0000 
     10 C10        -2.1460   48.1299   24.9388 C.2       1 UNK         0.0000 
     11 O11        -3.0056   48.5539   24.1593 O.2       1 UNK         0.0000 
     12 C12        -0.8164   48.9093   25.0844 C.3       1 UNK         0.0000 
     13 C13        -0.1661   49.0628   23.6760 C.3       1 UNK         0.0000 
     14 C14         1.1044   49.9377   23.7594 C.3       1 UNK         0.0000 
     15 N15         0.7978   51.2292   24.4144 N.pl3     1 UNK         0.0000 
     16 C16         0.1604   51.1575   25.7508 C.3       1 UNK         0.0000 
     17 C17        -1.1311   50.3128   25.6820 C.3       1 UNK         0.0000 
     18 S18         0.9425   52.7694   23.5413 S.o2      1 UNK         0.0000 
     19 O19         1.0225   52.4910   22.1027 O.2       1 UNK         0.0000 
     20 O20        -0.0563   53.6958   24.0817 O.2       1 UNK         0.0000 
     21 C21         2.5345   53.4381   24.0340 C.ar      1 UNK         0.0000 
     22 C22         3.5220   53.6947   23.0786 C.ar      1 UNK         0.0000 
     23 C23         4.7649   54.1801   23.4800 C.ar      1 UNK         0.0000 
     24 C24         5.0045   54.4467   24.8275 C.ar      1 UNK         0.0000 
     25 C25         4.0141   54.2090   25.7799 C.ar      1 UNK         0.0000 
     26 C26         2.7780   53.7014   25.3845 C.ar      1 UNK         0.0000 
     27 Br27        6.6971   55.1371   25.3704 Br        1 UNK         0.0000 
     28 O28        -4.4956   43.5434   26.4817 O.3       1 UNK         0.0000 
     29 H29        -9.0978   45.8213   25.4706 H         1 UNK         0.0000 
     30 H30        -8.9916   43.4965   26.3058 H         1 UNK         0.0000 
     31 H31        -6.8098   42.4573   26.7768 H         1 UNK         0.0000 
     32 H32        -7.0537   47.1115   25.1380 H         1 UNK         0.0000 
     33 H33        -4.7901   47.4017   25.2178 H         1 UNK         0.0000 
     34 H34        -1.4209   46.6873   26.1522 H         1 UNK         0.0000 
     35 H35        -0.1642   48.3480   25.7577 H         1 UNK         0.0000 
     36 H36         0.1469   48.0969   23.2811 H         1 UNK         0.0000 
     37 H37        -0.8278   49.5789   22.9755 H         1 UNK         0.0000 
     38 H38         1.9042   49.4479   24.3146 H         1 UNK         0.0000 
     39 H39         1.4962   50.1287   22.7594 H         1 UNK         0.0000 
     40 H40         0.8802   50.7507   26.4615 H         1 UNK         0.0000 
     41 H41        -0.0717   52.1673   26.0863 H         1 UNK         0.0000 
     42 H42        -1.8211   50.8786   25.0509 H         1 UNK         0.0000 
     43 H43        -1.5071   50.2314   26.7041 H         1 UNK         0.0000 
     44 H44         3.3385   53.5040   22.0302 H         1 UNK         0.0000 
     45 H45         5.5367   54.3646   22.7468 H         1 UNK         0.0000 
     46 H46         4.2058   54.4132   26.8229 H         1 UNK         0.0000 
     47 H47         2.0142   53.5138   26.1248 H         1 UNK         0.0000 
     48 H48        -4.5055   42.9935   27.2736 H         1 UNK         0.0000 
@<TRIPOS>BOND
     1    1    6 ar   
     2    1    2 ar   
     3    1   29 1    
     4    2    3 ar   
     5    2   30 1    
     6    3    4 ar   
     7    3   31 1    
     8    4    5 ar   
     9    4   28 1    
    10    5    6 ar   
    11    5    7 1    
    12    6   32 1    
    13    7    8 2    
    14    7   33 1    
    15    8    9 1    
    16    9   10 am   BACKBONE|DICT|INTERRES
    17    9   34 1    
    18   10   11 2    
    19   10   12 1    
    20   12   17 1    
    21   12   13 1    
    22   12   35 1    
    23   13   14 1    
    24   13   36 1    
    25   13   37 1    
    26   14   15 1    
    27   14   38 1    
    28   14   39 1    
    29   15   16 1    
    30   15   18 1    
    31   16   17 1    
    32   16   40 1    
    33   16   41 1    
    34   17   42 1    
    35   17   43 1    
    36   18   19 2    
    37   18   20 2    
    38   18   21 1    
    39   21   26 ar   
    40   21   22 ar   
    41   22   23 ar   
    42   22   44 1    
    43   23   24 ar   
    44   23   45 1    
    45   24   25 ar   
    46   24   27 1    
    47   25   26 ar   
    48   25   46 1    
    49   26   47 1    
    50   28   48 1    
@<TRIPOS>SUBSTRUCTURE
     1 UNK         1 GROUP             0       ****    0 ROOT    
