ZINC63941201_2226
                    3D
 Schrodinger Suite 2024-2.
 64 68  0  0  1  0            999 V2000
   -0.9084   50.4959   26.7794 C   0  0  0  0  0  0
   -0.1413   51.4505   27.6633 C   0  0  0  0  0  0
   -0.6304   51.8557   28.9802 C   0  0  0  0  0  0
   -0.0768   52.8717   29.6924 C   0  0  0  0  0  0
    1.0463   53.5470   29.1966 C   0  0  0  0  0  0
    1.7283   54.5433   29.7081 N   0  3  0  0  0  0
    2.8923   54.8505   28.8508 C   0  0  0  0  0  0
    2.7409   53.8280   27.7407 C   0  0  0  0  0  0
    1.6092   53.1499   27.9853 C   0  0  0  0  0  0
    0.9491   52.0987   27.2091 C   0  0  0  0  0  0
    3.7493   53.6595   26.6175 C   0  0  0  0  0  0
    4.0311   54.9207   25.7980 C   0  0  0  0  0  0
    4.9724   54.6913   24.7068 N   0  0  0  0  0  0
    4.5377   54.2325   23.3887 C   0  0  0  0  0  0
    5.8232   54.0422   22.5879 C   0  0  2  0  0  0
    5.9051   52.9945   22.2897 H   0  0  0  0  0  0
    6.9397   54.4494   23.5574 C   0  0  0  0  0  0
    6.3020   54.8138   24.8867 C   0  0  0  0  0  0
    6.9089   55.1469   25.9025 O   0  0  0  0  0  0
    5.8340   54.8962   21.2891 C   0  0  0  0  0  0
    6.3044   56.0417   21.2813 O   0  0  0  0  0  0
    5.3201   54.2723   20.2071 N   0  0  0  0  0  0
    5.4147   54.6590   18.9140 C   0  0  0  0  0  0
    6.3778   55.2724   18.3576 N   0  0  0  0  0  0
    6.1856   55.3895   16.9855 N   0  0  0  0  0  0
    4.8555   55.0747   16.5059 C   0  0  1  0  0  0
    4.9607   54.3572   15.6911 H   0  0  0  0  0  0
    4.0445   54.2012   17.8648 S   0  0  0  0  0  0
    4.0465   56.3074   16.0210 C   0  0  0  0  0  0
    3.9762   57.4658   17.0538 C   0  0  0  0  0  0
    3.0932   58.6228   16.5488 C   0  0  0  0  0  0
    3.5630   59.1346   15.1687 C   0  0  0  0  0  0
    3.7255   57.9971   14.1406 C   0  0  0  0  0  0
    4.6127   56.8667   14.6942 C   0  0  0  0  0  0
   -0.8409   50.7888   25.7303 H   0  0  0  0  0  0
   -0.4955   49.4946   26.8809 H   0  0  0  0  0  0
   -1.9708   50.4909   27.0267 H   0  0  0  0  0  0
   -1.4596   51.3057   29.4076 H   0  0  0  0  0  0
   -0.4836   53.1029   30.6662 H   0  0  0  0  0  0
    3.8043   54.7277   29.4383 H   0  0  0  0  0  0
    2.7970   55.8830   28.5138 H   0  0  0  0  0  0
    1.2843   51.8584   26.2107 H   0  0  0  0  0  0
    3.3931   52.8876   25.9400 H   0  0  0  0  0  0
    4.6789   53.2783   27.0432 H   0  0  0  0  0  0
    4.3981   55.6957   26.4664 H   0  0  0  0  0  0
    3.1039   55.2980   25.3761 H   0  0  0  0  0  0
    3.8206   54.9090   22.9193 H   0  0  0  0  0  0
    4.0230   53.2780   23.5129 H   0  0  0  0  0  0
    7.6552   53.6421   23.7073 H   0  0  0  0  0  0
    7.5045   55.3171   23.2326 H   0  0  0  0  0  0
    4.7928   53.4295   20.3742 H   0  0  0  0  0  0
    6.6635   56.2057   16.6306 H   0  0  0  0  0  0
    3.0251   55.9765   15.8232 H   0  0  0  0  0  0
    4.9751   57.8328   17.2905 H   0  0  0  0  0  0
    3.5902   57.0911   18.0022 H   0  0  0  0  0  0
    3.1056   59.4384   17.2748 H   0  0  0  0  0  0
    2.0576   58.2899   16.4810 H   0  0  0  0  0  0
    4.5172   59.6499   15.2844 H   0  0  0  0  0  0
    2.8641   59.8827   14.7964 H   0  0  0  0  0  0
    4.1550   58.3886   13.2180 H   0  0  0  0  0  0
    2.7471   57.5952   13.8789 H   0  0  0  0  0  0
    4.6736   56.0617   13.9610 H   0  0  0  0  0  0
    5.6415   57.2050   14.8262 H   0  0  0  0  0  0
    1.5054   55.0220   30.5783 H   0  0  0  0  0  0
  1  2  1  0  0  0
  1 35  1  0  0  0
  1 36  1  0  0  0
  1 37  1  0  0  0
  2 10  2  0  0  0
  2  3  1  0  0  0
  3  4  2  0  0  0
  3 38  1  0  0  0
  4  5  1  0  0  0
  4 39  1  0  0  0
  5  9  1  0  0  0
  5  6  2  0  0  0
  6  7  1  0  0  0
  6 64  1  0  0  0
  7  8  1  0  0  0
  7 40  1  0  0  0
  7 41  1  0  0  0
  8  9  2  0  0  0
  8 11  1  0  0  0
  9 10  1  0  0  0
 10 42  1  0  0  0
 11 12  1  0  0  0
 11 43  1  0  0  0
 11 44  1  0  0  0
 12 13  1  0  0  0
 12 45  1  0  0  0
 12 46  1  0  0  0
 13 18  1  0  0  0
 13 14  1  0  0  0
 14 15  1  0  0  0
 14 47  1  0  0  0
 14 48  1  0  0  0
 15 16  1  0  0  0
 15 17  1  0  0  0
 15 20  1  0  0  0
 17 18  1  0  0  0
 17 49  1  0  0  0
 17 50  1  0  0  0
 18 19  2  0  0  0
 20 21  2  0  0  0
 20 22  1  0  0  0
 22 23  1  0  0  0
 22 51  1  0  0  0
 23 28  1  0  0  0
 23 24  2  0  0  0
 24 25  1  0  0  0
 25 26  1  0  0  0
 25 52  1  0  0  0
 26 27  1  0  0  0
 26 28  1  0  0  0
 26 29  1  0  0  0
 29 34  1  0  0  0
 29 30  1  0  0  0
 29 53  1  0  0  0
 30 31  1  0  0  0
 30 54  1  0  0  0
 30 55  1  0  0  0
 31 32  1  0  0  0
 31 56  1  0  0  0
 31 57  1  0  0  0
 32 33  1  0  0  0
 32 58  1  0  0  0
 32 59  1  0  0  0
 33 34  1  0  0  0
 33 60  1  0  0  0
 33 61  1  0  0  0
 34 62  1  0  0  0
 34 63  1  0  0  0
M  CHG  1   6   1
M  END
> <i_i_glide_confnum>
197

> <i_i_glide_lignum>
2227

> <i_i_glide_posenum>
312

> <i_i_glide_rotatable_bonds>
7

> <i_m_Source_File_Index>
4346

> <b_m_subgroup_collapsed>
0

> <r_i_docking_score>
-6.43941

> <r_i_glide_ecoul>
-6.0123

> <r_i_glide_eff_state_penalty>
0

> <r_i_glide_einternal>
3.5767

> <r_i_glide_emodel>
-66.6942

> <r_i_glide_energy>
-48.1066

> <r_i_glide_erotb>
0.680204

> <r_i_glide_esite>
0

> <r_i_glide_evdw>
-42.0943

> <r_i_glide_gscore>
-6.43941

> <r_i_glide_hbond>
-0.32

> <r_i_glide_ligand_efficiency>
-0.201232

> <r_i_glide_ligand_efficiency_ln>
-1.44196

> <r_i_glide_ligand_efficiency_sa>
-0.638871

> <r_i_glide_lipo>
-1.93807

> <r_i_glide_metal>
0

> <r_i_glide_rewards>
-1.85499

> <s_i_glide_gridfile>
wee1_glide-grid

> <s_m_Source_File>
wee1_decoys_glide_SP.sdf

> <s_m_Source_Path>
/Users/zhangxujun/Desktop

> <s_m_entry_id>
4621

> <s_m_entry_name>
wee1_decoys_glide_SP.4346

> <s_m_subgroup_title>
wee1_decoys_glide_SP

> <s_m_subgroupid>
wee1_decoys_glide_SP


$$$$
