@<TRIPOS>MOLECULE
ZINC00713530_2285
56   59    1
SMALL
USER_CHARGES


@<TRIPOS>ATOM
      1 C1          0.7282   53.2996   17.6847 C.3       1 UNK         0.0000 
      2 C2          1.8458   52.4253   17.0688 C.3       1 UNK         0.0000 
      3 C3          3.2443   53.0962   17.1679 C.3       1 UNK         0.0000 
      4 C4          3.7454   53.2291   18.6301 C.2       1 UNK         0.0000 
      5 C5          3.3261   52.3574   19.6030 C.2       1 UNK         0.0000 
      6 C6          3.8034   52.4766   21.0792 C.3       1 UNK         0.0000 
      7 H7          4.2927   51.5326   21.3345 H         1 UNK         0.0000 
      8 C8          4.8788   53.5586   21.2174 C.2       1 UNK         0.0000 
      9 C9          5.1851   54.4110   20.2175 C.2       1 UNK         0.0000 
     10 N10         4.6114   54.2969   18.9424 N.pl3     1 UNK         0.0000 
     11 C11         4.9511   55.2408   17.9335 C.ar      1 UNK         0.0000 
     12 C12         4.0403   56.2764   17.6826 C.ar      1 UNK         0.0000 
     13 C13         4.3309   57.2906   16.7743 C.ar      1 UNK         0.0000 
     14 C14         5.5407   57.2709   16.0860 C.ar      1 UNK         0.0000 
     15 C15         6.4506   56.2360   16.3057 C.ar      1 UNK         0.0000 
     16 C16         6.1795   55.2125   17.2272 C.ar      1 UNK         0.0000 
     17 C17         7.2280   54.1016   17.4107 C.3       1 UNK         0.0000 
     18 F18         6.7032   52.9364   17.7813 F         1 UNK         0.0000 
     19 F19         7.9174   53.8951   16.2861 F         1 UNK         0.0000 
     20 F20         8.0887   54.4932   18.3517 F         1 UNK         0.0000 
     21 N21         6.1060   55.4254   20.4008 N.pl3     1 UNK         0.0000 
     22 C22         5.5018   53.7152   22.4970 C.1       1 UNK         0.0000 
     23 N23         6.0135   53.8983   23.5171 N.1       1 UNK         0.0000 
     24 C24         2.6933   52.5817   22.1490 C.ar      1 UNK         0.0000 
     25 C25         2.3105   53.8294   22.6549 C.ar      1 UNK         0.0000 
     26 C26         1.3710   53.9279   23.6750 C.ar      1 UNK         0.0000 
     27 C27         0.7701   52.7812   24.1890 C.ar      1 UNK         0.0000 
     28 C28         1.1181   51.5172   23.6977 C.ar      1 UNK         0.0000 
     29 C29         2.0899   51.4354   22.6891 C.ar      1 UNK         0.0000 
     30 N30         0.4925   50.2897   24.2450 N.pl3     1 UNK         0.0000 
     31 O31        -0.2082   50.3903   25.2493 O.co2     1 UNK         0.0000 
     32 O32         0.6888   49.2260   23.6679 O.co2     1 UNK         0.0000 
     33 C33         2.4726   51.1845   19.2558 C.2       1 UNK         0.0000 
     34 O34         2.3448   50.2168   20.0014 O.2       1 UNK         0.0000 
     35 C35         1.9431   51.0844   17.8188 C.3       1 UNK         0.0000 
     36 C36         1.5764   52.1052   15.5849 C.3       1 UNK         0.0000 
     37 H37        -0.2558   52.8656   17.5016 H         1 UNK         0.0000 
     38 H38         0.8262   53.4126   18.7626 H         1 UNK         0.0000 
     39 H39         0.7265   54.2992   17.2494 H         1 UNK         0.0000 
     40 H40         3.0872   54.0600   16.6939 H         1 UNK         0.0000 
     41 H41         4.0219   52.5687   16.6105 H         1 UNK         0.0000 
     42 H42         3.1046   56.2921   18.2142 H         1 UNK         0.0000 
     43 H43         3.6269   58.0932   16.6074 H         1 UNK         0.0000 
     44 H44         5.7724   58.0606   15.3856 H         1 UNK         0.0000 
     45 H45         7.3803   56.2425   15.7553 H         1 UNK         0.0000 
     46 H46         6.5648   55.5452   21.2919 H         1 UNK         0.0000 
     47 H47         6.5132   55.8950   19.6020 H         1 UNK         0.0000 
     48 H48         2.7476   54.7344   22.2595 H         1 UNK         0.0000 
     49 H49         1.1056   54.8968   24.0657 H         1 UNK         0.0000 
     50 H50         0.0346   52.8851   24.9758 H         1 UNK         0.0000 
     51 H51         2.4016   50.4592   22.3501 H         1 UNK         0.0000 
     52 H52         1.0188   50.5079   17.7986 H         1 UNK         0.0000 
     53 H53         2.7037   50.4960   17.3086 H         1 UNK         0.0000 
     54 H54         0.6295   51.5766   15.4558 H         1 UNK         0.0000 
     55 H55         1.5233   53.0168   14.9879 H         1 UNK         0.0000 
     56 H56         2.3605   51.4764   15.1524 H         1 UNK         0.0000 
@<TRIPOS>BOND
     1    1    2 1    
     2    1   37 1    
     3    1   38 1    
     4    1   39 1    
     5    2   35 1    
     6    2    3 1    
     7    2   36 1    
     8    3    4 1    
     9    3   40 1    
    10    3   41 1    
    11    4   10 1    
    12    4    5 2    
    13    5    6 1    
    14    5   33 1    
    15    6    7 1    
    16    6    8 1    
    17    6   24 1    
    18    8    9 2    
    19    8   22 1    
    20    9   10 1    
    21    9   21 1    
    22   10   11 1    
    23   11   16 ar   
    24   11   12 ar   
    25   12   13 ar   
    26   12   42 1    
    27   13   14 ar   
    28   13   43 1    
    29   14   15 ar   
    30   14   44 1    
    31   15   16 ar   
    32   15   45 1    
    33   16   17 1    
    34   17   18 1    
    35   17   19 1    
    36   17   20 1    
    37   21   46 1    
    38   21   47 1    
    39   22   23 3    
    40   24   29 ar   
    41   24   25 ar   
    42   25   26 ar   
    43   25   48 1    
    44   26   27 ar   
    45   26   49 1    
    46   27   28 ar   
    47   27   50 1    
    48   28   29 ar   
    49   28   30 1    
    50   29   51 1    
    51   30   31 2    
    52   30   32 1    
    53   33   34 2    
    54   33   35 1    
    55   35   52 1    
    56   35   53 1    
    57   36   54 1    
    58   36   55 1    
    59   36   56 1    
@<TRIPOS>SUBSTRUCTURE
     1 UNK         1 GROUP             0       ****    0 ROOT    
