ZINC14066034_2484
                    3D
 Schrodinger Suite 2024-2.
 54 57  0  0  1  0            999 V2000
   -0.8955   51.6967   30.0674 C   0  0  0  0  0  0
    0.2326   52.5052   30.0700 C   0  0  0  0  0  0
    0.7935   52.9283   28.8609 C   0  0  0  0  0  0
    0.1689   52.5474   27.6573 C   0  0  0  0  0  0
   -0.9462   51.6967   27.6538 C   0  0  0  0  0  0
   -1.4863   51.2969   28.8730 C   0  0  0  0  0  0
   -1.5516   51.1662   26.4998 N   0  0  0  0  0  0
   -1.0694   51.1075   25.2419 C   0  0  0  0  0  0
    0.0149   51.5766   24.8872 O   0  0  0  0  0  0
   -1.9658   50.3396   24.2431 C   0  0  0  0  0  0
   -1.3621   50.2805   22.8929 N   0  0  0  0  0  0
   -1.3025   51.3464   22.0395 C   0  0  0  0  0  0
   -1.6961   52.4966   22.2294 O   0  0  0  0  0  0
   -0.7341   50.8058   20.7393 C   0  0  1  0  0  0
   -1.5988   50.5545   20.1194 H   0  0  0  0  0  0
    0.1558   51.6933   19.8331 C   0  0  0  0  0  0
    0.9058   50.8017   18.8331 C   0  0  0  0  0  0
    0.9483   49.4493   18.8977 C   0  0  0  0  0  0
    0.3231   48.6222   20.0285 C   0  0  0  0  0  0
   -0.0121   49.5776   21.1957 C   0  0  2  0  0  0
    0.9714   49.8182   21.6128 H   0  0  0  0  0  0
   -0.8299   49.1319   22.3904 C   0  0  0  0  0  0
   -0.8956   47.9902   22.8444 O   0  0  0  0  0  0
    2.0934   53.6951   28.8727 C   0  0  0  0  0  0
    2.5111   54.2291   29.9044 O   0  0  0  0  0  0
    2.7619   53.6628   27.7034 N   0  0  0  0  0  0
    4.1044   53.9395   27.4504 C   0  0  0  0  0  0
    5.0991   53.9079   28.4362 C   0  0  0  0  0  0
    6.4290   54.0967   28.0819 C   0  0  0  0  0  0
    6.7660   54.3369   26.7532 C   0  0  0  0  0  0
    5.7878   54.3593   25.7553 C   0  0  0  0  0  0
    4.4525   54.1564   26.1159 C   0  0  0  0  0  0
    6.1890   54.5830   24.3001 C   0  0  0  0  0  0
    7.1115   53.6967   23.9348 F   0  0  0  0  0  0
    5.1573   54.4745   23.4614 F   0  0  0  0  0  0
    6.7044   55.8015   24.1788 F   0  0  0  0  0  0
   -1.3025   51.3239   30.9918 H   0  0  0  0  0  0
    0.6806   52.7631   31.0202 H   0  0  0  0  0  0
    0.5707   52.8926   26.7203 H   0  0  0  0  0  0
   -2.3316   50.6219   28.9114 H   0  0  0  0  0  0
   -2.3903   50.6364   26.6831 H   0  0  0  0  0  0
   -2.9641   50.7759   24.1924 H   0  0  0  0  0  0
   -2.1004   49.3315   24.6403 H   0  0  0  0  0  0
    0.9168   52.2005   20.4294 H   0  0  0  0  0  0
   -0.4238   52.4796   19.3481 H   0  0  0  0  0  0
    1.4222   51.2755   18.0090 H   0  0  0  0  0  0
    1.4947   48.9321   18.1200 H   0  0  0  0  0  0
   -0.5797   48.1460   19.6436 H   0  0  0  0  0  0
    0.9802   47.8175   20.3604 H   0  0  0  0  0  0
    2.2577   53.2905   26.9145 H   0  0  0  0  0  0
    4.8621   53.7112   29.4693 H   0  0  0  0  0  0
    7.1958   54.0777   28.8433 H   0  0  0  0  0  0
    7.8015   54.4966   26.5032 H   0  0  0  0  0  0
    3.6843   54.1552   25.3550 H   0  0  0  0  0  0
  1  6  2  0  0  0
  1  2  1  0  0  0
  1 37  1  0  0  0
  2  3  2  0  0  0
  2 38  1  0  0  0
  3  4  1  0  0  0
  3 24  1  0  0  0
  4  5  2  0  0  0
  4 39  1  0  0  0
  5  6  1  0  0  0
  5  7  1  0  0  0
  6 40  1  0  0  0
  7  8  1  0  0  0
  7 41  1  0  0  0
  8  9  2  0  0  0
  8 10  1  0  0  0
 10 11  1  0  0  0
 10 42  1  0  0  0
 10 43  1  0  0  0
 11 22  1  0  0  0
 11 12  1  0  0  0
 12 13  2  0  0  0
 12 14  1  0  0  0
 14 15  1  0  0  0
 14 20  1  0  0  0
 14 16  1  0  0  0
 16 17  1  0  0  0
 16 44  1  0  0  0
 16 45  1  0  0  0
 17 18  2  0  0  0
 17 46  1  0  0  0
 18 19  1  0  0  0
 18 47  1  0  0  0
 19 20  1  0  0  0
 19 48  1  0  0  0
 19 49  1  0  0  0
 20 21  1  0  0  0
 20 22  1  0  0  0
 22 23  2  0  0  0
 24 25  2  0  0  0
 24 26  1  0  0  0
 26 27  1  0  0  0
 26 50  1  0  0  0
 27 32  2  0  0  0
 27 28  1  0  0  0
 28 29  2  0  0  0
 28 51  1  0  0  0
 29 30  1  0  0  0
 29 52  1  0  0  0
 30 31  2  0  0  0
 30 53  1  0  0  0
 31 32  1  0  0  0
 31 33  1  0  0  0
 32 54  1  0  0  0
 33 34  1  0  0  0
 33 35  1  0  0  0
 33 36  1  0  0  0
M  END
> <i_i_glide_confnum>
8

> <i_i_glide_lignum>
2485

> <i_i_glide_posenum>
295

> <i_i_glide_rotatable_bonds>
8

> <i_m_Source_File_Index>
1641

> <b_m_subgroup_collapsed>
0

> <r_i_docking_score>
-6.08763

> <r_i_glide_ecoul>
-6.34526

> <r_i_glide_eff_state_penalty>
0

> <r_i_glide_einternal>
7.2877

> <r_i_glide_emodel>
-59.0078

> <r_i_glide_energy>
-45.7457

> <r_i_glide_erotb>
0.545682

> <r_i_glide_esite>
-0.0802295

> <r_i_glide_evdw>
-39.4005

> <r_i_glide_gscore>
-6.08763

> <r_i_glide_hbond>
-0.32

> <r_i_glide_ligand_efficiency>
-0.179048

> <r_i_glide_ligand_efficiency_ln>
-1.34493

> <r_i_glide_ligand_efficiency_sa>
-0.580045

> <r_i_glide_lipo>
-2.20391

> <r_i_glide_metal>
0

> <r_i_glide_rewards>
-1.10736

> <s_i_glide_gridfile>
wee1_glide-grid

> <s_m_Source_File>
wee1_decoys_glide_SP.sdf

> <s_m_Source_Path>
/Users/zhangxujun/Desktop

> <s_m_entry_id>
1916

> <s_m_entry_name>
wee1_decoys_glide_SP.1641

> <s_m_subgroup_title>
wee1_decoys_glide_SP

> <s_m_subgroupid>
wee1_decoys_glide_SP


$$$$
