@<TRIPOS>MOLECULE
ZINC13134113_420
47   50    1
SMALL
USER_CHARGES


@<TRIPOS>ATOM
      1 C1         12.1672   51.8677   14.7542 C.ar      1 UNK         0.0000 
      2 C2         12.7220   50.7294   15.3382 C.ar      1 UNK         0.0000 
      3 C3         11.9550   49.9424   16.1963 C.ar      1 UNK         0.0000 
      4 C4         10.6321   50.2895   16.4699 C.ar      1 UNK         0.0000 
      5 C5         10.0645   51.4281   15.8805 C.ar      1 UNK         0.0000 
      6 C6         10.8433   52.2156   15.0241 C.ar      1 UNK         0.0000 
      7 C7          8.6072   51.8056   16.1373 C.3       1 UNK         0.0000 
      8 C8          8.3770   53.0161   17.0360 C.ar      1 UNK         0.0000 
      9 N9          9.2968   53.7986   17.5476 N.2       1 UNK         0.0000 
     10 N10         8.6402   54.7857   18.2780 N.2       1 UNK         0.0000 
     11 C11         7.3559   54.5239   18.2381 C.ar      1 UNK         0.0000 
     12 N12         7.1233   53.4363   17.4200 N.pl3     1 UNK         0.0000 
     13 N13         5.9121   52.8967   17.0245 N.3       1 UNK         0.0000 
     14 S14         6.1276   55.6025   18.9047 S.3       1 UNK         0.0000 
     15 C15         5.4444   54.5201   20.2095 C.3       1 UNK         0.0000 
     16 C16         5.9007   54.8865   21.6336 C.2       1 UNK         0.0000 
     17 O17         6.8691   55.6299   21.7957 O.2       1 UNK         0.0000 
     18 N18         5.1644   54.3470   22.6349 N.am      1 UNK         0.0000 
     19 C19         5.3454   54.4971   24.0118 C.2       1 UNK         0.0000 
     20 N20         4.4674   54.0460   24.8749 N.2       1 UNK         0.0000 
     21 C21         4.8281   54.2214   26.1426 C.2       1 UNK         0.0000 
     22 C22         6.0418   54.8968   26.2959 C.2       1 UNK         0.0000 
     23 S23         6.7043   55.2946   24.7483 S.3       1 UNK         0.0000 
     24 C24         3.9867   53.6956   27.2697 C.ar      1 UNK         0.0000 
     25 C25         4.5816   53.4621   28.5184 C.ar      1 UNK         0.0000 
     26 C26         3.8386   52.9293   29.5679 C.ar      1 UNK         0.0000 
     27 C27         2.4937   52.6305   29.3772 C.ar      1 UNK         0.0000 
     28 C28         1.8845   52.8632   28.1467 C.ar      1 UNK         0.0000 
     29 C29         2.6283   53.3941   27.0951 C.ar      1 UNK         0.0000 
     30 F30         1.7803   52.1027   30.3949 F         1 UNK         0.0000 
     31 F31         9.9048   49.5049   17.2964 F         1 UNK         0.0000 
     32 H32        12.7612   52.4747   14.0873 H         1 UNK         0.0000 
     33 H33        13.7438   50.4553   15.1221 H         1 UNK         0.0000 
     34 H34        12.3803   49.0602   16.6495 H         1 UNK         0.0000 
     35 H35        10.4186   53.0957   14.5636 H         1 UNK         0.0000 
     36 H36         8.0815   50.9444   16.5506 H         1 UNK         0.0000 
     37 H37         8.1265   51.9730   15.1724 H         1 UNK         0.0000 
     38 H38         5.5065   52.2339   17.6815 H         1 UNK         0.0000 
     39 H39         5.2700   53.5729   16.6394 H         1 UNK         0.0000 
     40 H40         5.6894   53.4778   20.0081 H         1 UNK         0.0000 
     41 H41         4.3589   54.6085   20.1583 H         1 UNK         0.0000 
     42 H42         4.3561   53.8074   22.3652 H         1 UNK         0.0000 
     43 H43         6.5529   55.1750   27.2072 H         1 UNK         0.0000 
     44 H44         5.6294   53.6685   28.6801 H         1 UNK         0.0000 
     45 H45         4.3047   52.7386   30.5227 H         1 UNK         0.0000 
     46 H46         0.8415   52.6220   28.0095 H         1 UNK         0.0000 
     47 H47         2.1470   53.5591   26.1423 H         1 UNK         0.0000 
@<TRIPOS>BOND
     1    1    6 ar   
     2    1    2 ar   
     3    1   32 1    
     4    2    3 ar   
     5    2   33 1    
     6    3    4 ar   
     7    3   34 1    
     8    4    5 ar   
     9    4   31 1    
    10    5    6 ar   
    11    5    7 1    
    12    6   35 1    
    13    7    8 1    
    14    7   36 1    
    15    7   37 1    
    16    8   12 ar   
    17    8    9 ar   
    18    9   10 ar   
    19   10   11 ar   
    20   11   12 ar   
    21   11   14 1    
    22   12   13 1    
    23   13   38 1    
    24   13   39 1    
    25   14   15 1    
    26   15   16 1    
    27   15   40 1    
    28   15   41 1    
    29   16   17 2    
    30   16   18 am   BACKBONE|DICT|INTERRES
    31   18   19 am   BACKBONE|DICT|INTERRES
    32   18   42 1    
    33   19   23 1    
    34   19   20 2    
    35   20   21 1    
    36   21   22 2    
    37   21   24 1    
    38   22   23 1    
    39   22   43 1    
    40   24   29 ar   
    41   24   25 ar   
    42   25   26 ar   
    43   25   44 1    
    44   26   27 ar   
    45   26   45 1    
    46   27   28 ar   
    47   27   30 1    
    48   28   29 ar   
    49   28   46 1    
    50   29   47 1    
@<TRIPOS>SUBSTRUCTURE
     1 UNK         1 GROUP             0       ****    0 ROOT    
