ZINC35729677_4136
                    3D
 Schrodinger Suite 2024-2.
 55 57  0  0  1  0            999 V2000
   -0.0025   54.3942   15.8764 C   0  0  0  0  0  0
    0.6255   54.6402   17.2655 C   0  0  0  0  0  0
    2.1193   54.5750   17.2844 N   0  0  0  0  0  0
    2.9082   55.7213   17.1484 C   0  0  0  0  0  0
    4.2507   55.6981   17.4073 C   0  0  0  0  0  0
    4.9367   54.4434   17.9936 C   0  0  2  0  0  0
    5.9013   54.2857   17.5061 H   0  0  0  0  0  0
    4.0520   53.2939   17.6825 N   0  0  0  0  0  0
    2.6943   53.3223   17.5087 C   0  0  0  0  0  0
    1.9284   51.8355   17.6235 S   0  0  0  0  0  0
    5.3015   54.5720   19.4836 C   0  0  0  0  0  0
    6.5342   55.1181   19.8665 C   0  0  0  0  0  0
    6.8503   55.2953   21.2141 C   0  0  0  0  0  0
    5.9503   54.8893   22.1993 C   0  0  0  0  0  0
    4.7048   54.3516   21.8354 C   0  0  0  0  0  0
    4.3958   54.1977   20.4828 C   0  0  0  0  0  0
    3.6976   53.9492   22.7268 N   0  0  0  0  0  0
    3.5963   54.0945   24.0658 C   0  0  0  0  0  0
    4.4473   54.6303   24.7771 O   0  0  0  0  0  0
    2.3485   53.4975   24.6865 C   0  0  0  0  0  0
    2.2947   53.2788   26.0726 C   0  0  0  0  0  0
    1.1882   52.6578   26.6558 C   0  0  0  0  0  0
    0.1098   52.2629   25.8663 C   0  0  0  0  0  0
    0.1255   52.5143   24.4959 C   0  0  0  0  0  0
    1.2333   53.1272   23.9106 C   0  0  0  0  0  0
   -1.3716   52.0413   23.4194 Br  0  0  0  0  0  0
    5.1064   56.8849   17.2504 C   0  0  0  0  0  0
    5.7117   57.4097   18.1839 O   0  0  0  0  0  0
    5.1681   57.3117   15.9710 O   0  0  0  0  0  0
    5.8930   58.4887   15.6375 C   0  0  0  0  0  0
    5.6772   58.8041   14.1539 C   0  0  0  0  0  0
    2.1681   56.9882   16.6603 C   0  0  0  0  0  0
   -1.0896   54.4623   15.9292 H   0  0  0  0  0  0
    0.3282   55.1302   15.1424 H   0  0  0  0  0  0
    0.2364   53.4011   15.4929 H   0  0  0  0  0  0
    0.1917   53.9408   17.9818 H   0  0  0  0  0  0
    0.2637   55.5852   17.6645 H   0  0  0  0  0  0
    4.4173   52.3546   17.8102 H   0  0  0  0  0  0
    7.2465   55.4266   19.1147 H   0  0  0  0  0  0
    7.8053   55.7155   21.4969 H   0  0  0  0  0  0
    6.2358   55.0144   23.2324 H   0  0  0  0  0  0
    3.4312   53.8028   20.2012 H   0  0  0  0  0  0
    2.9212   53.4919   22.2778 H   0  0  0  0  0  0
    3.1266   53.5520   26.7063 H   0  0  0  0  0  0
    1.1732   52.4704   27.7194 H   0  0  0  0  0  0
   -0.7432   51.7774   26.3191 H   0  0  0  0  0  0
    1.2018   53.3008   22.8443 H   0  0  0  0  0  0
    5.5525   59.3290   16.2469 H   0  0  0  0  0  0
    6.9555   58.3432   15.8415 H   0  0  0  0  0  0
    6.2215   59.7042   13.8680 H   0  0  0  0  0  0
    6.0268   57.9844   13.5256 H   0  0  0  0  0  0
    4.6188   58.9725   13.9412 H   0  0  0  0  0  0
    1.8385   56.8665   15.6256 H   0  0  0  0  0  0
    1.3131   57.2527   17.2805 H   0  0  0  0  0  0
    2.7809   57.8882   16.6910 H   0  0  0  0  0  0
  1  2  1  0  0  0
  1 33  1  0  0  0
  1 34  1  0  0  0
  1 35  1  0  0  0
  2  3  1  0  0  0
  2 36  1  0  0  0
  2 37  1  0  0  0
  3  9  1  0  0  0
  3  4  1  0  0  0
  4  5  2  0  0  0
  4 32  1  0  0  0
  5  6  1  0  0  0
  5 27  1  0  0  0
  6  7  1  0  0  0
  6  8  1  0  0  0
  6 11  1  0  0  0
  8  9  1  0  0  0
  8 38  1  0  0  0
  9 10  2  0  0  0
 11 16  2  0  0  0
 11 12  1  0  0  0
 12 13  2  0  0  0
 12 39  1  0  0  0
 13 14  1  0  0  0
 13 40  1  0  0  0
 14 15  2  0  0  0
 14 41  1  0  0  0
 15 16  1  0  0  0
 15 17  1  0  0  0
 16 42  1  0  0  0
 17 18  1  0  0  0
 17 43  1  0  0  0
 18 19  2  0  0  0
 18 20  1  0  0  0
 20 25  2  0  0  0
 20 21  1  0  0  0
 21 22  2  0  0  0
 21 44  1  0  0  0
 22 23  1  0  0  0
 22 45  1  0  0  0
 23 24  2  0  0  0
 23 46  1  0  0  0
 24 25  1  0  0  0
 24 26  1  0  0  0
 25 47  1  0  0  0
 27 28  2  0  0  0
 27 29  1  0  0  0
 29 30  1  0  0  0
 30 31  1  0  0  0
 30 48  1  0  0  0
 30 49  1  0  0  0
 31 50  1  0  0  0
 31 51  1  0  0  0
 31 52  1  0  0  0
 32 53  1  0  0  0
 32 54  1  0  0  0
 32 55  1  0  0  0
M  END
> <i_i_glide_confnum>
15

> <i_i_glide_lignum>
4137

> <i_i_glide_posenum>
382

> <i_i_glide_rotatable_bonds>
8

> <i_m_Source_File_Index>
2717

> <b_m_subgroup_collapsed>
0

> <r_i_docking_score>
-4.0222

> <r_i_glide_ecoul>
-3.65389

> <r_i_glide_eff_state_penalty>
0

> <r_i_glide_einternal>
2.53321

> <r_i_glide_emodel>
-47.9744

> <r_i_glide_energy>
-37.7912

> <r_i_glide_erotb>
0.485672

> <r_i_glide_esite>
-0.121472

> <r_i_glide_evdw>
-34.1374

> <r_i_glide_gscore>
-4.0222

> <r_i_glide_hbond>
-0.0793193

> <r_i_glide_ligand_efficiency>
-0.129748

> <r_i_glide_ligand_efficiency_ln>
-0.907129

> <r_i_glide_ligand_efficiency_sa>
-0.407589

> <r_i_glide_lipo>
-1.68569

> <r_i_glide_metal>
0

> <r_i_glide_rewards>
-0.366441

> <s_i_glide_gridfile>
wee1_glide-grid

> <s_m_Source_File>
wee1_decoys_glide_SP.sdf

> <s_m_Source_Path>
/Users/zhangxujun/Desktop

> <s_m_entry_id>
2992

> <s_m_entry_name>
wee1_decoys_glide_SP.2717

> <s_m_subgroup_title>
wee1_decoys_glide_SP

> <s_m_subgroupid>
wee1_decoys_glide_SP


$$$$
