@<TRIPOS>MOLECULE
ZINC15016414_4876
64   68    1
SMALL
USER_CHARGES


@<TRIPOS>ATOM
      1 C1         -1.4234   51.6730   18.6708 C.3       1 UNK         0.0000 
      2 C2          0.0369   51.5747   19.0685 C.ar      1 UNK         0.0000 
      3 C3          0.9686   50.9637   18.2222 C.ar      1 UNK         0.0000 
      4 C4          2.3044   50.8975   18.6192 C.ar      1 UNK         0.0000 
      5 C5          1.8202   52.0088   20.6549 C.ar      1 UNK         0.0000 
      6 C6          0.4672   52.0965   20.2942 C.ar      1 UNK         0.0000 
      7 N7          2.3476   52.4546   21.8972 N.pl3     1 UNK         0.0000 
      8 C8          1.5467   52.9547   23.0288 C.3       1 UNK         0.0000 
      9 H9          1.1002   53.8691   22.6409 H         1 UNK         0.0000 
     10 C10         2.4386   53.3877   24.2083 C.ar      1 UNK         0.0000 
     11 C11         2.0742   53.0646   25.5165 C.ar      1 UNK         0.0000 
     12 C12         2.8753   53.4096   26.5850 C.ar      1 UNK         0.0000 
     13 C13         4.0555   54.1427   26.4077 C.ar      1 UNK         0.0000 
     14 C14         4.4462   54.4721   25.0983 C.ar      1 UNK         0.0000 
     15 C15         3.6316   54.0974   24.0112 C.ar      1 UNK         0.0000 
     16 O16         5.6409   55.1522   24.9436 O.3       1 UNK         0.0000 
     17 C17         6.4007   54.9362   23.7554 C.3       1 UNK         0.0000 
     18 O18         4.8660   54.5721   27.4522 O.3       1 UNK         0.0000 
     19 C19         4.8089   53.9879   28.7626 C.3       1 UNK         0.0000 
     20 C20         3.4514   54.0993   29.4579 C.ar      1 UNK         0.0000 
     21 C21         2.9080   52.9693   30.0814 C.ar      1 UNK         0.0000 
     22 C22         1.6039   53.0036   30.5731 C.ar      1 UNK         0.0000 
     23 C23         0.8653   54.1830   30.4815 C.ar      1 UNK         0.0000 
     24 C24         1.4157   55.3235   29.8974 C.ar      1 UNK         0.0000 
     25 C25         2.7042   55.2784   29.3757 C.ar      1 UNK         0.0000 
     26 C26         0.4122   51.9937   23.4546 C.ar      1 UNK         0.0000 
     27 C27        -0.8381   52.5404   23.7501 C.ar      1 UNK         0.0000 
     28 C28        -1.8773   51.7555   24.2317 C.ar      1 UNK         0.0000 
     29 C29        -1.6770   50.3781   24.4598 C.ar      1 UNK         0.0000 
     30 C30        -2.6835   49.5531   25.0204 C.ar      1 UNK         0.0000 
     31 C31        -2.4087   48.2127   25.2696 C.ar      1 UNK         0.0000 
     32 C32        -1.1569   47.7114   24.9292 C.ar      1 UNK         0.0000 
     33 N33        -0.1735   48.4620   24.3749 N.ar      1 UNK         0.0000 
     34 C34        -0.4114   49.7902   24.1527 C.ar      1 UNK         0.0000 
     35 C35         0.6331   50.6163   23.6440 C.ar      1 UNK         0.0000 
     36 O36         1.8722   50.0700   23.4017 O.3       1 UNK         0.0000 
     37 H37        -1.5889   51.3581   17.6390 H         1 UNK         0.0000 
     38 H38        -2.0365   51.0582   19.3328 H         1 UNK         0.0000 
     39 H39        -1.7665   52.7039   18.7617 H         1 UNK         0.0000 
     40 H40         0.6680   50.5416   17.2739 H         1 UNK         0.0000 
     41 H41         3.1023   50.4391   18.0634 H         1 UNK         0.0000 
     42 H42        -0.2484   52.5567   20.9549 H         1 UNK         0.0000 
     43 H43         3.3274   52.3027   22.0825 H         1 UNK         0.0000 
     44 H44         1.1730   52.5168   25.7449 H         1 UNK         0.0000 
     45 H45         2.5180   53.0716   27.5348 H         1 UNK         0.0000 
     46 H46         3.9145   54.3660   23.0041 H         1 UNK         0.0000 
     47 H47         7.3456   55.4726   23.8390 H         1 UNK         0.0000 
     48 H48         6.6290   53.8776   23.6226 H         1 UNK         0.0000 
     49 H49         5.9050   55.2966   22.8567 H         1 UNK         0.0000 
     50 H50         5.1309   52.9465   28.6959 H         1 UNK         0.0000 
     51 H51         5.5488   54.4973   29.3817 H         1 UNK         0.0000 
     52 H52         3.4760   52.0522   30.1437 H         1 UNK         0.0000 
     53 H53         1.1671   52.1276   31.0323 H         1 UNK         0.0000 
     54 H54        -0.1401   54.2130   30.8735 H         1 UNK         0.0000 
     55 H55         0.8376   56.2340   29.8343 H         1 UNK         0.0000 
     56 H56         3.1047   56.1513   28.8837 H         1 UNK         0.0000 
     57 H57        -0.9993   53.6068   23.6760 H         1 UNK         0.0000 
     58 H58        -2.8276   52.2042   24.4821 H         1 UNK         0.0000 
     59 H59        -3.6411   49.9762   25.2859 H         1 UNK         0.0000 
     60 H60        -3.1427   47.5798   25.7493 H         1 UNK         0.0000 
     61 H61        -0.9012   46.6859   25.1504 H         1 UNK         0.0000 
     62 H62         1.9348   49.1563   23.7083 H         1 UNK         0.0000 
     63 N63         2.6767   51.4245   19.7972 N.pl3     1 UNK         0.0000 
     64 H64         3.6530   51.3665   20.0468 H         1 UNK         0.0000 
@<TRIPOS>BOND
     1    1    2 1    
     2    1   37 1    
     3    1   38 1    
     4    1   39 1    
     5    2    6 ar   
     6    2    3 ar   
     7    3    4 ar   
     8    3   40 1    
     9    4   41 1    
    10    4   63 ar   
    11    5    6 ar   
    12    5    7 1    
    13    5   63 ar   
    14    6   42 1    
    15    7    8 1    
    16    7   43 1    
    17    8    9 1    
    18    8   10 1    
    19    8   26 1    
    20   10   15 ar   
    21   10   11 ar   
    22   11   12 ar   
    23   11   44 1    
    24   12   13 ar   
    25   12   45 1    
    26   13   14 ar   
    27   13   18 1    
    28   14   15 ar   
    29   14   16 1    
    30   15   46 1    
    31   16   17 1    
    32   17   47 1    
    33   17   48 1    
    34   17   49 1    
    35   18   19 1    
    36   19   20 1    
    37   19   50 1    
    38   19   51 1    
    39   20   25 ar   
    40   20   21 ar   
    41   21   22 ar   
    42   21   52 1    
    43   22   23 ar   
    44   22   53 1    
    45   23   24 ar   
    46   23   54 1    
    47   24   25 ar   
    48   24   55 1    
    49   25   56 1    
    50   26   35 ar   
    51   26   27 ar   
    52   27   28 ar   
    53   27   57 1    
    54   28   29 ar   
    55   28   58 1    
    56   29   34 ar   
    57   29   30 ar   
    58   30   31 ar   
    59   30   59 1    
    60   31   32 ar   
    61   31   60 1    
    62   32   33 ar   
    63   32   61 1    
    64   33   34 ar   
    65   34   35 ar   
    66   35   36 1    
    67   36   62 1    
    68   63   64 1    
@<TRIPOS>SUBSTRUCTURE
     1 UNK         1 GROUP             0       ****    0 ROOT    
