ZINC64948721_2079
                    3D
 Schrodinger Suite 2024-2.
 42 46  0  0  1  0            999 V2000
    4.3294   53.1932   28.9350 C   0  0  0  0  0  0
    3.5200   52.6384   29.9319 C   0  0  0  0  0  0
    2.1547   52.5909   29.6925 C   0  0  0  0  0  0
    1.6061   53.0728   28.5379 C   0  0  0  0  0  0
    2.3907   53.6224   27.5273 C   0  0  0  0  0  0
    3.7838   53.6847   27.7305 C   0  0  0  0  0  0
    4.7098   54.2343   26.6948 C   0  0  0  0  0  0
    5.9117   54.8943   26.9614 C   0  0  0  0  0  0
    6.7041   55.2965   25.4790 S   0  0  0  0  0  0
    5.3900   54.5585   24.6249 C   0  0  0  0  0  0
    4.4411   54.0963   25.4043 N   0  0  0  0  0  0
    5.3655   54.4957   23.1585 C   0  0  0  0  0  0
    4.3401   54.0962   22.2957 C   0  0  0  0  0  0
    4.8711   54.2687   21.0271 N   0  0  0  0  0  0
    6.0863   54.8207   21.1062 N   0  0  0  0  0  0
    6.4052   54.8974   22.4425 N   0  0  0  0  0  0
    4.3189   53.9866   19.7580 C   0  0  0  0  0  0
    4.2756   55.0095   18.7993 C   0  0  0  0  0  0
    3.6859   54.7960   17.5477 C   0  0  0  0  0  0
    3.1721   53.5297   17.2455 C   0  0  0  0  0  0
    3.2503   52.4960   18.1763 C   0  0  0  0  0  0
    3.8290   52.7100   19.4283 C   0  0  0  0  0  0
    3.9756   51.3525   20.4977 Cl  0  0  0  0  0  0
    3.5919   55.9231   16.5208 C   0  0  0  0  0  0
    4.3891   56.9472   16.8277 F   0  0  0  0  0  0
    2.3360   56.3699   16.4789 F   0  0  0  0  0  0
    3.9302   55.4804   15.3091 F   0  0  0  0  0  0
    3.0631   53.6535   22.5337 N   0  0  0  0  0  0
    0.2585   52.9144   28.5792 O   0  0  0  0  0  0
   -0.0284   52.2708   29.7961 C   0  0  0  0  0  0
    1.1781   52.0991   30.4922 O   0  0  0  0  0  0
    5.3985   53.2218   29.0898 H   0  0  0  0  0  0
    3.9540   52.2562   30.8447 H   0  0  0  0  0  0
    1.9403   53.9887   26.6146 H   0  0  0  0  0  0
    6.3526   55.1454   27.9156 H   0  0  0  0  0  0
    4.6751   55.9851   19.0375 H   0  0  0  0  0  0
    2.7175   53.3388   16.2814 H   0  0  0  0  0  0
    2.8991   51.5084   17.9126 H   0  0  0  0  0  0
    2.7217   53.4947   23.4692 H   0  0  0  0  0  0
    2.4115   53.4861   21.7776 H   0  0  0  0  0  0
   -0.4835   51.2971   29.5964 H   0  0  0  0  0  0
   -0.6791   52.8975   30.3996 H   0  0  0  0  0  0
  1  6  2  0  0  0
  1  2  1  0  0  0
  1 32  1  0  0  0
  2  3  2  0  0  0
  2 33  1  0  0  0
  3 31  1  0  0  0
  3  4  1  0  0  0
  4  5  2  0  0  0
  4 29  1  0  0  0
  5  6  1  0  0  0
  5 34  1  0  0  0
  6  7  1  0  0  0
  7 11  1  0  0  0
  7  8  2  0  0  0
  8  9  1  0  0  0
  8 35  1  0  0  0
  9 10  1  0  0  0
 10 11  2  0  0  0
 10 12  1  0  0  0
 12 16  1  0  0  0
 12 13  2  0  0  0
 13 14  1  0  0  0
 13 28  1  0  0  0
 14 15  1  0  0  0
 14 17  1  0  0  0
 15 16  2  0  0  0
 17 22  2  0  0  0
 17 18  1  0  0  0
 18 19  2  0  0  0
 18 36  1  0  0  0
 19 20  1  0  0  0
 19 24  1  0  0  0
 20 21  2  0  0  0
 20 37  1  0  0  0
 21 22  1  0  0  0
 21 38  1  0  0  0
 22 23  1  0  0  0
 24 25  1  0  0  0
 24 26  1  0  0  0
 24 27  1  0  0  0
 28 39  1  0  0  0
 28 40  1  0  0  0
 29 30  1  0  0  0
 30 31  1  0  0  0
 30 41  1  0  0  0
 30 42  1  0  0  0
M  END
> <i_i_glide_confnum>
10

> <i_i_glide_lignum>
2080

> <i_i_glide_posenum>
9

> <i_i_glide_rotatable_bonds>
4

> <i_m_Source_File_Index>
210

> <b_m_subgroup_collapsed>
0

> <r_i_docking_score>
-5.62119

> <r_i_glide_ecoul>
-2.38094

> <r_i_glide_eff_state_penalty>
0

> <r_i_glide_einternal>
1.86521

> <r_i_glide_emodel>
-64.0572

> <r_i_glide_energy>
-48.568

> <r_i_glide_erotb>
0.278845

> <r_i_glide_esite>
-0.0224369

> <r_i_glide_evdw>
-46.187

> <r_i_glide_gscore>
-5.62119

> <r_i_glide_hbond>
0

> <r_i_glide_ligand_efficiency>
-0.181329

> <r_i_glide_ligand_efficiency_ln>
-1.26775

> <r_i_glide_ligand_efficiency_sa>
-0.569622

> <r_i_glide_lipo>
-2.63175

> <r_i_glide_metal>
0

> <r_i_glide_rewards>
-0.579351

> <s_i_glide_gridfile>
wee1_glide-grid

> <s_m_Source_File>
wee1_decoys_glide_SP.sdf

> <s_m_Source_Path>
/Users/zhangxujun/Desktop

> <s_m_entry_id>
485

> <s_m_entry_name>
wee1_decoys_glide_SP.210

> <s_m_subgroup_title>
wee1_decoys_glide_SP

> <s_m_subgroupid>
wee1_decoys_glide_SP


$$$$
