@<TRIPOS>MOLECULE
ZINC43525590_4907
67   70    1
SMALL
USER_CHARGES


@<TRIPOS>ATOM
      1 C1          1.8847   46.3031   12.8591 C.3       1 UNK         0.0000 
      2 C2          2.7642   47.5624   13.0000 C.3       1 UNK         0.0000 
      3 C3          3.1741   48.0855   11.6144 C.3       1 UNK         0.0000 
      4 C4          2.0891   48.6823   13.8284 C.3       1 UNK         0.0000 
      5 N5          1.8770   48.3581   15.2467 N.pl3     1 UNK         0.0000 
      6 C6          0.7139   47.8804   15.7919 C.2       1 UNK         0.0000 
      7 S7         -0.7150   47.5806   14.9880 S.2       1 UNK         0.0000 
      8 N8          0.7130   47.6172   17.1264 N.pl3     1 UNK         0.0000 
      9 C9          1.6926   48.1512   18.0765 C.3       1 UNK         0.0000 
     10 C10         1.3692   49.5968   18.5317 C.3       1 UNK         0.0000 
     11 H11         1.5183   50.2660   17.6806 H         1 UNK         0.0000 
     12 C12        -0.0556   49.7967   19.1422 C.3       1 UNK         0.0000 
     13 C13         0.0176   50.2765   20.6124 C.3       1 UNK         0.0000 
     14 H14        -0.9896   50.3251   21.0236 H         1 UNK         0.0000 
     15 C15         0.8621   49.2349   21.3906 C.3       1 UNK         0.0000 
     16 C16         2.3336   49.2250   20.8856 C.3       1 UNK         0.0000 
     17 N17         2.4303   50.0621   19.5742 N.4       1 UNK         0.0000 
     18 C18         2.1289   51.5485   19.9362 C.3       1 UNK         0.0000 
     19 C19         0.7444   51.6553   20.6770 C.3       1 UNK         0.0000 
     20 H20         0.1520   52.3769   20.1121 H         1 UNK         0.0000 
     21 C21         0.8345   52.2061   22.1041 C.ar      1 UNK         0.0000 
     22 C22         1.9070   52.5089   22.9329 C.ar      1 UNK         0.0000 
     23 C23         1.3855   52.9134   24.1696 C.ar      1 UNK         0.0000 
     24 N24         0.0726   52.8975   24.1336 N.2       1 UNK         0.0000 
     25 N25        -0.2568   52.4961   22.9007 N.pl3     1 UNK         0.0000 
     26 C26        -1.6748   52.3698   22.5929 C.3       1 UNK         0.0000 
     27 C27         2.1348   53.3020   25.4035 C.ar      1 UNK         0.0000 
     28 C28         1.5406   53.2144   26.6682 C.ar      1 UNK         0.0000 
     29 C29         2.2553   53.5731   27.8065 C.ar      1 UNK         0.0000 
     30 C30         3.5761   54.0054   27.7076 C.ar      1 UNK         0.0000 
     31 C31         4.1730   54.0972   26.4411 C.ar      1 UNK         0.0000 
     32 C32         3.4522   53.7570   25.3001 C.ar      1 UNK         0.0000 
     33 O33         4.2084   54.3165   28.8936 O.3       1 UNK         0.0000 
     34 C34         5.6038   54.5920   28.8789 C.3       1 UNK         0.0000 
     35 H35         0.8998   46.5562   12.4683 H         1 UNK         0.0000 
     36 H36         1.7466   45.8079   13.8195 H         1 UNK         0.0000 
     37 H37         2.3045   45.5654   12.1757 H         1 UNK         0.0000 
     38 H38         3.6818   47.2867   13.5198 H         1 UNK         0.0000 
     39 H39         2.3056   48.3902   11.0304 H         1 UNK         0.0000 
     40 H40         3.8361   48.9481   11.6954 H         1 UNK         0.0000 
     41 H41         3.7043   47.3236   11.0419 H         1 UNK         0.0000 
     42 H42         2.7276   49.5674   13.8149 H         1 UNK         0.0000 
     43 H43         1.1643   49.0114   13.3520 H         1 UNK         0.0000 
     44 H44         2.6736   48.4987   15.8602 H         1 UNK         0.0000 
     45 H45        -0.1218   47.1969   17.5099 H         1 UNK         0.0000 
     46 H46         1.6772   47.4708   18.9242 H         1 UNK         0.0000 
     47 H47         2.7044   48.0859   17.6810 H         1 UNK         0.0000 
     48 H48        -0.6207   50.5053   18.5355 H         1 UNK         0.0000 
     49 H49        -0.6294   48.8704   19.0944 H         1 UNK         0.0000 
     50 H50         0.4167   48.2458   21.2807 H         1 UNK         0.0000 
     51 H51         0.8467   49.4488   22.4609 H         1 UNK         0.0000 
     52 H52         2.7044   48.2211   20.6825 H         1 UNK         0.0000 
     53 H53         3.0143   49.6953   21.5983 H         1 UNK         0.0000 
     54 H54         2.9806   51.9122   20.5094 H         1 UNK         0.0000 
     55 H55         2.1301   52.0868   18.9863 H         1 UNK         0.0000 
     56 H56         2.9545   52.4202   22.6909 H         1 UNK         0.0000 
     57 H57        -2.0196   51.3801   22.9000 H         1 UNK         0.0000 
     58 H58        -2.2491   53.1309   23.1287 H         1 UNK         0.0000 
     59 H59        -1.8408   52.4989   21.5224 H         1 UNK         0.0000 
     60 H60         0.5246   52.8633   26.7763 H         1 UNK         0.0000 
     61 H61         1.7869   53.4989   28.7763 H         1 UNK         0.0000 
     62 H62         5.1925   54.4268   26.3199 H         1 UNK         0.0000 
     63 H63         3.9311   53.8407   24.3359 H         1 UNK         0.0000 
     64 H64         5.9044   54.8977   29.8775 H         1 UNK         0.0000 
     65 H65         6.1818   53.7075   28.6054 H         1 UNK         0.0000 
     66 H66         5.8699   55.4080   28.2071 H         1 UNK         0.0000 
     67 H67         3.3534   49.9982   19.1511 H         1 UNK         0.0000 
@<TRIPOS>BOND
     1    1    2 1    
     2    1   35 1    
     3    1   36 1    
     4    1   37 1    
     5    2    3 1    
     6    2    4 1    
     7    2   38 1    
     8    3   39 1    
     9    3   40 1    
    10    3   41 1    
    11    4    5 1    
    12    4   42 1    
    13    4   43 1    
    14    5    6 1    
    15    5   44 1    
    16    6    7 2    
    17    6    8 1    
    18    8    9 1    
    19    8   45 1    
    20    9   10 1    
    21    9   46 1    
    22    9   47 1    
    23   10   11 1    
    24   10   17 1    
    25   10   12 1    
    26   12   13 1    
    27   12   48 1    
    28   12   49 1    
    29   13   14 1    
    30   13   19 1    
    31   13   15 1    
    32   15   16 1    
    33   15   50 1    
    34   15   51 1    
    35   16   17 1    
    36   16   52 1    
    37   16   53 1    
    38   17   18 1    
    39   17   67 1    
    40   18   19 1    
    41   18   54 1    
    42   18   55 1    
    43   19   20 1    
    44   19   21 1    
    45   21   25 ar   
    46   21   22 ar   
    47   22   23 ar   
    48   22   56 1    
    49   23   24 ar   
    50   23   27 1    
    51   24   25 ar   
    52   25   26 1    
    53   26   57 1    
    54   26   58 1    
    55   26   59 1    
    56   27   32 ar   
    57   27   28 ar   
    58   28   29 ar   
    59   28   60 1    
    60   29   30 ar   
    61   29   61 1    
    62   30   31 ar   
    63   30   33 1    
    64   31   32 ar   
    65   31   62 1    
    66   32   63 1    
    67   33   34 1    
    68   34   64 1    
    69   34   65 1    
    70   34   66 1    
@<TRIPOS>SUBSTRUCTURE
     1 UNK         1 GROUP             0       ****    0 ROOT    
