ZINC36073604_4887
                    3D
 Schrodinger Suite 2024-2.
 67 71  0  0  1  0            999 V2000
    5.6681   52.8431   16.2247 C   0  0  0  0  0  0
    5.6783   54.0816   17.0936 C   0  0  0  0  0  0
    6.5442   55.1616   16.8667 C   0  0  0  0  0  0
    6.3726   56.2148   17.7426 C   0  0  0  0  0  0
    5.1047   55.8927   18.8580 S   0  0  0  0  0  0
    4.7741   54.3374   18.1392 C   0  0  0  0  0  0
    3.6548   53.4456   18.6722 C   0  0  0  0  0  0
    3.7032   53.2946   20.2182 N   0  3  1  0  0  0
    2.5253   52.3953   20.7040 C   0  0  0  0  0  0
    2.5391   52.2138   22.2319 C   0  0  0  0  0  0
    1.5219   51.2480   22.7994 C   0  0  0  0  0  0
    1.6262   49.8712   22.8811 C   0  0  0  0  0  0
    0.5463   49.3484   23.5446 N   0  0  0  0  0  0
    0.4612   48.3652   23.7561 H   0  0  0  0  0  0
   -0.3244   50.3567   23.8885 C   0  0  0  0  0  0
    0.2694   51.5725   23.4317 C   0  0  0  0  0  0
   -0.4041   52.7758   23.6815 C   0  0  0  0  0  0
   -1.6441   52.7478   24.3148 C   0  0  0  0  0  0
   -2.2006   51.5481   24.7475 C   0  0  0  0  0  0
   -1.5528   50.3257   24.5588 C   0  0  0  0  0  0
    5.1043   52.8914   20.7580 C   0  0  0  0  0  0
    5.5044   53.7986   21.9170 C   0  0  0  0  0  0
    5.1813   53.6966   23.1871 N   0  0  0  0  0  0
    5.9243   54.5943   23.8224 C   0  0  0  0  0  0
    6.7044   55.2646   22.8868 C   0  0  0  0  0  0
    6.3981   54.7871   21.6607 O   0  0  0  0  0  0
    5.9431   54.8547   25.2422 C   0  0  0  0  0  0
    6.7045   55.6965   25.7199 O   0  0  0  0  0  0
    5.0517   54.1555   25.9710 N   0  0  0  0  0  0
    4.8441   54.2893   27.4185 C   0  0  2  0  0  0
    5.1446   55.2972   27.7047 H   0  0  0  0  0  0
    5.7440   53.3282   28.2100 C   0  0  0  0  0  0
    3.3789   54.1474   27.8464 C   0  0  0  0  0  0
    2.4971   53.2966   27.1675 C   0  0  0  0  0  0
    1.1770   53.1686   27.5912 C   0  0  0  0  0  0
    0.7296   53.9073   28.6837 C   0  0  0  0  0  0
    1.5880   54.7769   29.3518 C   0  0  0  0  0  0
    2.9108   54.8954   28.9329 C   0  0  0  0  0  0
    5.9540   53.0682   15.1975 H   0  0  0  0  0  0
    6.3677   52.0963   16.5944 H   0  0  0  0  0  0
    4.6851   52.3761   16.1570 H   0  0  0  0  0  0
    7.2863   55.1657   16.0799 H   0  0  0  0  0  0
    6.9124   57.1501   17.7760 H   0  0  0  0  0  0
    3.7101   52.4230   18.2886 H   0  0  0  0  0  0
    2.6660   53.8512   18.4519 H   0  0  0  0  0  0
    1.6074   52.8826   20.3646 H   0  0  0  0  0  0
    2.6322   51.4413   20.1830 H   0  0  0  0  0  0
    3.5043   51.7997   22.4817 H   0  0  0  0  0  0
    2.4903   53.1816   22.7316 H   0  0  0  0  0  0
    2.4204   49.2111   22.5598 H   0  0  0  0  0  0
    0.0380   53.7070   23.3740 H   0  0  0  0  0  0
   -2.1762   53.6754   24.4790 H   0  0  0  0  0  0
   -3.1565   51.5654   25.2527 H   0  0  0  0  0  0
   -1.9867   49.4032   24.9169 H   0  0  0  0  0  0
    5.8195   52.9655   19.9388 H   0  0  0  0  0  0
    5.0730   51.8276   20.9971 H   0  0  0  0  0  0
    7.4506   56.0455   22.9469 H   0  0  0  0  0  0
    4.6190   53.3541   25.5384 H   0  0  0  0  0  0
    5.6509   53.5123   29.2806 H   0  0  0  0  0  0
    5.4713   52.2902   28.0327 H   0  0  0  0  0  0
    6.7952   53.4522   27.9461 H   0  0  0  0  0  0
    2.8319   52.7160   26.3212 H   0  0  0  0  0  0
    0.5028   52.5014   27.0731 H   0  0  0  0  0  0
   -0.2942   53.8082   29.0139 H   0  0  0  0  0  0
    1.2297   55.3546   30.1923 H   0  0  0  0  0  0
    3.5726   55.5701   29.4550 H   0  0  0  0  0  0
    3.5266   54.2277   20.5686 H   0  0  0  0  0  0
  1  2  1  0  0  0
  1 39  1  0  0  0
  1 40  1  0  0  0
  1 41  1  0  0  0
  2  6  2  0  0  0
  2  3  1  0  0  0
  3  4  2  0  0  0
  3 42  1  0  0  0
  4  5  1  0  0  0
  4 43  1  0  0  0
  5  6  1  0  0  0
  6  7  1  0  0  0
  7  8  1  0  0  0
  7 44  1  0  0  0
  7 45  1  0  0  0
  8  9  1  0  0  0
  8 21  1  0  0  0
  8 67  1  0  0  0
  9 10  1  0  0  0
  9 46  1  0  0  0
  9 47  1  0  0  0
 10 11  1  0  0  0
 10 48  1  0  0  0
 10 49  1  0  0  0
 11 16  1  0  0  0
 11 12  2  0  0  0
 12 13  1  0  0  0
 12 50  1  0  0  0
 13 14  1  0  0  0
 13 15  1  0  0  0
 15 20  2  0  0  0
 15 16  1  0  0  0
 16 17  2  0  0  0
 17 18  1  0  0  0
 17 51  1  0  0  0
 18 19  2  0  0  0
 18 52  1  0  0  0
 19 20  1  0  0  0
 19 53  1  0  0  0
 20 54  1  0  0  0
 21 22  1  0  0  0
 21 55  1  0  0  0
 21 56  1  0  0  0
 22 26  1  0  0  0
 22 23  2  0  0  0
 23 24  1  0  0  0
 24 25  2  0  0  0
 24 27  1  0  0  0
 25 26  1  0  0  0
 25 57  1  0  0  0
 27 28  2  0  0  0
 27 29  1  0  0  0
 29 30  1  0  0  0
 29 58  1  0  0  0
 30 31  1  0  0  0
 30 32  1  0  0  0
 30 33  1  0  0  0
 32 59  1  0  0  0
 32 60  1  0  0  0
 32 61  1  0  0  0
 33 38  2  0  0  0
 33 34  1  0  0  0
 34 35  2  0  0  0
 34 62  1  0  0  0
 35 36  1  0  0  0
 35 63  1  0  0  0
 36 37  2  0  0  0
 36 64  1  0  0  0
 37 38  1  0  0  0
 37 65  1  0  0  0
 38 66  1  0  0  0
M  CHG  1   8   1
M  END
> <i_i_glide_confnum>
287

> <i_i_glide_lignum>
4888

> <i_i_glide_posenum>
306

> <i_i_glide_rotatable_bonds>
11

> <i_m_Source_File_Index>
3917

> <b_m_subgroup_collapsed>
0

> <r_i_docking_score>
-6.40621

> <r_i_glide_ecoul>
-5.42013

> <r_i_glide_eff_state_penalty>
0

> <r_i_glide_einternal>
14.2642

> <r_i_glide_emodel>
-66.5586

> <r_i_glide_energy>
-51.89

> <r_i_glide_erotb>
0.735949

> <r_i_glide_esite>
-0.00657568

> <r_i_glide_evdw>
-46.4698

> <r_i_glide_gscore>
-6.40621

> <r_i_glide_hbond>
-0.32

> <r_i_glide_ligand_efficiency>
-0.17795

> <r_i_glide_ligand_efficiency_ln>
-1.39766

> <r_i_glide_ligand_efficiency_sa>
-0.587579

> <r_i_glide_lipo>
-3.22668

> <r_i_glide_metal>
0

> <r_i_glide_rewards>
-0.4524

> <s_i_glide_gridfile>
wee1_glide-grid

> <s_m_Source_File>
wee1_decoys_glide_SP.sdf

> <s_m_Source_Path>
/Users/zhangxujun/Desktop

> <s_m_entry_id>
4192

> <s_m_entry_name>
wee1_decoys_glide_SP.3917

> <s_m_subgroup_title>
wee1_decoys_glide_SP

> <s_m_subgroupid>
wee1_decoys_glide_SP


$$$$
