@<TRIPOS>MOLECULE
ZINC44848602_5917
53   56    1
SMALL
USER_CHARGES


@<TRIPOS>ATOM
      1 C1         -0.2509   52.3655   24.9308 C.3       1 UNK         0.0000 
      2 O2          0.9953   52.7812   25.4720 O.3       1 UNK         0.0000 
      3 C3          1.8707   53.4829   24.7253 C.2       1 UNK         0.0000 
      4 O4          1.6710   53.8168   23.5549 O.2       1 UNK         0.0000 
      5 C5          3.1186   53.7874   25.4583 C.2       1 UNK         0.0000 
      6 C6          3.2917   53.8135   26.8792 C.2       1 UNK         0.0000 
      7 C7          4.6059   54.1168   27.2710 C.2       1 UNK         0.0000 
      8 S8          5.6340   54.4266   25.9281 S.3       1 UNK         0.0000 
      9 C9          4.3333   54.0971   24.8106 C.2       1 UNK         0.0000 
     10 N10         4.5105   54.1301   23.4237 N.am      1 UNK         0.0000 
     11 C11         5.6187   54.4168   22.7135 C.2       1 UNK         0.0000 
     12 O12         6.7051   54.7350   23.1889 O.2       1 UNK         0.0000 
     13 C13         5.4394   54.4109   21.2178 C.ar      1 UNK         0.0000 
     14 C14         5.9050   55.5103   20.4895 C.ar      1 UNK         0.0000 
     15 C15         5.8143   55.5415   19.1002 C.ar      1 UNK         0.0000 
     16 C16         5.3030   54.4545   18.3765 C.ar      1 UNK         0.0000 
     17 C17         4.8479   53.3578   19.1140 C.ar      1 UNK         0.0000 
     18 C18         4.9043   53.3172   20.5078 C.ar      1 UNK         0.0000 
     19 Cl19        4.3269   51.8794   21.2816 Cl        1 UNK         0.0000 
     20 N20         5.2041   54.3611   17.0099 N.2       1 UNK         0.0000 
     21 S21         5.6686   55.4310   15.9554 S.o2      1 UNK         0.0000 
     22 O22         6.7566   56.3162   16.3861 O.2       1 UNK         0.0000 
     23 O23         5.7731   54.8778   14.6021 O.2       1 UNK         0.0000 
     24 C24         4.1886   56.4524   15.8824 C.ar      1 UNK         0.0000 
     25 C25         4.2406   57.8128   16.2021 C.ar      1 UNK         0.0000 
     26 C26         3.0881   58.5872   16.0951 C.ar      1 UNK         0.0000 
     27 C27         1.8932   58.0038   15.6840 C.ar      1 UNK         0.0000 
     28 C28         1.8334   56.6486   15.3770 C.ar      1 UNK         0.0000 
     29 C29         2.9840   55.8722   15.4698 C.ar      1 UNK         0.0000 
     30 C30         5.1038   54.2476   28.7056 C.3       1 UNK         0.0000 
     31 C31         4.0559   53.6663   29.6730 C.3       1 UNK         0.0000 
     32 C32         2.6345   54.1302   29.3190 C.3       1 UNK         0.0000 
     33 C33         2.1917   53.6101   27.9336 C.3       1 UNK         0.0000 
     34 H34        -0.8321   51.8527   25.6969 H         1 UNK         0.0000 
     35 H35        -0.8337   53.2188   24.5797 H         1 UNK         0.0000 
     36 H36        -0.1055   51.6779   24.0966 H         1 UNK         0.0000 
     37 H37         3.6799   53.9182   22.8872 H         1 UNK         0.0000 
     38 H38         6.3339   56.3614   20.9982 H         1 UNK         0.0000 
     39 H39         6.1657   56.4294   18.6052 H         1 UNK         0.0000 
     40 H40         4.4562   52.4974   18.5863 H         1 UNK         0.0000 
     41 H41         5.1674   58.2726   16.5162 H         1 UNK         0.0000 
     42 H42         3.1168   59.6409   16.3397 H         1 UNK         0.0000 
     43 H43         1.0035   58.6127   15.6137 H         1 UNK         0.0000 
     44 H44         0.9013   56.2015   15.0639 H         1 UNK         0.0000 
     45 H45         2.9503   54.8194   15.2229 H         1 UNK         0.0000 
     46 H46         5.2696   55.2964   28.9454 H         1 UNK         0.0000 
     47 H47         6.0597   53.7399   28.8424 H         1 UNK         0.0000 
     48 H48         4.3028   53.9566   30.6934 H         1 UNK         0.0000 
     49 H49         4.1001   52.5765   29.6497 H         1 UNK         0.0000 
     50 H50         2.5913   55.2210   29.3344 H         1 UNK         0.0000 
     51 H51         1.9289   53.7928   30.0794 H         1 UNK         0.0000 
     52 H52         1.9473   52.5489   28.0016 H         1 UNK         0.0000 
     53 H53         1.2690   54.1160   27.6469 H         1 UNK         0.0000 
@<TRIPOS>BOND
     1    1    2 1    
     2    1   34 1    
     3    1   35 1    
     4    1   36 1    
     5    2    3 1    
     6    3    4 2    
     7    3    5 1    
     8    5    9 2    
     9    5    6 1    
    10    6   33 1    
    11    6    7 2    
    12    7    8 1    
    13    7   30 1    
    14    8    9 1    
    15    9   10 am   BACKBONE|DICT|INTERRES
    16   10   11 am   BACKBONE|DICT|INTERRES
    17   10   37 1    
    18   11   12 2    
    19   11   13 1    
    20   13   18 ar   
    21   13   14 ar   
    22   14   15 ar   
    23   14   38 1    
    24   15   16 ar   
    25   15   39 1    
    26   16   17 ar   
    27   16   20 1    
    28   17   18 ar   
    29   17   40 1    
    30   18   19 1    
    31   20   21 1    
    32   21   22 2    
    33   21   23 2    
    34   21   24 1    
    35   24   29 ar   
    36   24   25 ar   
    37   25   26 ar   
    38   25   41 1    
    39   26   27 ar   
    40   26   42 1    
    41   27   28 ar   
    42   27   43 1    
    43   28   29 ar   
    44   28   44 1    
    45   29   45 1    
    46   30   31 1    
    47   30   46 1    
    48   30   47 1    
    49   31   32 1    
    50   31   48 1    
    51   31   49 1    
    52   32   33 1    
    53   32   50 1    
    54   32   51 1    
    55   33   52 1    
    56   33   53 1    
@<TRIPOS>SUBSTRUCTURE
     1 UNK         1 GROUP             0       ****    0 ROOT    
