ZINC47827105_3782
                    3D
 Schrodinger Suite 2024-2.
 28 29  0  0  1  0            999 V2000
    1.3213   56.6151   30.8285 C   0  0  0  0  0  0
    1.5067   55.3129   30.0816 C   0  0  0  0  0  0
    2.6200   55.1358   29.2645 C   0  0  0  0  0  0
    2.8228   53.9281   28.5914 C   0  0  0  0  0  0
    1.8808   52.8921   28.7349 C   0  0  0  0  0  0
    0.7594   53.0762   29.5514 C   0  0  0  0  0  0
    0.5808   54.2803   30.2287 C   0  0  0  0  0  0
   -0.5455   51.6986   29.7533 Br  0  0  0  0  0  0
    2.0190   51.6964   28.0815 O   0  0  0  0  0  0
    4.0468   53.7877   27.7358 C   0  0  0  0  0  0
    5.0731   53.2873   28.2012 O   0  0  0  0  0  0
    3.8856   54.2795   26.4892 N   0  0  0  0  0  0
    4.8137   54.3573   25.5064 C   0  0  0  0  0  0
    6.0491   54.6267   25.6374 N   0  0  0  0  0  0
    6.7583   54.6160   24.3836 C   0  0  0  0  0  0
    5.8438   54.2557   23.2076 C   0  0  0  0  0  0
    4.1783   54.0967   23.8630 S   0  0  0  0  0  0
    1.9494   57.4104   30.4372 H   0  0  0  0  0  0
    0.3029   56.9532   30.7130 H   0  0  0  0  0  0
    1.5044   56.4973   31.8950 H   0  0  0  0  0  0
    3.3376   55.9392   29.1722 H   0  0  0  0  0  0
   -0.2786   54.4085   30.8703 H   0  0  0  0  0  0
    1.2661   51.1176   28.2339 H   0  0  0  0  0  0
    2.9451   54.5388   26.2398 H   0  0  0  0  0  0
    7.5539   53.8773   24.4813 H   0  0  0  0  0  0
    7.1899   55.6095   24.2503 H   0  0  0  0  0  0
    5.8237   55.0291   22.4393 H   0  0  0  0  0  0
    6.1014   53.2936   22.7637 H   0  0  0  0  0  0
  1  2  1  0  0  0
  1 18  1  0  0  0
  1 19  1  0  0  0
  1 20  1  0  0  0
  2  7  2  0  0  0
  2  3  1  0  0  0
  3  4  2  0  0  0
  3 21  1  0  0  0
  4  5  1  0  0  0
  4 10  1  0  0  0
  5  6  2  0  0  0
  5  9  1  0  0  0
  6  7  1  0  0  0
  6  8  1  0  0  0
  7 22  1  0  0  0
  9 23  1  0  0  0
 10 11  2  0  0  0
 10 12  1  0  0  0
 12 13  1  0  0  0
 12 24  1  0  0  0
 13 17  1  0  0  0
 13 14  2  0  0  0
 14 15  1  0  0  0
 15 16  1  0  0  0
 15 25  1  0  0  0
 15 26  1  0  0  0
 16 17  1  0  0  0
 16 27  1  0  0  0
 16 28  1  0  0  0
M  END
> <i_i_glide_confnum>
23

> <i_i_glide_lignum>
3783

> <i_i_glide_posenum>
159

> <i_i_glide_rotatable_bonds>
4

> <i_m_Source_File_Index>
1588

> <b_m_subgroup_collapsed>
0

> <r_i_docking_score>
-5.63718

> <r_i_glide_ecoul>
-0.0761873

> <r_i_glide_eff_state_penalty>
0

> <r_i_glide_einternal>
5.89725

> <r_i_glide_emodel>
-47.319

> <r_i_glide_energy>
-37.032

> <r_i_glide_erotb>
0.561662

> <r_i_glide_esite>
0

> <r_i_glide_evdw>
-36.9558

> <r_i_glide_gscore>
-5.63718

> <r_i_glide_hbond>
0

> <r_i_glide_ligand_efficiency>
-0.331599

> <r_i_glide_ligand_efficiency_ln>
-1.47061

> <r_i_glide_ligand_efficiency_sa>
-0.852634

> <r_i_glide_lipo>
-2.42727

> <r_i_glide_metal>
0

> <r_i_glide_rewards>
-1.91236

> <s_i_glide_gridfile>
wee1_glide-grid

> <s_m_Source_File>
wee1_decoys_glide_SP.sdf

> <s_m_Source_Path>
/Users/zhangxujun/Desktop

> <s_m_entry_id>
1863

> <s_m_entry_name>
wee1_decoys_glide_SP.1588

> <s_m_subgroup_title>
wee1_decoys_glide_SP

> <s_m_subgroupid>
wee1_decoys_glide_SP


$$$$
