ZINC58836520_1447
                    3D
 Schrodinger Suite 2024-2.
 44 47  0  0  1  0            999 V2000
    2.3048   51.0832   18.8211 C   0  0  0  0  0  0
    1.4020   52.0579   19.2370 C   0  0  0  0  0  0
    0.3732   51.7164   20.1111 C   0  0  0  0  0  0
    0.2454   50.3939   20.5636 C   0  0  0  0  0  0
    1.1665   49.4287   20.1471 C   0  0  0  0  0  0
    2.1950   49.7728   19.2752 C   0  0  0  0  0  0
   -0.7444   49.9492   21.4576 N   0  0  0  0  0  0
   -1.8368   50.5814   21.9428 C   0  0  0  0  0  0
   -2.2107   51.6952   21.5707 O   0  0  0  0  0  0
   -2.6944   49.8188   23.0017 C   0  0  2  0  0  0
   -3.4586   49.3215   22.4030 H   0  0  0  0  0  0
   -3.3551   50.7366   24.0544 C   0  0  0  0  0  0
   -2.3633   51.4841   24.9824 C   0  0  0  0  0  0
   -2.6959   52.5985   25.4024 O   0  0  0  0  0  0
   -1.1803   50.8355   25.3059 N   0  0  0  0  0  0
   -0.7536   49.5562   24.9514 C   0  0  0  0  0  0
    0.3046   48.9755   25.3337 N   0  0  0  0  0  0
   -1.7539   48.5267   23.8642 S   0  0  0  0  0  0
   -0.2646   51.6544   25.9550 N   0  0  0  0  0  0
   -0.2010   51.5723   27.2354 C   0  0  0  0  0  0
    0.8230   52.2626   28.0245 C   0  0  0  0  0  0
    0.8002   52.1649   29.4325 C   0  0  0  0  0  0
    1.8018   52.7493   30.2210 C   0  0  0  0  0  0
    2.8242   53.4243   29.5630 C   0  0  0  0  0  0
    2.8458   53.5492   28.2040 C   0  0  0  0  0  0
    1.8596   52.9910   27.4035 C   0  0  0  0  0  0
    3.9290   54.2802   27.8327 O   0  0  0  0  0  0
    4.7293   54.3358   28.9791 C   0  0  0  0  0  0
    3.9033   54.0669   30.0817 O   0  0  0  0  0  0
    3.1049   51.3382   18.1401 H   0  0  0  0  0  0
    1.5047   53.0752   18.8866 H   0  0  0  0  0  0
   -0.2972   52.4965   20.4287 H   0  0  0  0  0  0
    1.0937   48.4074   20.4904 H   0  0  0  0  0  0
    2.9088   49.0323   18.9413 H   0  0  0  0  0  0
   -0.5995   49.0145   21.8075 H   0  0  0  0  0  0
   -3.9905   51.4788   23.5673 H   0  0  0  0  0  0
   -4.0056   50.1455   24.7004 H   0  0  0  0  0  0
    0.4051   48.0304   24.9950 H   0  0  0  0  0  0
   -0.8955   50.9580   27.8070 H   0  0  0  0  0  0
    0.0063   51.6220   29.9287 H   0  0  0  0  0  0
    1.7720   52.6598   31.2976 H   0  0  0  0  0  0
    1.9095   53.0935   26.3287 H   0  0  0  0  0  0
    5.2325   55.2967   29.0790 H   0  0  0  0  0  0
    5.5043   53.5692   28.9036 H   0  0  0  0  0  0
  1  6  2  0  0  0
  1  2  1  0  0  0
  1 30  1  0  0  0
  2  3  2  0  0  0
  2 31  1  0  0  0
  3  4  1  0  0  0
  3 32  1  0  0  0
  4  5  2  0  0  0
  4  7  1  0  0  0
  5  6  1  0  0  0
  5 33  1  0  0  0
  6 34  1  0  0  0
  7  8  1  0  0  0
  7 35  1  0  0  0
  8  9  2  0  0  0
  8 10  1  0  0  0
 10 11  1  0  0  0
 10 18  1  0  0  0
 10 12  1  0  0  0
 12 13  1  0  0  0
 12 36  1  0  0  0
 12 37  1  0  0  0
 13 14  2  0  0  0
 13 15  1  0  0  0
 15 16  1  0  0  0
 15 19  1  0  0  0
 16 17  2  0  0  0
 16 18  1  0  0  0
 17 38  1  0  0  0
 19 20  2  0  0  0
 20 21  1  0  0  0
 20 39  1  0  0  0
 21 26  2  0  0  0
 21 22  1  0  0  0
 22 23  2  0  0  0
 22 40  1  0  0  0
 23 24  1  0  0  0
 23 41  1  0  0  0
 24 29  1  0  0  0
 24 25  2  0  0  0
 25 26  1  0  0  0
 25 27  1  0  0  0
 26 42  1  0  0  0
 27 28  1  0  0  0
 28 29  1  0  0  0
 28 43  1  0  0  0
 28 44  1  0  0  0
M  END
> <i_i_glide_confnum>
95

> <i_i_glide_lignum>
1448

> <i_i_glide_posenum>
196

> <i_i_glide_rotatable_bonds>
5

> <i_m_Source_File_Index>
4653

> <b_m_subgroup_collapsed>
0

> <r_i_docking_score>
-4.2824

> <r_i_glide_ecoul>
-5.5172

> <r_i_glide_eff_state_penalty>
0

> <r_i_glide_einternal>
7.35736

> <r_i_glide_emodel>
-51.2826

> <r_i_glide_energy>
-42.2964

> <r_i_glide_erotb>
0.622486

> <r_i_glide_esite>
-0.103818

> <r_i_glide_evdw>
-36.7792

> <r_i_glide_gscore>
-4.2824

> <r_i_glide_hbond>
-0.32

> <r_i_glide_ligand_efficiency>
-0.152943

> <r_i_glide_ligand_efficiency_ln>
-0.988504

> <r_i_glide_ligand_efficiency_sa>
-0.464425

> <r_i_glide_lipo>
-0.728889

> <r_i_glide_metal>
0

> <r_i_glide_rewards>
-1.08564

> <s_i_glide_gridfile>
wee1_glide-grid

> <s_m_Source_File>
wee1_decoys_glide_SP.sdf

> <s_m_Source_Path>
/Users/zhangxujun/Desktop

> <s_m_entry_id>
4928

> <s_m_entry_name>
wee1_decoys_glide_SP.4653

> <s_m_subgroup_title>
wee1_decoys_glide_SP

> <s_m_subgroupid>
wee1_decoys_glide_SP


$$$$
