@<TRIPOS>MOLECULE
ZINC22195979_1179
69   74    1
SMALL
USER_CHARGES


@<TRIPOS>ATOM
      1 C1         -2.4955   50.7676   26.3491 C.3       1 UNK         0.0000 
      2 C2         -1.3022   50.1390   25.6132 C.3       1 UNK         0.0000 
      3 H3         -0.5513   49.8350   26.3484 H         1 UNK         0.0000 
      4 C4         -1.8115   48.8713   24.8867 C.2       1 UNK         0.0000 
      5 O5         -2.0707   48.8706   23.6824 O.2       1 UNK         0.0000 
      6 N6         -1.9738   47.8061   25.6817 N.am      1 UNK         0.0000 
      7 C7         -2.4486   46.4887   25.3071 C.3       1 UNK         0.0000 
      8 C8         -3.3671   45.8015   26.2944 C.3       1 UNK         0.0000 
      9 C9         -3.9150   46.3094   24.9776 C.3       1 UNK         0.0000 
     10 N10        -0.5172   51.0748   24.6352 N.4       1 UNK         0.0000 
     11 C11         0.7576   50.4054   24.0583 C.3       1 UNK         0.0000 
     12 C12         1.6164   51.4100   23.2606 C.3       1 UNK         0.0000 
     13 N13         1.9465   52.6393   24.0027 N.pl3     1 UNK         0.0000 
     14 C14         0.7330   53.3068   24.4671 C.3       1 UNK         0.0000 
     15 C15        -0.1674   52.4070   25.3404 C.3       1 UNK         0.0000 
     16 C16         3.1053   53.3632   23.7369 C.ar      1 UNK         0.0000 
     17 C17         3.9602   53.8677   24.7661 C.ar      1 UNK         0.0000 
     18 C18         3.9231   53.8739   26.2129 C.2       1 UNK         0.0000 
     19 C19         5.1429   54.3017   26.7514 C.2       1 UNK         0.0000 
     20 S20         6.2760   54.8971   25.5683 S.3       1 UNK         0.0000 
     21 C21         5.1951   54.4096   24.2882 C.ar      1 UNK         0.0000 
     22 N22         5.5549   54.4959   23.0083 N.ar      1 UNK         0.0000 
     23 C23         4.6516   54.0124   22.1178 C.ar      1 UNK         0.0000 
     24 N24         3.4571   53.4548   22.4248 N.ar      1 UNK         0.0000 
     25 C25         5.0051   54.0342   20.6839 C.2       1 UNK         0.0000 
     26 C26         6.1612   54.4995   20.1638 C.2       1 UNK         0.0000 
     27 C27         6.5648   54.4942   18.7453 C.ar      1 UNK         0.0000 
     28 C28         7.6164   55.3266   18.3455 C.ar      1 UNK         0.0000 
     29 C29         8.0427   55.3356   17.0198 C.ar      1 UNK         0.0000 
     30 C30         7.4173   54.5088   16.0898 C.ar      1 UNK         0.0000 
     31 C31         6.3685   53.6766   16.4742 C.ar      1 UNK         0.0000 
     32 C32         5.9407   53.6711   17.7985 C.ar      1 UNK         0.0000 
     33 C33         5.4946   54.2988   28.2336 C.3       1 UNK         0.0000 
     34 C34         4.5522   53.3348   28.9760 C.3       1 UNK         0.0000 
     35 C35         3.0857   53.6069   28.6056 C.3       1 UNK         0.0000 
     36 C36         2.7840   53.3717   27.1053 C.3       1 UNK         0.0000 
     37 H37        -3.0100   50.0299   26.9697 H         1 UNK         0.0000 
     38 H38        -2.1558   51.5522   27.0253 H         1 UNK         0.0000 
     39 H39        -3.2095   51.1913   25.6403 H         1 UNK         0.0000 
     40 H40        -1.6829   47.8991   26.6560 H         1 UNK         0.0000 
     41 H41        -1.7151   45.9007   24.7523 H         1 UNK         0.0000 
     42 H42        -3.2555   44.7325   26.4816 H         1 UNK         0.0000 
     43 H43        -3.6131   46.3353   27.2157 H         1 UNK         0.0000 
     44 H44        -4.5559   47.1930   24.9764 H         1 UNK         0.0000 
     45 H45        -4.1906   45.6055   24.1919 H         1 UNK         0.0000 
     46 H46         1.3082   49.9538   24.8817 H         1 UNK         0.0000 
     47 H47         0.4136   49.6189   23.3852 H         1 UNK         0.0000 
     48 H48         1.0501   51.7420   22.3879 H         1 UNK         0.0000 
     49 H49         2.5178   50.9259   22.8807 H         1 UNK         0.0000 
     50 H50         0.9777   54.2598   24.9318 H         1 UNK         0.0000 
     51 H51         0.1854   53.5647   23.5595 H         1 UNK         0.0000 
     52 H52         0.2922   52.1577   26.2983 H         1 UNK         0.0000 
     53 H53        -1.1268   52.8979   25.4978 H         1 UNK         0.0000 
     54 H54         4.2576   53.6319   20.0140 H         1 UNK         0.0000 
     55 H55         6.8980   54.9063   20.8424 H         1 UNK         0.0000 
     56 H56         8.1158   55.9666   19.0590 H         1 UNK         0.0000 
     57 H57         8.8579   55.9767   16.7154 H         1 UNK         0.0000 
     58 H58         7.7513   54.5103   15.0625 H         1 UNK         0.0000 
     59 H59         5.8924   53.0283   15.7526 H         1 UNK         0.0000 
     60 H60         5.1421   52.9986   18.0790 H         1 UNK         0.0000 
     61 H61         6.5333   54.0065   28.3953 H         1 UNK         0.0000 
     62 H62         5.3924   55.2969   28.6522 H         1 UNK         0.0000 
     63 H63         4.8088   52.3022   28.7325 H         1 UNK         0.0000 
     64 H64         4.7022   53.4381   30.0539 H         1 UNK         0.0000 
     65 H65         2.4252   52.9853   29.2116 H         1 UNK         0.0000 
     66 H66         2.8409   54.6390   28.8648 H         1 UNK         0.0000 
     67 H67         1.8531   53.8836   26.8733 H         1 UNK         0.0000 
     68 H68         2.6144   52.3106   26.9273 H         1 UNK         0.0000 
     69 H69        -1.0983   51.3021   23.8390 H         1 UNK         0.0000 
@<TRIPOS>BOND
     1    1    2 1    
     2    1   37 1    
     3    1   38 1    
     4    1   39 1    
     5    2    3 1    
     6    2    4 1    
     7    2   10 1    
     8    4    5 2    
     9    4    6 am   BACKBONE|DICT|INTERRES
    10    6    7 1    
    11    6   40 1    
    12    7    9 1    
    13    7    8 1    
    14    7   41 1    
    15    8    9 1    
    16    8   42 1    
    17    8   43 1    
    18    9   44 1    
    19    9   45 1    
    20   10   15 1    
    21   10   11 1    
    22   10   69 1    
    23   11   12 1    
    24   11   46 1    
    25   11   47 1    
    26   12   13 1    
    27   12   48 1    
    28   12   49 1    
    29   13   14 1    
    30   13   16 1    
    31   14   15 1    
    32   14   50 1    
    33   14   51 1    
    34   15   52 1    
    35   15   53 1    
    36   16   24 ar   
    37   16   17 ar   
    38   17   21 ar   
    39   17   18 1    
    40   18   36 1    
    41   18   19 2    
    42   19   20 1    
    43   19   33 1    
    44   20   21 1    
    45   21   22 ar   
    46   22   23 ar   
    47   23   24 ar   
    48   23   25 1    
    49   25   26 2    
    50   25   54 1    
    51   26   27 1    
    52   26   55 1    
    53   27   32 ar   
    54   27   28 ar   
    55   28   29 ar   
    56   28   56 1    
    57   29   30 ar   
    58   29   57 1    
    59   30   31 ar   
    60   30   58 1    
    61   31   32 ar   
    62   31   59 1    
    63   32   60 1    
    64   33   34 1    
    65   33   61 1    
    66   33   62 1    
    67   34   35 1    
    68   34   63 1    
    69   34   64 1    
    70   35   36 1    
    71   35   65 1    
    72   35   66 1    
    73   36   67 1    
    74   36   68 1    
@<TRIPOS>SUBSTRUCTURE
     1 UNK         1 GROUP             0       ****    0 ROOT    
