ZINC36329125_5660
                    3D
 Schrodinger Suite 2024-2.
 47 49  0  0  1  0            999 V2000
   -1.9291   51.5211   28.3966 C   0  0  0  0  0  0
   -0.4637   51.7852   28.7245 C   0  0  0  0  0  0
   -0.1360   52.1869   30.0253 C   0  0  0  0  0  0
    1.1763   52.4967   30.3707 C   0  0  0  0  0  0
    2.1898   52.3900   29.4176 C   0  0  0  0  0  0
    1.8733   51.9924   28.1200 C   0  0  0  0  0  0
    0.5591   51.6777   27.7573 C   0  0  0  0  0  0
    0.3044   51.2765   26.3291 C   0  0  0  0  0  0
    0.6544   52.0333   25.4226 O   0  0  0  0  0  0
   -0.2603   50.0602   26.1648 N   0  0  0  0  0  0
   -0.5626   49.3738   24.9720 C   0  0  0  0  0  0
   -0.1233   49.7617   23.6972 C   0  0  0  0  0  0
   -0.4949   49.0235   22.5778 C   0  0  0  0  0  0
   -1.2961   47.8906   22.7038 C   0  0  0  0  0  0
   -1.7115   47.4867   23.9813 C   0  0  0  0  0  0
   -1.3435   48.2243   25.1046 C   0  0  0  0  0  0
   -1.6125   47.2389   21.5264 O   0  0  0  0  0  0
   -2.5564   46.1704   21.5148 C   0  0  0  0  0  0
   -2.7464   45.8210   20.2440 F   0  0  0  0  0  0
   -3.7381   46.5431   22.0095 F   0  0  0  0  0  0
   -2.0956   45.0973   22.1594 F   0  0  0  0  0  0
    3.8872   52.7888   29.8293 S   0  0  0  0  0  0
    3.9044   52.8967   31.2817 O   0  0  0  0  0  0
    4.6821   51.6967   29.2817 O   0  0  0  0  0  0
    4.0193   54.1637   29.0970 N   0  5  0  0  0  0
    4.5254   54.1987   27.8231 C   0  0  0  0  0  0
    3.6555   54.4967   26.7677 C   0  0  0  0  0  0
    4.1102   54.6016   25.4541 C   0  0  0  0  0  0
    5.4627   54.4346   25.1735 C   0  0  0  0  0  0
    6.3480   54.1342   26.2050 C   0  0  0  0  0  0
    5.8877   54.0071   27.5168 C   0  0  0  0  0  0
    6.7856   53.6967   28.4817 F   0  0  0  0  0  0
   -2.5864   51.6967   29.2465 H   0  0  0  0  0  0
   -2.2550   52.1402   27.5626 H   0  0  0  0  0  0
   -2.0821   50.4967   28.0851 H   0  0  0  0  0  0
   -0.8956   52.2615   30.7890 H   0  0  0  0  0  0
    1.3966   52.8056   31.3826 H   0  0  0  0  0  0
    2.6686   51.9348   27.3906 H   0  0  0  0  0  0
   -0.5289   49.5686   27.0127 H   0  0  0  0  0  0
    0.5069   50.6226   23.5438 H   0  0  0  0  0  0
   -0.1565   49.3338   21.6001 H   0  0  0  0  0  0
   -2.3232   46.6110   24.1255 H   0  0  0  0  0  0
   -1.6746   47.8994   26.0817 H   0  0  0  0  0  0
    2.6052   54.6475   26.9705 H   0  0  0  0  0  0
    3.4150   54.8264   24.6584 H   0  0  0  0  0  0
    5.8218   54.5247   24.1587 H   0  0  0  0  0  0
    7.3944   53.9920   25.9881 H   0  0  0  0  0  0
  1  2  1  0  0  0
  1 33  1  0  0  0
  1 34  1  0  0  0
  1 35  1  0  0  0
  2  7  2  0  0  0
  2  3  1  0  0  0
  3  4  2  0  0  0
  3 36  1  0  0  0
  4  5  1  0  0  0
  4 37  1  0  0  0
  5  6  2  0  0  0
  5 22  1  0  0  0
  6  7  1  0  0  0
  6 38  1  0  0  0
  7  8  1  0  0  0
  8  9  2  0  0  0
  8 10  1  0  0  0
 10 11  1  0  0  0
 10 39  1  0  0  0
 11 16  2  0  0  0
 11 12  1  0  0  0
 12 13  2  0  0  0
 12 40  1  0  0  0
 13 14  1  0  0  0
 13 41  1  0  0  0
 14 15  2  0  0  0
 14 17  1  0  0  0
 15 16  1  0  0  0
 15 42  1  0  0  0
 16 43  1  0  0  0
 17 18  1  0  0  0
 18 19  1  0  0  0
 18 20  1  0  0  0
 18 21  1  0  0  0
 22 23  2  0  0  0
 22 24  2  0  0  0
 22 25  1  0  0  0
 25 26  1  0  0  0
 26 31  2  0  0  0
 26 27  1  0  0  0
 27 28  2  0  0  0
 27 44  1  0  0  0
 28 29  1  0  0  0
 28 45  1  0  0  0
 29 30  2  0  0  0
 29 46  1  0  0  0
 30 31  1  0  0  0
 30 47  1  0  0  0
 31 32  1  0  0  0
M  CHG  1  25  -1
M  END
> <i_i_glide_confnum>
150

> <i_i_glide_lignum>
5661

> <i_i_glide_posenum>
300

> <i_i_glide_rotatable_bonds>
8

> <i_m_Source_File_Index>
4422

> <b_m_subgroup_collapsed>
0

> <r_i_docking_score>
-5.31826

> <r_i_glide_ecoul>
-7.61895

> <r_i_glide_eff_state_penalty>
0

> <r_i_glide_einternal>
12.0981

> <r_i_glide_emodel>
-53.1402

> <r_i_glide_energy>
-44.402

> <r_i_glide_erotb>
0.646639

> <r_i_glide_esite>
-0.194339

> <r_i_glide_evdw>
-36.7831

> <r_i_glide_gscore>
-5.31826

> <r_i_glide_hbond>
-0.154098

> <r_i_glide_ligand_efficiency>
-0.166196

> <r_i_glide_ligand_efficiency_ln>
-1.1909

> <r_i_glide_ligand_efficiency_sa>
-0.527638

> <r_i_glide_lipo>
-2.03111

> <r_i_glide_metal>
0

> <r_i_glide_rewards>
-0.603358

> <s_i_glide_gridfile>
wee1_glide-grid

> <s_m_Source_File>
wee1_decoys_glide_SP.sdf

> <s_m_Source_Path>
/Users/zhangxujun/Desktop

> <s_m_entry_id>
4697

> <s_m_entry_name>
wee1_decoys_glide_SP.4422

> <s_m_subgroup_title>
wee1_decoys_glide_SP

> <s_m_subgroupid>
wee1_decoys_glide_SP


$$$$
