@<TRIPOS>MOLECULE
ZINC35692914_5649
57   61    1
SMALL
USER_CHARGES


@<TRIPOS>ATOM
      1 C1          2.3061   51.4059   18.8686 C.3       1 UNK         0.0000 
      2 C2          1.6540   50.0236   18.7116 C.3       1 UNK         0.0000 
      3 O3          0.6836   49.8214   19.7337 O.3       1 UNK         0.0000 
      4 C4          1.0185   49.2689   20.9252 C.2       1 UNK         0.0000 
      5 O5          2.1324   48.8220   21.2037 O.2       1 UNK         0.0000 
      6 C6         -0.0742   49.3117   21.9077 C.2       1 UNK         0.0000 
      7 C7         -1.3585   48.9328   21.6070 C.2       1 UNK         0.0000 
      8 N8         -2.3880   49.0411   22.4986 N.2       1 UNK         0.0000 
      9 C9         -2.1341   49.4034   23.6950 C.2       1 UNK         0.0000 
     10 N10        -0.8893   49.7361   24.2322 N.pl3     1 UNK         0.0000 
     11 C11         0.2824   49.8941   23.3137 C.3       1 UNK         0.0000 
     12 H12         1.0706   49.2794   23.7501 H         1 UNK         0.0000 
     13 C13         0.8445   51.3326   23.2791 C.ar      1 UNK         0.0000 
     14 C14         0.0701   52.4270   23.6781 C.ar      1 UNK         0.0000 
     15 C15         0.6257   53.6960   23.7252 C.ar      1 UNK         0.0000 
     16 C16         1.9345   53.9077   23.3152 C.ar      1 UNK         0.0000 
     17 C17         2.7044   52.8396   22.8750 C.ar      1 UNK         0.0000 
     18 C18         2.1668   51.5557   22.8796 C.ar      1 UNK         0.0000 
     19 C19        -0.9043   50.0409   25.5883 C.2       1 UNK         0.0000 
     20 C20        -2.1571   50.0970   26.0769 C.2       1 UNK         0.0000 
     21 S21        -3.3978   49.6652   24.9090 S.3       1 UNK         0.0000 
     22 C22         0.2642   50.3446   26.4074 C.2       1 UNK         0.0000 
     23 C23         0.3602   51.3431   27.3071 C.2       1 UNK         0.0000 
     24 O24        -0.4855   52.2670   27.6085 O.co2     1 UNK         0.0000 
     25 N25         1.5044   51.4742   28.0651 N.pl3     1 UNK         0.0000 
     26 C26         2.1160   52.6868   28.5917 C.3       1 UNK         0.0000 
     27 C27         1.9682   52.9188   30.0802 C.3       1 UNK         0.0000 
     28 C28         3.2995   52.5002   29.5164 C.3       1 UNK         0.0000 
     29 C29        -1.7953   48.2822   20.3391 C.ar      1 UNK         0.0000 
     30 C30        -1.1501   47.1281   19.8712 C.ar      1 UNK         0.0000 
     31 C31        -1.5546   46.5228   18.6859 C.ar      1 UNK         0.0000 
     32 C32        -2.6115   47.0663   17.9612 C.ar      1 UNK         0.0000 
     33 C33        -3.2645   48.2122   18.4097 C.ar      1 UNK         0.0000 
     34 C34        -2.8560   48.8159   19.5959 C.ar      1 UNK         0.0000 
     35 H35         3.0752   51.5509   18.1077 H         1 UNK         0.0000 
     36 H36         1.5718   52.2068   18.7707 H         1 UNK         0.0000 
     37 H37         2.7897   51.5115   19.8417 H         1 UNK         0.0000 
     38 H38         2.4115   49.2358   18.7083 H         1 UNK         0.0000 
     39 H39         1.1493   49.9703   17.7456 H         1 UNK         0.0000 
     40 H40        -0.9548   52.3026   23.9954 H         1 UNK         0.0000 
     41 H41         0.0092   54.4966   24.0810 H         1 UNK         0.0000 
     42 H42         2.3602   54.8977   23.3415 H         1 UNK         0.0000 
     43 H43         3.7247   52.9991   22.5615 H         1 UNK         0.0000 
     44 H44         2.7960   50.7330   22.5801 H         1 UNK         0.0000 
     45 H45        -2.4192   50.3258   27.1011 H         1 UNK         0.0000 
     46 H46         1.1041   49.6781   26.2914 H         1 UNK         0.0000 
     47 H47         2.1618   50.7149   28.0019 H         1 UNK         0.0000 
     48 H48         2.1020   53.5433   27.9142 H         1 UNK         0.0000 
     49 H49         1.3786   52.2074   30.6593 H         1 UNK         0.0000 
     50 H50         1.8163   53.9459   30.4116 H         1 UNK         0.0000 
     51 H51         4.1081   53.2290   29.4616 H         1 UNK         0.0000 
     52 H52         3.6689   51.4907   29.6909 H         1 UNK         0.0000 
     53 H53        -0.3330   46.7000   20.4341 H         1 UNK         0.0000 
     54 H54        -1.0485   45.6374   18.3313 H         1 UNK         0.0000 
     55 H55        -2.9248   46.5981   17.0395 H         1 UNK         0.0000 
     56 H56        -4.0802   48.6301   17.8411 H         1 UNK         0.0000 
     57 H57        -3.3648   49.7033   19.9444 H         1 UNK         0.0000 
@<TRIPOS>BOND
     1    1    2 1    
     2    1   35 1    
     3    1   36 1    
     4    1   37 1    
     5    2    3 1    
     6    2   38 1    
     7    2   39 1    
     8    3    4 1    
     9    4    5 2    
    10    4    6 1    
    11    6   11 1    
    12    6    7 2    
    13    7    8 1    
    14    7   29 1    
    15    8    9 2    
    16    9   21 1    
    17    9   10 1    
    18   10   11 1    
    19   10   19 1    
    20   11   12 1    
    21   11   13 1    
    22   13   18 ar   
    23   13   14 ar   
    24   14   15 ar   
    25   14   40 1    
    26   15   16 ar   
    27   15   41 1    
    28   16   17 ar   
    29   16   42 1    
    30   17   18 ar   
    31   17   43 1    
    32   18   44 1    
    33   19   20 2    
    34   19   22 1    
    35   20   21 1    
    36   20   45 1    
    37   22   23 2    
    38   22   46 1    
    39   23   24 1    
    40   23   25 1    
    41   25   26 1    
    42   25   47 1    
    43   26   28 1    
    44   26   27 1    
    45   26   48 1    
    46   27   28 1    
    47   27   49 1    
    48   27   50 1    
    49   28   51 1    
    50   28   52 1    
    51   29   34 ar   
    52   29   30 ar   
    53   30   31 ar   
    54   30   53 1    
    55   31   32 ar   
    56   31   54 1    
    57   32   33 ar   
    58   32   55 1    
    59   33   34 ar   
    60   33   56 1    
    61   34   57 1    
@<TRIPOS>SUBSTRUCTURE
     1 UNK         1 GROUP             0       ****    0 ROOT    
