ZINC06292347_3560
                    3D
 Schrodinger Suite 2024-2.
 41 44  0  0  1  0            999 V2000
    5.1083   52.0528   20.9307 C   0  0  0  0  0  0
    4.6112   53.5049   21.0342 C   0  0  2  0  0  0
    4.3453   53.8073   20.0193 H   0  0  0  0  0  0
    5.6705   54.5289   21.5101 C   0  0  0  0  0  0
    6.1376   54.2789   22.9662 C   0  0  0  0  0  0
    4.9092   54.0970   23.8623 C   0  0  0  0  0  0
    3.6412   53.7874   23.3323 C   0  0  0  0  0  0
    2.3972   53.6968   24.5319 S   0  0  0  0  0  0
    3.5494   54.0668   25.7528 C   0  0  0  0  0  0
    4.8487   54.2433   25.2655 C   0  0  0  0  0  0
    5.9090   54.5565   26.2385 C   0  0  0  0  0  0
    7.0957   54.8146   26.0482 O   0  0  0  0  0  0
    5.4134   54.5601   27.5167 N   0  0  0  0  0  0
    6.1147   54.7623   28.2138 H   0  0  0  0  0  0
    4.1011   54.3802   27.9171 C   0  0  0  0  0  0
    3.1744   54.1538   27.0534 N   0  0  0  0  0  0
    3.7457   54.4997   29.3980 C   0  0  1  0  0  0
    4.6069   54.8960   29.9363 H   0  0  0  0  0  0
    2.5820   55.5064   29.6134 C   0  0  0  0  0  0
    3.5069   52.8199   30.0878 S   0  0  0  0  0  0
    1.8025   52.5424   29.7560 C   0  0  0  0  0  0
    0.8227   52.8910   30.5558 N   0  0  0  0  0  0
   -0.4240   52.5021   30.0821 N   0  0  0  0  0  0
   -0.3462   51.8536   28.9508 C   0  0  0  0  0  0
    1.2666   51.6965   28.3331 S   0  0  0  0  0  0
   -1.4037   51.2968   28.2978 N   0  0  0  0  0  0
    3.3135   53.6298   21.8629 C   0  0  0  0  0  0
    5.4870   51.6843   21.8843 H   0  0  0  0  0  0
    4.3124   51.3806   20.6066 H   0  0  0  0  0  0
    5.9037   51.9709   20.1905 H   0  0  0  0  0  0
    6.5399   54.4998   20.8529 H   0  0  0  0  0  0
    5.2642   55.5371   21.4231 H   0  0  0  0  0  0
    6.7572   55.1118   23.3026 H   0  0  0  0  0  0
    6.7720   53.3938   23.0197 H   0  0  0  0  0  0
    2.8522   56.5081   29.2790 H   0  0  0  0  0  0
    1.6786   55.2209   29.0721 H   0  0  0  0  0  0
    2.3031   55.5986   30.6602 H   0  0  0  0  0  0
   -2.3214   51.5056   28.6576 H   0  0  0  0  0  0
   -1.3357   50.3027   28.0788 H   0  0  0  0  0  0
    2.6559   52.7772   21.6891 H   0  0  0  0  0  0
    2.7594   54.5067   21.5574 H   0  0  0  0  0  0
  1  2  1  0  0  0
  1 28  1  0  0  0
  1 29  1  0  0  0
  1 30  1  0  0  0
  2  3  1  0  0  0
  2 27  1  0  0  0
  2  4  1  0  0  0
  4  5  1  0  0  0
  4 31  1  0  0  0
  4 32  1  0  0  0
  5  6  1  0  0  0
  5 33  1  0  0  0
  5 34  1  0  0  0
  6 10  1  0  0  0
  6  7  2  0  0  0
  7  8  1  0  0  0
  7 27  1  0  0  0
  8  9  1  0  0  0
  9 16  1  0  0  0
  9 10  2  0  0  0
 10 11  1  0  0  0
 11 12  2  0  0  0
 11 13  1  0  0  0
 13 14  1  0  0  0
 13 15  1  0  0  0
 15 16  2  0  0  0
 15 17  1  0  0  0
 17 18  1  0  0  0
 17 19  1  0  0  0
 17 20  1  0  0  0
 19 35  1  0  0  0
 19 36  1  0  0  0
 19 37  1  0  0  0
 20 21  1  0  0  0
 21 25  1  0  0  0
 21 22  2  0  0  0
 22 23  1  0  0  0
 23 24  2  0  0  0
 24 25  1  0  0  0
 24 26  1  0  0  0
 26 38  1  0  0  0
 26 39  1  0  0  0
 27 40  1  0  0  0
 27 41  1  0  0  0
M  END
> <i_i_glide_confnum>
22

> <i_i_glide_lignum>
3561

> <i_i_glide_posenum>
291

> <i_i_glide_rotatable_bonds>
3

> <i_m_Source_File_Index>
5131

> <b_m_subgroup_collapsed>
0

> <r_i_docking_score>
-8.32954

> <r_i_glide_ecoul>
-8.01556

> <r_i_glide_eff_state_penalty>
0

> <r_i_glide_einternal>
2.16026

> <r_i_glide_emodel>
-77.8483

> <r_i_glide_energy>
-55.1339

> <r_i_glide_erotb>
0.403862

> <r_i_glide_esite>
-0.159453

> <r_i_glide_evdw>
-47.1184

> <r_i_glide_gscore>
-8.32954

> <r_i_glide_hbond>
-0.456

> <r_i_glide_ligand_efficiency>
-0.347064

> <r_i_glide_ligand_efficiency_ln>
-1.99364

> <r_i_glide_ligand_efficiency_sa>
-1.00111

> <r_i_glide_lipo>
-2.86509

> <r_i_glide_metal>
0

> <r_i_glide_rewards>
-1.69461

> <s_i_glide_gridfile>
wee1_glide-grid

> <s_m_Source_File>
wee1_decoys_glide_SP.sdf

> <s_m_Source_Path>
/Users/zhangxujun/Desktop

> <s_m_entry_id>
5406

> <s_m_entry_name>
wee1_decoys_glide_SP.5131

> <s_m_subgroup_title>
wee1_decoys_glide_SP

> <s_m_subgroupid>
wee1_decoys_glide_SP


$$$$
