ZINC17080407_4573
                    3D
 Schrodinger Suite 2024-2.
 56 58  0  0  1  0            999 V2000
   -2.7060   46.6299   26.4831 C   0  0  0  0  0  0
   -2.8072   46.6682   24.9657 C   0  0  0  0  0  0
   -3.6393   45.9367   24.4259 O   0  0  0  0  0  0
   -1.8929   47.5844   24.2124 C   0  0  0  0  0  0
   -0.9315   48.3734   24.8631 C   0  0  0  0  0  0
   -0.1046   49.2230   24.1300 C   0  0  0  0  0  0
   -0.2326   49.2964   22.7353 C   0  0  0  0  0  0
   -1.1744   48.4990   22.0866 C   0  0  0  0  0  0
   -2.0003   47.6526   22.8178 C   0  0  0  0  0  0
    0.5594   50.1053   21.9027 N   0  0  0  0  0  0
    1.3212   51.1684   22.2220 C   0  0  0  0  0  0
    1.3948   51.6838   23.3405 O   0  0  0  0  0  0
    2.0091   51.5796   21.1392 N   0  0  0  0  0  0
    2.8739   52.6664   21.2510 N   0  0  0  0  0  0
    4.2004   52.4229   21.2811 C   0  0  0  0  0  0
    4.6968   51.2967   21.2832 O   0  0  0  0  0  0
    5.1727   53.6010   21.2689 C   0  0  1  0  0  0
    5.9043   53.4825   20.4753 H   0  0  0  0  0  0
    4.7279   55.0063   21.4896 C   0  0  0  0  0  0
    5.5445   54.3099   22.5787 C   0  0  1  0  0  0
    6.5975   54.5927   22.6240 H   0  0  0  0  0  0
    4.9210   54.1646   23.9797 C   0  0  0  0  0  0
    3.5395   54.0949   24.1883 C   0  0  0  0  0  0
    3.0200   53.9973   25.4747 C   0  0  0  0  0  0
    3.8576   53.9772   26.5978 C   0  0  0  0  0  0
    5.2424   54.0850   26.3853 C   0  0  0  0  0  0
    5.7647   54.1727   25.0942 C   0  0  0  0  0  0
    3.2392   53.7958   28.0133 C   0  0  0  0  0  0
    2.4540   55.0633   28.4170 C   0  0  0  0  0  0
    4.3049   53.5157   29.1070 C   0  0  0  0  0  0
    2.2463   52.6038   28.0286 C   0  0  0  0  0  0
   -1.6950   46.3734   26.7987 H   0  0  0  0  0  0
   -2.9270   47.6192   26.8815 H   0  0  0  0  0  0
   -3.4003   45.9111   26.9174 H   0  0  0  0  0  0
   -0.8057   48.3412   25.9384 H   0  0  0  0  0  0
    0.6370   49.7996   24.6615 H   0  0  0  0  0  0
   -1.2793   48.5333   21.0117 H   0  0  0  0  0  0
   -2.7279   47.0557   22.2853 H   0  0  0  0  0  0
    0.5107   49.8694   20.9239 H   0  0  0  0  0  0
    1.7703   51.3575   20.1837 H   0  0  0  0  0  0
    2.4490   53.5605   21.0448 H   0  0  0  0  0  0
    3.6918   55.2779   21.6949 H   0  0  0  0  0  0
    5.2231   55.7724   20.8957 H   0  0  0  0  0  0
    2.8428   54.1157   23.3680 H   0  0  0  0  0  0
    1.9483   53.9294   25.5859 H   0  0  0  0  0  0
    5.9393   54.0785   27.2087 H   0  0  0  0  0  0
    6.8348   54.2402   24.9631 H   0  0  0  0  0  0
    1.9654   54.9423   29.3848 H   0  0  0  0  0  0
    1.6729   55.2983   27.6943 H   0  0  0  0  0  0
    3.1043   55.9308   28.5003 H   0  0  0  0  0  0
    4.9038   52.6350   28.8680 H   0  0  0  0  0  0
    4.9868   54.3580   29.2371 H   0  0  0  0  0  0
    3.8464   53.3361   30.0810 H   0  0  0  0  0  0
    2.7132   51.6863   27.6819 H   0  0  0  0  0  0
    1.8623   52.4097   29.0313 H   0  0  0  0  0  0
    1.3744   52.7768   27.3978 H   0  0  0  0  0  0
  1  2  1  0  0  0
  1 32  1  0  0  0
  1 33  1  0  0  0
  1 34  1  0  0  0
  2  3  2  0  0  0
  2  4  1  0  0  0
  4  9  2  0  0  0
  4  5  1  0  0  0
  5  6  2  0  0  0
  5 35  1  0  0  0
  6  7  1  0  0  0
  6 36  1  0  0  0
  7  8  2  0  0  0
  7 10  1  0  0  0
  8  9  1  0  0  0
  8 37  1  0  0  0
  9 38  1  0  0  0
 10 11  1  0  0  0
 10 39  1  0  0  0
 11 12  2  0  0  0
 11 13  1  0  0  0
 13 14  1  0  0  0
 13 40  1  0  0  0
 14 15  1  0  0  0
 14 41  1  0  0  0
 15 16  2  0  0  0
 15 17  1  0  0  0
 17 18  1  0  0  0
 17 20  1  0  0  0
 17 19  1  0  0  0
 19 20  1  0  0  0
 19 42  1  0  0  0
 19 43  1  0  0  0
 20 21  1  0  0  0
 20 22  1  0  0  0
 22 27  2  0  0  0
 22 23  1  0  0  0
 23 24  2  0  0  0
 23 44  1  0  0  0
 24 25  1  0  0  0
 24 45  1  0  0  0
 25 26  2  0  0  0
 25 28  1  0  0  0
 26 27  1  0  0  0
 26 46  1  0  0  0
 27 47  1  0  0  0
 28 29  1  0  0  0
 28 30  1  0  0  0
 28 31  1  0  0  0
 29 48  1  0  0  0
 29 49  1  0  0  0
 29 50  1  0  0  0
 30 51  1  0  0  0
 30 52  1  0  0  0
 30 53  1  0  0  0
 31 54  1  0  0  0
 31 55  1  0  0  0
 31 56  1  0  0  0
M  END
> <i_i_glide_confnum>
116

> <i_i_glide_lignum>
4574

> <i_i_glide_posenum>
394

> <i_i_glide_rotatable_bonds>
9

> <i_m_Source_File_Index>
5917

> <b_m_subgroup_collapsed>
0

> <r_i_docking_score>
-5.96326

> <r_i_glide_ecoul>
-6.18448

> <r_i_glide_eff_state_penalty>
0

> <r_i_glide_einternal>
7.5125

> <r_i_glide_emodel>
-53.3699

> <r_i_glide_energy>
-41.2482

> <r_i_glide_erotb>
0.883231

> <r_i_glide_esite>
-0.0776098

> <r_i_glide_evdw>
-35.0637

> <r_i_glide_gscore>
-5.96326

> <r_i_glide_hbond>
-0.282761

> <r_i_glide_ligand_efficiency>
-0.20563

> <r_i_glide_ligand_efficiency_ln>
-1.36543

> <r_i_glide_ligand_efficiency_sa>
-0.631759

> <r_i_glide_lipo>
-2.76824

> <r_i_glide_metal>
0

> <r_i_glide_rewards>
-1.03702

> <s_i_glide_gridfile>
wee1_glide-grid

> <s_m_Source_File>
wee1_decoys_glide_SP.sdf

> <s_m_Source_Path>
/Users/zhangxujun/Desktop

> <s_m_entry_id>
6192

> <s_m_entry_name>
wee1_decoys_glide_SP.5917

> <s_m_subgroup_title>
wee1_decoys_glide_SP

> <s_m_subgroupid>
wee1_decoys_glide_SP


$$$$
