ZINC60034001_456
                    3D
 Schrodinger Suite 2024-2.
 54 56  0  0  1  0            999 V2000
    0.2697   48.6512   24.5120 C   0  0  0  0  0  0
   -1.1484   49.1246   24.8841 C   0  0  0  0  0  0
   -1.8013   49.8705   23.7003 C   0  0  0  0  0  0
   -2.0127   47.9029   25.2592 C   0  0  0  0  0  0
   -1.0742   49.9942   26.0817 N   0  0  0  0  0  0
   -0.5604   51.6816   26.0101 S   0  0  0  0  0  0
    0.5881   51.7533   25.0994 O   0  0  0  0  0  0
   -1.7537   52.4963   25.7444 O   0  0  0  0  0  0
   -0.0034   52.1177   27.6760 C   0  0  0  0  0  0
   -0.8119   51.7045   28.7415 C   0  0  0  0  0  0
   -0.4938   52.0512   30.0538 C   0  0  0  0  0  0
    0.6484   52.8030   30.3146 C   0  0  0  0  0  0
    1.4724   53.2098   29.2642 C   0  0  0  0  0  0
    1.1610   52.8774   27.9330 C   0  0  0  0  0  0
    1.9643   53.2520   26.8363 N   0  0  0  0  0  0
    3.1044   53.9745   26.7533 C   0  0  0  0  0  0
    3.6774   54.4951   27.7118 O   0  0  0  0  0  0
    3.6846   54.1044   25.3564 C   0  0  0  0  0  0
    5.0526   54.3740   25.1908 C   0  0  0  0  0  0
    5.6087   54.4963   23.9175 C   0  0  0  0  0  0
    4.7964   54.3647   22.7828 C   0  0  0  0  0  0
    3.4359   54.0959   22.9350 C   0  0  0  0  0  0
    2.8834   53.9827   24.2081 C   0  0  0  0  0  0
    5.2824   54.4678   21.4693 N   0  0  0  0  0  0
    6.2948   55.2401   21.0157 C   0  0  0  0  0  0
    6.8776   56.0966   21.6821 O   0  0  0  0  0  0
    6.6982   54.9469   19.6618 C   0  0  0  0  0  0
    6.1016   54.1027   18.7139 C   0  0  0  0  0  0
    6.8024   54.0477   17.5068 C   0  0  0  0  0  0
    7.9308   54.8544   17.5062 C   0  0  0  0  0  0
    8.1340   55.6966   19.0069 S   0  0  0  0  0  0
    0.2426   47.9451   23.6826 H   0  0  0  0  0  0
    0.7549   48.1431   25.3515 H   0  0  0  0  0  0
    0.9212   49.4739   24.2058 H   0  0  0  0  0  0
   -2.7853   50.2619   23.9693 H   0  0  0  0  0  0
   -1.1936   50.7125   23.3607 H   0  0  0  0  0  0
   -1.9346   49.2107   22.8418 H   0  0  0  0  0  0
   -3.0141   48.2019   25.5748 H   0  0  0  0  0  0
   -2.1258   47.2194   24.4177 H   0  0  0  0  0  0
   -1.5691   47.3379   26.0821 H   0  0  0  0  0  0
   -0.8955   49.4905   26.9623 H   0  0  0  0  0  0
   -1.6986   51.1102   28.5609 H   0  0  0  0  0  0
   -1.1082   51.7109   30.8811 H   0  0  0  0  0  0
    0.8998   53.0551   31.3364 H   0  0  0  0  0  0
    2.3505   53.7792   29.5166 H   0  0  0  0  0  0
    1.6404   52.8503   25.9631 H   0  0  0  0  0  0
    5.6982   54.4788   26.0505 H   0  0  0  0  0  0
    6.6672   54.6925   23.8216 H   0  0  0  0  0  0
    2.7934   53.9979   22.0697 H   0  0  0  0  0  0
    1.8201   53.8058   24.2806 H   0  0  0  0  0  0
    4.7954   53.9108   20.7864 H   0  0  0  0  0  0
    5.1998   53.5313   18.8816 H   0  0  0  0  0  0
    6.4984   53.4395   16.6667 H   0  0  0  0  0  0
    8.6431   54.9948   16.7066 H   0  0  0  0  0  0
  1  2  1  0  0  0
  1 32  1  0  0  0
  1 33  1  0  0  0
  1 34  1  0  0  0
  2  3  1  0  0  0
  2  4  1  0  0  0
  2  5  1  0  0  0
  3 35  1  0  0  0
  3 36  1  0  0  0
  3 37  1  0  0  0
  4 38  1  0  0  0
  4 39  1  0  0  0
  4 40  1  0  0  0
  5  6  1  0  0  0
  5 41  1  0  0  0
  6  7  2  0  0  0
  6  8  2  0  0  0
  6  9  1  0  0  0
  9 14  2  0  0  0
  9 10  1  0  0  0
 10 11  2  0  0  0
 10 42  1  0  0  0
 11 12  1  0  0  0
 11 43  1  0  0  0
 12 13  2  0  0  0
 12 44  1  0  0  0
 13 14  1  0  0  0
 13 45  1  0  0  0
 14 15  1  0  0  0
 15 16  1  0  0  0
 15 46  1  0  0  0
 16 17  2  0  0  0
 16 18  1  0  0  0
 18 23  2  0  0  0
 18 19  1  0  0  0
 19 20  2  0  0  0
 19 47  1  0  0  0
 20 21  1  0  0  0
 20 48  1  0  0  0
 21 22  2  0  0  0
 21 24  1  0  0  0
 22 23  1  0  0  0
 22 49  1  0  0  0
 23 50  1  0  0  0
 24 25  1  0  0  0
 24 51  1  0  0  0
 25 26  2  0  0  0
 25 27  1  0  0  0
 27 31  1  0  0  0
 27 28  2  0  0  0
 28 29  1  0  0  0
 28 52  1  0  0  0
 29 30  2  0  0  0
 29 53  1  0  0  0
 30 31  1  0  0  0
 30 54  1  0  0  0
M  END
> <i_i_glide_confnum>
50

> <i_i_glide_lignum>
457

> <i_i_glide_posenum>
313

> <i_i_glide_rotatable_bonds>
9

> <i_m_Source_File_Index>
4558

> <b_m_subgroup_collapsed>
0

> <r_i_docking_score>
-2.93385

> <r_i_glide_ecoul>
-6.95347

> <r_i_glide_eff_state_penalty>
0

> <r_i_glide_einternal>
9.14265

> <r_i_glide_emodel>
-50.6125

> <r_i_glide_energy>
-52.998

> <r_i_glide_erotb>
0.768251

> <r_i_glide_esite>
-0.116475

> <r_i_glide_evdw>
-46.0445

> <r_i_glide_gscore>
-2.93385

> <r_i_glide_hbond>
-0.16

> <r_i_glide_ligand_efficiency>
-0.0946402

> <r_i_glide_ligand_efficiency_ln>
-0.661672

> <r_i_glide_ligand_efficiency_sa>
-0.297301

> <r_i_glide_lipo>
-1.93539

> <r_i_glide_metal>
0

> <r_i_glide_rewards>
1.85502

> <s_i_glide_gridfile>
wee1_glide-grid

> <s_m_Source_File>
wee1_decoys_glide_SP.sdf

> <s_m_Source_Path>
/Users/zhangxujun/Desktop

> <s_m_entry_id>
4833

> <s_m_entry_name>
wee1_decoys_glide_SP.4558

> <s_m_subgroup_title>
wee1_decoys_glide_SP

> <s_m_subgroupid>
wee1_decoys_glide_SP


$$$$
