@<TRIPOS>MOLECULE
ZINC13211458_3300
55   58    1
SMALL
USER_CHARGES


@<TRIPOS>ATOM
      1 C1          5.4987   54.0955   23.1098 C.ar      1 UNK         0.0000 
      2 C2          6.6852   54.7637   22.7937 C.ar      1 UNK         0.0000 
      3 C3          6.8578   55.2967   21.5182 C.ar      1 UNK         0.0000 
      4 C4          5.8477   55.1585   20.5565 C.ar      1 UNK         0.0000 
      5 C5          4.6635   54.4964   20.8771 C.ar      1 UNK         0.0000 
      6 C6          4.4666   53.9865   22.1658 C.ar      1 UNK         0.0000 
      7 C7          3.1410   53.3093   22.5102 C.3       1 UNK         0.0000 
      8 N8          2.3646   54.1113   23.4549 N.pl3     1 UNK         0.0000 
      9 C9          2.3860   53.7109   24.8000 C.ar      1 UNK         0.0000 
     10 C10         3.2670   54.3791   25.6540 C.ar      1 UNK         0.0000 
     11 C11         3.2954   54.0983   27.0167 C.ar      1 UNK         0.0000 
     12 C12         2.4226   53.1527   27.5656 C.ar      1 UNK         0.0000 
     13 C13         1.5227   52.4967   26.7127 C.ar      1 UNK         0.0000 
     14 C14         1.5048   52.7511   25.3329 C.ar      1 UNK         0.0000 
     15 S15         0.2887   51.8967   24.3102 S.o2      1 UNK         0.0000 
     16 O16         1.0031   51.3373   23.1581 O.2       1 UNK         0.0000 
     17 O17        -0.8066   52.8555   24.1139 O.2       1 UNK         0.0000 
     18 N18        -0.3034   50.5242   25.2798 N.pl3     1 UNK         0.0000 
     19 C19         0.5020   49.2723   25.3257 C.3       1 UNK         0.0000 
     20 C20        -0.1657   48.1662   24.4852 C.3       1 UNK         0.0000 
     21 C21        -1.6162   47.9662   24.9928 C.3       1 UNK         0.0000 
     22 C22        -2.4136   49.2785   24.7847 C.3       1 UNK         0.0000 
     23 C23        -1.7495   50.3982   25.6217 C.3       1 UNK         0.0000 
     24 C24        -2.3010   46.7955   24.2551 C.2       1 UNK         0.0000 
     25 O25        -3.1034   46.0934   24.9098 O.co2     1 UNK         0.0000 
     26 N26         2.4527   52.8515   29.0171 N.pl3     1 UNK         0.0000 
     27 O27         1.8324   51.8743   29.4236 O.co2     1 UNK         0.0000 
     28 O28         3.1034   53.5841   29.7584 O.co2     1 UNK         0.0000 
     29 O29         6.0039   55.5896   19.2550 O.3       1 UNK         0.0000 
     30 C30         7.0986   56.4900   19.0545 C.3       1 UNK         0.0000 
     31 C31         8.3467   56.0323   19.8498 C.3       1 UNK         0.0000 
     32 O32         8.0361   55.9593   21.2458 O.3       1 UNK         0.0000 
     33 H33         5.3856   53.6700   24.0949 H         1 UNK         0.0000 
     34 H34         7.4738   54.8562   23.5262 H         1 UNK         0.0000 
     35 H35         3.8922   54.3995   20.1259 H         1 UNK         0.0000 
     36 H36         3.3184   52.3012   22.8806 H         1 UNK         0.0000 
     37 H37         2.5449   53.1831   21.6036 H         1 UNK         0.0000 
     38 H38         2.6142   55.0787   23.3250 H         1 UNK         0.0000 
     39 H39         3.9295   55.1384   25.2659 H         1 UNK         0.0000 
     40 H40         3.9959   54.6300   27.6460 H         1 UNK         0.0000 
     41 H41         0.8350   51.7806   27.1388 H         1 UNK         0.0000 
     42 H42         0.6283   48.9706   26.3676 H         1 UNK         0.0000 
     43 H43         1.4943   49.4736   24.9251 H         1 UNK         0.0000 
     44 H44         0.4152   47.2496   24.5767 H         1 UNK         0.0000 
     45 H45        -0.1440   48.4727   23.4359 H         1 UNK         0.0000 
     46 H46        -1.5694   47.7004   26.0525 H         1 UNK         0.0000 
     47 H47        -2.4118   49.5783   23.7337 H         1 UNK         0.0000 
     48 H48        -3.4507   49.1624   25.1034 H         1 UNK         0.0000 
     49 H49        -1.8309   50.1974   26.6914 H         1 UNK         0.0000 
     50 H50        -2.2458   51.3514   25.4434 H         1 UNK         0.0000 
     51 H51         6.8015   57.4871   19.3842 H         1 UNK         0.0000 
     52 H52         7.3213   56.5486   17.9896 H         1 UNK         0.0000 
     53 H53         9.1801   56.7201   19.6949 H         1 UNK         0.0000 
     54 H54         8.6619   55.0477   19.4976 H         1 UNK         0.0000 
     55 O55        -2.0936   46.6497   23.0288 O.co2     1 UNK         0.0000 
@<TRIPOS>BOND
     1    1    6 ar   
     2    1    2 ar   
     3    1   33 1    
     4    2    3 ar   
     5    2   34 1    
     6    3   32 1    
     7    3    4 ar   
     8    4    5 ar   
     9    4   29 1    
    10    5    6 ar   
    11    5   35 1    
    12    6    7 1    
    13    7    8 1    
    14    7   36 1    
    15    7   37 1    
    16    8    9 1    
    17    8   38 1    
    18    9   14 ar   
    19    9   10 ar   
    20   10   11 ar   
    21   10   39 1    
    22   11   12 ar   
    23   11   40 1    
    24   12   13 ar   
    25   12   26 1    
    26   13   14 ar   
    27   13   41 1    
    28   14   15 1    
    29   15   16 2    
    30   15   17 2    
    31   15   18 1    
    32   18   23 1    
    33   18   19 1    
    34   19   20 1    
    35   19   42 1    
    36   19   43 1    
    37   20   21 1    
    38   20   44 1    
    39   20   45 1    
    40   21   22 1    
    41   21   24 1    
    42   21   46 1    
    43   22   23 1    
    44   22   47 1    
    45   22   48 1    
    46   23   49 1    
    47   23   50 1    
    48   24   25 2    
    49   24   55 1    
    50   26   27 2    
    51   26   28 1    
    52   29   30 1    
    53   30   31 1    
    54   30   51 1    
    55   30   52 1    
    56   31   32 1    
    57   31   53 1    
    58   31   54 1    
@<TRIPOS>SUBSTRUCTURE
     1 UNK         1 GROUP             0       ****    0 ROOT    
