@<TRIPOS>MOLECULE
ZINC20991821_5041
63   67    1
SMALL
USER_CHARGES


@<TRIPOS>ATOM
      1 C1          1.8976   53.7193   23.7155 C.3       1 UNK         0.0000 
      2 C2          3.3838   53.9777   23.4835 C.ar      1 UNK         0.0000 
      3 C3          3.8364   54.1095   22.1685 C.ar      1 UNK         0.0000 
      4 C4          5.1714   54.4070   21.9027 C.ar      1 UNK         0.0000 
      5 C5          6.0837   54.4967   22.9589 C.ar      1 UNK         0.0000 
      6 C6          5.6501   54.3431   24.2723 C.ar      1 UNK         0.0000 
      7 C7          4.2927   54.0991   24.5554 C.ar      1 UNK         0.0000 
      8 N8          3.7856   53.9428   25.8610 N.am      1 UNK         0.0000 
      9 C9          4.3915   54.0797   27.0603 C.2       1 UNK         0.0000 
     10 O10         5.5386   54.4954   27.2362 O.2       1 UNK         0.0000 
     11 C11         3.5632   53.6148   28.2333 C.ar      1 UNK         0.0000 
     12 C12         2.1738   53.8136   28.2736 C.ar      1 UNK         0.0000 
     13 C13         1.4309   53.3481   29.3571 C.ar      1 UNK         0.0000 
     14 C14         2.0711   52.6862   30.4032 C.ar      1 UNK         0.0000 
     15 C15         3.4515   52.4968   30.3805 C.ar      1 UNK         0.0000 
     16 C16         4.1942   52.9601   29.2973 C.ar      1 UNK         0.0000 
     17 N17         5.5509   54.5764   20.5697 N.am      1 UNK         0.0000 
     18 C18         6.3767   55.5272   20.0799 C.2       1 UNK         0.0000 
     19 O19         6.8615   56.4364   20.7595 O.2       1 UNK         0.0000 
     20 C20         6.7056   55.4507   18.5721 C.3       1 UNK         0.0000 
     21 C21         7.4738   54.1351   18.2839 C.3       1 UNK         0.0000 
     22 C22         7.6966   53.9541   16.7673 C.3       1 UNK         0.0000 
     23 N23         6.4043   53.9244   16.0539 N.pl3     1 UNK         0.0000 
     24 C24         5.7156   55.2149   16.2476 C.3       1 UNK         0.0000 
     25 C25         5.3950   55.4478   17.7401 C.3       1 UNK         0.0000 
     26 C26         6.0839   53.0204   15.0396 C.ar      1 UNK         0.0000 
     27 C27         4.7731   52.8917   14.5557 C.ar      1 UNK         0.0000 
     28 C28         4.4865   51.8792   13.6452 C.ar      1 UNK         0.0000 
     29 C29         5.5191   51.0216   13.2591 C.ar      1 UNK         0.0000 
     30 N30         6.7833   51.1807   13.7398 N.ar      1 UNK         0.0000 
     31 N31         7.0529   52.1520   14.6266 N.ar      1 UNK         0.0000 
     32 C32         5.2702   49.8570   12.3543 C.2       1 UNK         0.0000 
     33 C33         4.1751   49.6119   11.5238 C.2       1 UNK         0.0000 
     34 C34         4.2522   48.3986   10.8342 C.2       1 UNK         0.0000 
     35 C35         5.4092   47.6968   11.1283 C.2       1 UNK         0.0000 
     36 S36         6.4137   48.5380   12.2542 S.3       1 UNK         0.0000 
     37 H37         1.3295   53.7014   22.7833 H         1 UNK         0.0000 
     38 H38         1.7583   52.7630   24.2208 H         1 UNK         0.0000 
     39 H39         1.4689   54.4964   24.3506 H         1 UNK         0.0000 
     40 H40         3.1331   54.0287   21.3464 H         1 UNK         0.0000 
     41 H41         7.1307   54.6975   22.7700 H         1 UNK         0.0000 
     42 H42         6.3952   54.4191   25.0476 H         1 UNK         0.0000 
     43 H43         2.8310   53.6187   25.8910 H         1 UNK         0.0000 
     44 H44         1.6569   54.3278   27.4774 H         1 UNK         0.0000 
     45 H45         0.3612   53.4975   29.3879 H         1 UNK         0.0000 
     46 H46         1.4894   52.3225   31.2396 H         1 UNK         0.0000 
     47 H47         3.9461   51.9931   31.1994 H         1 UNK         0.0000 
     48 H48         5.2621   52.7943   29.2817 H         1 UNK         0.0000 
     49 H49         5.0759   53.9924   19.8986 H         1 UNK         0.0000 
     50 H50         7.3079   56.3266   18.3237 H         1 UNK         0.0000 
     51 H51         8.4649   54.1551   18.7404 H         1 UNK         0.0000 
     52 H52         6.9216   53.2472   18.5937 H         1 UNK         0.0000 
     53 H53         8.3172   54.7545   16.3612 H         1 UNK         0.0000 
     54 H54         8.2500   53.0270   16.6229 H         1 UNK         0.0000 
     55 H55         6.3583   56.0120   15.8671 H         1 UNK         0.0000 
     56 H56         4.7925   55.2855   15.6746 H         1 UNK         0.0000 
     57 H57         4.7160   54.6379   18.0098 H         1 UNK         0.0000 
     58 H58         4.8896   56.4118   17.8047 H         1 UNK         0.0000 
     59 H59         3.9722   53.5192   14.9064 H         1 UNK         0.0000 
     60 H60         3.4768   51.7402   13.2921 H         1 UNK         0.0000 
     61 H61         3.3382   50.2882   11.4258 H         1 UNK         0.0000 
     62 H62         3.4866   48.0398   10.1622 H         1 UNK         0.0000 
     63 H63         5.6966   46.7139   10.7814 H         1 UNK         0.0000 
@<TRIPOS>BOND
     1    1    2 1    
     2    1   37 1    
     3    1   38 1    
     4    1   39 1    
     5    2    7 ar   
     6    2    3 ar   
     7    3    4 ar   
     8    3   40 1    
     9    4    5 ar   
    10    4   17 1    
    11    5    6 ar   
    12    5   41 1    
    13    6    7 ar   
    14    6   42 1    
    15    7    8 1    
    16    8    9 am   BACKBONE|DICT|INTERRES
    17    8   43 1    
    18    9   10 2    
    19    9   11 1    
    20   11   16 ar   
    21   11   12 ar   
    22   12   13 ar   
    23   12   44 1    
    24   13   14 ar   
    25   13   45 1    
    26   14   15 ar   
    27   14   46 1    
    28   15   16 ar   
    29   15   47 1    
    30   16   48 1    
    31   17   18 am   BACKBONE|DICT|INTERRES
    32   17   49 1    
    33   18   19 2    
    34   18   20 1    
    35   20   25 1    
    36   20   21 1    
    37   20   50 1    
    38   21   22 1    
    39   21   51 1    
    40   21   52 1    
    41   22   23 1    
    42   22   53 1    
    43   22   54 1    
    44   23   24 1    
    45   23   26 1    
    46   24   25 1    
    47   24   55 1    
    48   24   56 1    
    49   25   57 1    
    50   25   58 1    
    51   26   31 ar   
    52   26   27 ar   
    53   27   28 ar   
    54   27   59 1    
    55   28   29 ar   
    56   28   60 1    
    57   29   30 ar   
    58   29   32 1    
    59   30   31 ar   
    60   32   36 1    
    61   32   33 2    
    62   33   34 1    
    63   33   61 1    
    64   34   35 2    
    65   34   62 1    
    66   35   36 1    
    67   35   63 1    
@<TRIPOS>SUBSTRUCTURE
     1 UNK         1 GROUP             0       ****    0 ROOT    
