@<TRIPOS>MOLECULE
ZINC27102727_1494
48   51    1
SMALL
USER_CHARGES


@<TRIPOS>ATOM
      1 C1          5.0982   58.4974   17.1095 C.3       1 UNK         0.0000 
      2 N2          4.4842   57.2314   16.6661 N.pl3     1 UNK         0.0000 
      3 S3          5.4617   55.7867   16.4442 S.o2      1 UNK         0.0000 
      4 O4          4.7547   54.8902   15.5240 O.2       1 UNK         0.0000 
      5 O5          6.8562   56.1877   16.2310 O.2       1 UNK         0.0000 
      6 C6          5.3693   55.0317   18.0854 C.ar      1 UNK         0.0000 
      7 C7          5.8376   55.5701   19.2821 C.ar      1 UNK         0.0000 
      8 C8          5.5450   54.6960   20.3304 C.ar      1 UNK         0.0000 
      9 N9          4.9558   53.5699   19.7607 N.pl3     1 UNK         0.0000 
     10 C10         4.8543   53.7867   18.4055 C.ar      1 UNK         0.0000 
     11 C11         4.5339   52.3376   20.4221 C.3       1 UNK         0.0000 
     12 C12         5.9099   54.8967   21.7157 C.2       1 UNK         0.0000 
     13 O13         6.8412   55.6487   22.0064 O.2       1 UNK         0.0000 
     14 N14         5.1201   54.2653   22.6087 N.am      1 UNK         0.0000 
     15 C15         5.1403   54.3518   24.0112 C.ar      1 UNK         0.0000 
     16 C16         6.2954   54.6517   24.7725 C.ar      1 UNK         0.0000 
     17 C17         6.2311   54.7176   26.1731 C.ar      1 UNK         0.0000 
     18 C18         5.0015   54.4739   26.7749 C.ar      1 UNK         0.0000 
     19 C19         3.8931   54.1690   26.0473 C.ar      1 UNK         0.0000 
     20 C20         3.9211   54.0968   24.6601 C.ar      1 UNK         0.0000 
     21 O21         2.8439   53.9724   26.8851 O.3       1 UNK         0.0000 
     22 C22         3.3073   54.1779   28.2017 C.3       1 UNK         0.0000 
     23 O23         4.6772   54.4963   28.0941 O.3       1 UNK         0.0000 
     24 C24         2.5315   55.2968   28.8944 C.3       1 UNK         0.0000 
     25 C25         1.2859   54.5762   29.4038 C.3       1 UNK         0.0000 
     26 C26         1.7559   53.1829   29.7990 C.3       1 UNK         0.0000 
     27 C27         3.1001   52.9467   29.0934 C.3       1 UNK         0.0000 
     28 H28         4.3142   59.2361   17.2818 H         1 UNK         0.0000 
     29 H29         5.7534   58.8882   16.3301 H         1 UNK         0.0000 
     30 H30         5.6595   58.3525   18.0315 H         1 UNK         0.0000 
     31 H31         3.6089   57.2812   16.1374 H         1 UNK         0.0000 
     32 H32         6.3349   56.5242   19.3793 H         1 UNK         0.0000 
     33 H33         4.4311   53.0223   17.7676 H         1 UNK         0.0000 
     34 H34         3.6247   52.5247   20.9922 H         1 UNK         0.0000 
     35 H35         4.3044   51.5732   19.6819 H         1 UNK         0.0000 
     36 H36         5.3295   51.9710   21.0705 H         1 UNK         0.0000 
     37 H37         4.3469   53.7497   22.2207 H         1 UNK         0.0000 
     38 H38         7.2457   54.8254   24.2892 H         1 UNK         0.0000 
     39 H39         7.1049   54.9467   26.7645 H         1 UNK         0.0000 
     40 H40         3.0260   53.8584   24.1048 H         1 UNK         0.0000 
     41 H41         3.1448   55.7314   29.6815 H         1 UNK         0.0000 
     42 H42         2.3046   56.0962   28.1884 H         1 UNK         0.0000 
     43 H43         0.8157   55.1066   30.2321 H         1 UNK         0.0000 
     44 H44         0.5473   54.5053   28.6039 H         1 UNK         0.0000 
     45 H45         1.8771   53.1056   30.8804 H         1 UNK         0.0000 
     46 H46         1.0210   52.4276   29.5140 H         1 UNK         0.0000 
     47 H47         3.1074   52.0429   28.4835 H         1 UNK         0.0000 
     48 H48         3.9249   52.8712   29.8030 H         1 UNK         0.0000 
@<TRIPOS>BOND
     1    1    2 1    
     2    1   28 1    
     3    1   29 1    
     4    1   30 1    
     5    2    3 1    
     6    2   31 1    
     7    3    4 2    
     8    3    5 2    
     9    3    6 1    
    10    6   10 ar   
    11    6    7 ar   
    12    7    8 ar   
    13    7   32 1    
    14    8    9 ar   
    15    8   12 1    
    16    9   10 ar   
    17    9   11 1    
    18   10   33 1    
    19   11   34 1    
    20   11   35 1    
    21   11   36 1    
    22   12   13 2    
    23   12   14 am   BACKBONE|DICT|INTERRES
    24   14   15 1    
    25   14   37 1    
    26   15   20 ar   
    27   15   16 ar   
    28   16   17 ar   
    29   16   38 1    
    30   17   18 ar   
    31   17   39 1    
    32   18   23 1    
    33   18   19 ar   
    34   19   20 ar   
    35   19   21 1    
    36   20   40 1    
    37   21   22 1    
    38   22   27 1    
    39   22   23 1    
    40   22   24 1    
    41   24   25 1    
    42   24   41 1    
    43   24   42 1    
    44   25   26 1    
    45   25   43 1    
    46   25   44 1    
    47   26   27 1    
    48   26   45 1    
    49   26   46 1    
    50   27   47 1    
    51   27   48 1    
@<TRIPOS>SUBSTRUCTURE
     1 UNK         1 GROUP             0       ****    0 ROOT    
