ZINC31399412_3732
                    3D
 Schrodinger Suite 2024-2.
 64 67  0  0  1  0            999 V2000
    8.5983   51.1413   13.7387 C   0  0  0  0  0  0
    7.3118   51.7384   14.2923 C   0  0  0  0  0  0
    7.3899   52.8144   15.1829 C   0  0  0  0  0  0
    6.2329   53.3793   15.7163 C   0  0  0  0  0  0
    4.9797   52.8667   15.3732 C   0  0  0  0  0  0
    4.8960   51.7904   14.4826 C   0  0  0  0  0  0
    6.0520   51.2251   13.9342 C   0  0  0  0  0  0
    5.9229   50.0487   12.9769 C   0  0  0  0  0  0
    3.4883   53.5653   16.0897 S   0  0  0  0  0  0
    2.3499   53.0111   15.3464 O   0  0  0  0  0  0
    3.6645   55.0172   16.1963 O   0  0  0  0  0  0
    3.3584   52.8914   17.7305 N   0  0  0  0  0  0
    4.0251   53.3369   18.8842 C   0  0  0  0  0  0
    3.7578   52.6620   20.0772 C   0  0  0  0  0  0
    4.3822   53.0379   21.2659 C   0  0  0  0  0  0
    5.3007   54.0972   21.2750 C   0  0  0  0  0  0
    5.5602   54.7745   20.0780 C   0  0  0  0  0  0
    4.9237   54.4076   18.8973 C   0  0  0  0  0  0
    6.0502   54.4979   22.5255 C   0  0  0  0  0  0
    7.1042   55.1283   22.4321 O   0  0  0  0  0  0
    5.5032   54.1696   23.7109 N   0  0  0  0  0  0
    6.0630   54.4117   25.0528 C   0  0  1  0  0  0
    6.8870   53.7009   25.1548 H   0  0  0  0  0  0
    6.6208   55.8367   25.2725 C   0  0  0  0  0  0
    5.0651   54.0956   26.1706 C   0  0  0  0  0  0
    5.5543   53.6967   27.4186 C   0  0  0  0  0  0
    4.6780   53.3611   28.4458 C   0  0  0  0  0  0
    3.2932   53.4108   28.2313 C   0  0  0  0  0  0
    2.8036   53.8220   26.9900 C   0  0  0  0  0  0
    3.6796   54.1567   25.9645 C   0  0  0  0  0  0
    2.3179   53.0868   29.1919 N   0  0  0  0  0  0
    2.4442   52.4967   30.4035 C   0  0  0  0  0  0
    3.5051   52.0932   30.8761 O   0  0  0  0  0  0
    1.1662   52.2930   31.2443 C   0  0  0  0  0  0
    0.1911   53.4738   31.2530 C   0  0  0  0  0  0
   -0.1657   52.2421   30.4863 C   0  0  0  0  0  0
    8.6364   51.2614   12.6570 H   0  0  0  0  0  0
    9.4865   51.6074   14.1675 H   0  0  0  0  0  0
    8.6486   50.0734   13.9550 H   0  0  0  0  0  0
    8.3525   53.2131   15.4693 H   0  0  0  0  0  0
    6.3187   54.2140   16.3943 H   0  0  0  0  0  0
    3.9283   51.3814   14.2311 H   0  0  0  0  0  0
    6.4232   49.1680   13.3842 H   0  0  0  0  0  0
    4.8827   49.7861   12.7778 H   0  0  0  0  0  0
    6.4001   50.2841   12.0244 H   0  0  0  0  0  0
    2.8949   51.9985   17.7908 H   0  0  0  0  0  0
    3.0629   51.8340   20.0859 H   0  0  0  0  0  0
    4.1525   52.4804   22.1625 H   0  0  0  0  0  0
    6.2649   55.5934   20.0485 H   0  0  0  0  0  0
    5.1519   54.9704   18.0118 H   0  0  0  0  0  0
    4.7077   53.5550   23.6846 H   0  0  0  0  0  0
    6.9249   55.9871   26.3064 H   0  0  0  0  0  0
    7.4943   56.0389   24.6552 H   0  0  0  0  0  0
    5.8693   56.5877   25.0357 H   0  0  0  0  0  0
    6.6176   53.6381   27.5943 H   0  0  0  0  0  0
    5.1007   53.0577   29.3895 H   0  0  0  0  0  0
    1.7396   53.8733   26.8076 H   0  0  0  0  0  0
    3.2730   54.4667   25.0127 H   0  0  0  0  0  0
    1.3719   53.2992   28.9182 H   0  0  0  0  0  0
    1.2856   51.6974   32.1506 H   0  0  0  0  0  0
    0.4345   54.3912   30.7126 H   0  0  0  0  0  0
   -0.3319   53.6875   32.1864 H   0  0  0  0  0  0
   -0.9381   51.5768   30.8743 H   0  0  0  0  0  0
   -0.1869   52.2667   29.3961 H   0  0  0  0  0  0
  1  2  1  0  0  0
  1 37  1  0  0  0
  1 38  1  0  0  0
  1 39  1  0  0  0
  2  7  2  0  0  0
  2  3  1  0  0  0
  3  4  2  0  0  0
  3 40  1  0  0  0
  4  5  1  0  0  0
  4 41  1  0  0  0
  5  6  2  0  0  0
  5  9  1  0  0  0
  6  7  1  0  0  0
  6 42  1  0  0  0
  7  8  1  0  0  0
  8 43  1  0  0  0
  8 44  1  0  0  0
  8 45  1  0  0  0
  9 10  2  0  0  0
  9 11  2  0  0  0
  9 12  1  0  0  0
 12 13  1  0  0  0
 12 46  1  0  0  0
 13 18  2  0  0  0
 13 14  1  0  0  0
 14 15  2  0  0  0
 14 47  1  0  0  0
 15 16  1  0  0  0
 15 48  1  0  0  0
 16 17  2  0  0  0
 16 19  1  0  0  0
 17 18  1  0  0  0
 17 49  1  0  0  0
 18 50  1  0  0  0
 19 20  2  0  0  0
 19 21  1  0  0  0
 21 22  1  0  0  0
 21 51  1  0  0  0
 22 23  1  0  0  0
 22 24  1  0  0  0
 22 25  1  0  0  0
 24 52  1  0  0  0
 24 53  1  0  0  0
 24 54  1  0  0  0
 25 30  2  0  0  0
 25 26  1  0  0  0
 26 27  2  0  0  0
 26 55  1  0  0  0
 27 28  1  0  0  0
 27 56  1  0  0  0
 28 29  2  0  0  0
 28 31  1  0  0  0
 29 30  1  0  0  0
 29 57  1  0  0  0
 30 58  1  0  0  0
 31 32  1  0  0  0
 31 59  1  0  0  0
 32 33  2  0  0  0
 32 34  1  0  0  0
 34 36  1  0  0  0
 34 35  1  0  0  0
 34 60  1  0  0  0
 35 36  1  0  0  0
 35 61  1  0  0  0
 35 62  1  0  0  0
 36 63  1  0  0  0
 36 64  1  0  0  0
M  END
> <i_i_glide_confnum>
198

> <i_i_glide_lignum>
3733

> <i_i_glide_posenum>
34

> <i_i_glide_rotatable_bonds>
10

> <i_m_Source_File_Index>
1787

> <b_m_subgroup_collapsed>
0

> <r_i_docking_score>
-5.06601

> <r_i_glide_ecoul>
-1.5769

> <r_i_glide_eff_state_penalty>
0

> <r_i_glide_einternal>
7.22739

> <r_i_glide_emodel>
-65.2033

> <r_i_glide_energy>
-50.9686

> <r_i_glide_erotb>
0.842406

> <r_i_glide_esite>
-0.0809687

> <r_i_glide_evdw>
-49.3917

> <r_i_glide_gscore>
-5.06601

> <r_i_glide_hbond>
-0.302062

> <r_i_glide_ligand_efficiency>
-0.144743

> <r_i_glide_ligand_efficiency_ln>
-1.1121

> <r_i_glide_ligand_efficiency_sa>
-0.473464

> <r_i_glide_lipo>
-2.45356

> <r_i_glide_metal>
0

> <r_i_glide_rewards>
-0.365702

> <s_i_glide_gridfile>
wee1_glide-grid

> <s_m_Source_File>
wee1_decoys_glide_SP.sdf

> <s_m_Source_Path>
/Users/zhangxujun/Desktop

> <s_m_entry_id>
2062

> <s_m_entry_name>
wee1_decoys_glide_SP.1787

> <s_m_subgroup_title>
wee1_decoys_glide_SP

> <s_m_subgroupid>
wee1_decoys_glide_SP


$$$$
