ZINC34920468_979
                    3D
 Schrodinger Suite 2024-2.
 50 54  0  0  1  0            999 V2000
    1.4250   48.3868   20.5999 C   0  0  0  0  0  0
    0.2884   48.6748   21.4150 O   0  0  0  0  0  0
    0.4813   49.6663   22.3488 C   0  0  0  0  0  0
    0.5055   49.3352   23.7020 C   0  0  0  0  0  0
    0.7053   50.3237   24.6652 C   0  0  0  0  0  0
    0.9227   51.6621   24.2974 C   0  0  0  0  0  0
    0.8365   51.9843   22.9334 C   0  0  0  0  0  0
    0.6211   50.9995   21.9543 C   0  0  0  0  0  0
    0.5111   51.2507   20.6010 O   0  0  0  0  0  0
    0.9311   52.4980   20.0912 C   0  0  0  0  0  0
    1.0508   52.7910   25.3586 C   0  0  1  0  0  0
    0.6267   53.6778   24.8918 H   0  0  0  0  0  0
    0.3679   52.5131   26.6856 C   0  0  0  0  0  0
    1.2757   52.7661   27.6416 C   0  0  0  0  0  0
    2.5458   53.2269   27.1110 C   0  0  0  0  0  0
    3.5416   53.5575   27.7656 O   0  0  0  0  0  0
    2.4123   53.2339   25.7504 N   0  0  0  0  0  0
    3.3881   53.6965   24.8346 C   0  0  0  0  0  0
    3.1630   53.8128   23.5524 N   0  0  0  0  0  0
    4.2607   54.2225   22.8617 C   0  0  0  0  0  0
    4.3023   54.4408   21.4783 C   0  0  0  0  0  0
    5.4885   54.8949   20.9042 C   0  0  0  0  0  0
    6.6228   55.1312   21.6768 C   0  0  0  0  0  0
    6.6188   54.9057   23.0553 C   0  0  0  0  0  0
    5.4200   54.4684   23.6420 C   0  0  0  0  0  0
    5.0325   54.1606   25.3227 S   0  0  0  0  0  0
    8.0512   55.6967   20.8962 Cl  0  0  0  0  0  0
    1.1627   52.6997   28.9255 O   0  5  0  0  0  0
   -1.0412   52.0922   26.8833 C   0  0  0  0  0  0
   -1.4022   51.6818   27.9854 O   0  0  0  0  0  0
   -2.0317   52.1827   25.7965 C   0  0  0  0  0  0
   -2.0235   52.8799   24.5846 C   0  0  0  0  0  0
   -3.1810   52.7178   23.8331 C   0  0  0  0  0  0
   -4.1206   51.9176   24.4571 C   0  0  0  0  0  0
   -3.5609   51.3531   25.9945 S   0  0  0  0  0  0
    1.2151   47.5042   19.9942 H   0  0  0  0  0  0
    2.3047   48.1641   21.2086 H   0  0  0  0  0  0
    1.6755   49.1987   19.9157 H   0  0  0  0  0  0
    0.3719   48.3082   24.0111 H   0  0  0  0  0  0
    0.7057   50.0360   25.7063 H   0  0  0  0  0  0
    0.9156   53.0171   22.6390 H   0  0  0  0  0  0
    0.8468   52.4979   19.0040 H   0  0  0  0  0  0
    0.3047   53.2962   20.4786 H   0  0  0  0  0  0
    1.9720   52.6896   20.3460 H   0  0  0  0  0  0
    3.4329   54.2756   20.8638 H   0  0  0  0  0  0
    5.5244   55.0735   19.8388 H   0  0  0  0  0  0
    7.5043   55.0905   23.6463 H   0  0  0  0  0  0
   -1.2274   53.5087   24.2265 H   0  0  0  0  0  0
   -3.3131   53.1883   22.8738 H   0  0  0  0  0  0
   -5.1015   51.6394   24.0964 H   0  0  0  0  0  0
  1  2  1  0  0  0
  1 36  1  0  0  0
  1 37  1  0  0  0
  1 38  1  0  0  0
  2  3  1  0  0  0
  3  8  2  0  0  0
  3  4  1  0  0  0
  4  5  2  0  0  0
  4 39  1  0  0  0
  5  6  1  0  0  0
  5 40  1  0  0  0
  6  7  2  0  0  0
  6 11  1  0  0  0
  7  8  1  0  0  0
  7 41  1  0  0  0
  8  9  1  0  0  0
  9 10  1  0  0  0
 10 42  1  0  0  0
 10 43  1  0  0  0
 10 44  1  0  0  0
 11 12  1  0  0  0
 11 17  1  0  0  0
 11 13  1  0  0  0
 13 14  2  0  0  0
 13 29  1  0  0  0
 14 15  1  0  0  0
 14 28  1  0  0  0
 15 16  2  0  0  0
 15 17  1  0  0  0
 17 18  1  0  0  0
 18 26  1  0  0  0
 18 19  2  0  0  0
 19 20  1  0  0  0
 20 25  2  0  0  0
 20 21  1  0  0  0
 21 22  2  0  0  0
 21 45  1  0  0  0
 22 23  1  0  0  0
 22 46  1  0  0  0
 23 24  2  0  0  0
 23 27  1  0  0  0
 24 25  1  0  0  0
 24 47  1  0  0  0
 25 26  1  0  0  0
 29 30  2  0  0  0
 29 31  1  0  0  0
 31 35  1  0  0  0
 31 32  2  0  0  0
 32 33  1  0  0  0
 32 48  1  0  0  0
 33 34  2  0  0  0
 33 49  1  0  0  0
 34 35  1  0  0  0
 34 50  1  0  0  0
M  CHG  1  28  -1
M  END
> <i_i_glide_confnum>
8

> <i_i_glide_lignum>
980

> <i_i_glide_posenum>
73

> <i_i_glide_rotatable_bonds>
6

> <i_m_Source_File_Index>
657

> <b_m_subgroup_collapsed>
0

> <r_i_docking_score>
-5.10739

> <r_i_glide_ecoul>
-1.92635

> <r_i_glide_eff_state_penalty>
0

> <r_i_glide_einternal>
14.207

> <r_i_glide_emodel>
-49.3581

> <r_i_glide_energy>
-42.463

> <r_i_glide_erotb>
0.312779

> <r_i_glide_esite>
-0.0265886

> <r_i_glide_evdw>
-40.5367

> <r_i_glide_gscore>
-5.10739

> <r_i_glide_hbond>
0

> <r_i_glide_ligand_efficiency>
-0.150217

> <r_i_glide_ligand_efficiency_ln>
-1.12836

> <r_i_glide_ligand_efficiency_sa>
-0.486646

> <r_i_glide_lipo>
-2.53067

> <r_i_glide_metal>
0

> <r_i_glide_rewards>
-0.547122

> <s_i_glide_gridfile>
wee1_glide-grid

> <s_m_Source_File>
wee1_decoys_glide_SP.sdf

> <s_m_Source_Path>
/Users/zhangxujun/Desktop

> <s_m_entry_id>
932

> <s_m_entry_name>
wee1_decoys_glide_SP.657

> <s_m_subgroup_title>
wee1_decoys_glide_SP

> <s_m_subgroupid>
wee1_decoys_glide_SP


$$$$
