@<TRIPOS>MOLECULE
ZINC59331437_1060
59   63    1
SMALL
USER_CHARGES


@<TRIPOS>ATOM
      1 C1         -0.1074   51.7211   28.7103 C.ar      1 UNK         0.0000 
      2 C2         -0.0678   52.0971   30.0521 C.ar      1 UNK         0.0000 
      3 C3          0.9551   52.9295   30.5064 C.ar      1 UNK         0.0000 
      4 C4          1.9318   53.3945   29.6217 C.ar      1 UNK         0.0000 
      5 C5          1.8925   53.0302   28.2696 C.ar      1 UNK         0.0000 
      6 C6          0.8629   52.1904   27.8231 C.ar      1 UNK         0.0000 
      7 C7          2.9235   53.5121   27.3004 C.2       1 UNK         0.0000 
      8 N8          2.7149   53.8007   26.0312 N.2       1 UNK         0.0000 
      9 C9          3.9611   54.0968   25.5584 C.ar      1 UNK         0.0000 
     10 C10         4.3891   54.4487   24.2742 C.ar      1 UNK         0.0000 
     11 C11         5.7702   54.5840   24.0393 C.ar      1 UNK         0.0000 
     12 C12         6.6820   54.4791   25.0997 C.ar      1 UNK         0.0000 
     13 C13         6.2725   54.1806   26.4070 C.ar      1 UNK         0.0000 
     14 C14         4.8997   53.9761   26.5920 C.ar      1 UNK         0.0000 
     15 O15         4.2255   53.6121   27.7190 O.3       1 UNK         0.0000 
     16 N16         6.3056   54.8969   22.7687 N.pl3     1 UNK         0.0000 
     17 C17         5.9329   54.5760   21.4877 C.2       1 UNK         0.0000 
     18 S18         4.7042   53.4750   21.1144 S.2       1 UNK         0.0000 
     19 N19         6.6871   55.2761   20.5678 N.am      1 UNK         0.0000 
     20 C20         6.8432   55.1089   19.2253 C.2       1 UNK         0.0000 
     21 O21         6.5897   54.0769   18.6028 O.2       1 UNK         0.0000 
     22 C22         7.3571   56.2974   18.4584 C.ar      1 UNK         0.0000 
     23 C23         6.6719   56.7055   17.3135 C.ar      1 UNK         0.0000 
     24 C24         7.1434   57.7663   16.5497 C.ar      1 UNK         0.0000 
     25 C25         8.3191   58.4497   16.8865 C.ar      1 UNK         0.0000 
     26 C26         8.9873   58.0805   18.0780 C.ar      1 UNK         0.0000 
     27 C27         8.5200   56.9847   18.8290 C.ar      1 UNK         0.0000 
     28 N28        10.1041   58.8763   18.6292 N.pl3     1 UNK         0.0000 
     29 O29        11.0704   58.2844   19.0970 O.co2     1 UNK         0.0000 
     30 O30         9.9749   60.0967   18.6884 O.co2     1 UNK         0.0000 
     31 N31         8.7789   59.3956   15.9659 N.pl3     1 UNK         0.0000 
     32 C32        10.1942   59.7505   15.7493 C.3       1 UNK         0.0000 
     33 C33        10.4829   60.0851   14.2709 C.3       1 UNK         0.0000 
     34 C34         9.5781   61.2096   13.7476 C.3       1 UNK         0.0000 
     35 C35         8.1134   60.8765   14.0551 C.3       1 UNK         0.0000 
     36 C36         7.9040   60.5048   15.5385 C.3       1 UNK         0.0000 
     37 F37         2.9087   54.2094   30.0816 F         1 UNK         0.0000 
     38 H38        -0.8850   51.0544   28.3618 H         1 UNK         0.0000 
     39 H39        -0.8172   51.7308   30.7433 H         1 UNK         0.0000 
     40 H40         0.9855   53.2140   31.5489 H         1 UNK         0.0000 
     41 H41         0.8168   51.8859   26.7864 H         1 UNK         0.0000 
     42 H42         3.6563   54.5750   23.4916 H         1 UNK         0.0000 
     43 H43         7.7359   54.6037   24.8923 H         1 UNK         0.0000 
     44 H44         6.9693   54.0704   27.2261 H         1 UNK         0.0000 
     45 H45         7.1881   55.3819   22.8374 H         1 UNK         0.0000 
     46 H46         7.0387   56.1554   20.9020 H         1 UNK         0.0000 
     47 H47         5.7741   56.1924   16.9920 H         1 UNK         0.0000 
     48 H48         6.6093   58.0210   15.6457 H         1 UNK         0.0000 
     49 H49         9.0646   56.6870   19.7164 H         1 UNK         0.0000 
     50 H50        10.8278   58.9065   16.0306 H         1 UNK         0.0000 
     51 H51        10.4708   60.5969   16.3793 H         1 UNK         0.0000 
     52 H52        10.3806   59.1829   13.6630 H         1 UNK         0.0000 
     53 H53        11.5261   60.3856   14.1669 H         1 UNK         0.0000 
     54 H54         9.8473   62.1544   14.2244 H         1 UNK         0.0000 
     55 H55         9.7202   61.3489   12.6750 H         1 UNK         0.0000 
     56 H56         7.4846   61.7352   13.8119 H         1 UNK         0.0000 
     57 H57         7.7518   60.0625   13.4225 H         1 UNK         0.0000 
     58 H58         6.8520   60.2512   15.6792 H         1 UNK         0.0000 
     59 H59         8.0854   61.3679   16.1817 H         1 UNK         0.0000 
@<TRIPOS>BOND
     1    1    6 ar   
     2    1    2 ar   
     3    1   38 1    
     4    2    3 ar   
     5    2   39 1    
     6    3    4 ar   
     7    3   40 1    
     8    4    5 ar   
     9    4   37 1    
    10    5    6 ar   
    11    5    7 1    
    12    6   41 1    
    13    7   15 1    
    14    7    8 2    
    15    8    9 1    
    16    9   14 ar   
    17    9   10 ar   
    18   10   11 ar   
    19   10   42 1    
    20   11   12 ar   
    21   11   16 1    
    22   12   13 ar   
    23   12   43 1    
    24   13   14 ar   
    25   13   44 1    
    26   14   15 1    
    27   16   17 1    
    28   16   45 1    
    29   17   18 2    
    30   17   19 am   BACKBONE|DICT|INTERRES
    31   19   20 am   BACKBONE|DICT|INTERRES
    32   19   46 1    
    33   20   21 2    
    34   20   22 1    
    35   22   27 ar   
    36   22   23 ar   
    37   23   24 ar   
    38   23   47 1    
    39   24   25 ar   
    40   24   48 1    
    41   25   26 ar   
    42   25   31 1    
    43   26   27 ar   
    44   26   28 1    
    45   27   49 1    
    46   28   29 2    
    47   28   30 1    
    48   31   36 1    
    49   31   32 1    
    50   32   33 1    
    51   32   50 1    
    52   32   51 1    
    53   33   34 1    
    54   33   52 1    
    55   33   53 1    
    56   34   35 1    
    57   34   54 1    
    58   34   55 1    
    59   35   36 1    
    60   35   56 1    
    61   35   57 1    
    62   36   58 1    
    63   36   59 1    
@<TRIPOS>SUBSTRUCTURE
     1 UNK         1 GROUP             0       ****    0 ROOT    
