ZINC06245303_928
                    3D
 Schrodinger Suite 2024-2.
 59 64  0  0  1  0            999 V2000
   -0.0976   48.5654   18.0009 C   0  0  0  0  0  0
    0.7234   49.3920   18.9736 C   0  0  0  0  0  0
    1.5238   48.7497   19.9219 C   0  0  0  0  0  0
    2.3036   49.4995   20.7973 C   0  0  0  0  0  0
    2.2794   50.8924   20.7200 C   0  0  0  0  0  0
    1.4856   51.5407   19.7688 C   0  0  0  0  0  0
    0.7051   50.7872   18.8968 C   0  0  0  0  0  0
    3.1236   51.6280   21.5663 N   0  0  0  0  0  0
    2.8414   52.6099   22.4834 C   0  0  0  0  0  0
    1.2571   52.8826   22.9851 S   0  0  0  0  0  0
    3.9411   53.3424   22.9250 N   0  0  0  0  0  0
    5.2824   53.1833   22.3111 C   0  0  0  0  0  0
    5.4941   54.0967   21.1082 C   0  0  0  0  0  0
    5.1042   53.6714   19.8207 C   0  0  0  0  0  0
    5.2609   54.5090   18.7091 C   0  0  0  0  0  0
    5.8338   55.7575   18.9186 C   0  0  0  0  0  0
    6.2523   56.1579   20.1564 C   0  0  0  0  0  0
    6.1154   55.3457   21.2767 C   0  0  0  0  0  0
    6.7046   57.4360   20.0815 O   0  0  0  0  0  0
    6.7443   57.7527   18.7132 C   0  0  0  0  0  0
    6.0263   56.7630   18.0269 O   0  0  0  0  0  0
    3.8411   54.4746   23.8873 C   0  0  0  0  0  0
    3.8402   54.0968   25.3745 C   0  0  0  0  0  0
    2.6764   54.0016   26.0592 C   0  0  0  0  0  0
    2.6222   53.5978   27.4648 C   0  0  0  0  0  0
    1.4100   53.4603   28.1525 C   0  0  0  0  0  0
    1.4766   52.9915   29.4575 C   0  0  0  0  0  0
    2.6636   52.6516   30.0476 C   0  0  0  0  0  0
    3.8844   52.7915   29.3898 C   0  0  0  0  0  0
    3.8556   53.2959   28.0804 C   0  0  0  0  0  0
    5.0379   53.4941   27.3436 N   0  0  0  0  0  0
    5.9335   53.3413   27.7750 H   0  0  0  0  0  0
    5.1312   53.8949   26.0496 C   0  0  0  0  0  0
    6.2354   54.0967   25.5510 O   0  0  0  0  0  0
    2.4092   52.1552   31.2874 O   0  0  0  0  0  0
    1.0638   52.4804   31.5437 C   0  0  0  0  0  0
    0.4526   52.7421   30.3123 O   0  0  0  0  0  0
    0.4809   47.7091   17.6542 H   0  0  0  0  0  0
   -1.0026   48.1925   18.4821 H   0  0  0  0  0  0
   -0.3733   49.1404   17.1155 H   0  0  0  0  0  0
    1.5504   47.6711   19.9729 H   0  0  0  0  0  0
    2.9242   48.9971   21.5263 H   0  0  0  0  0  0
    1.4876   52.6207   19.6936 H   0  0  0  0  0  0
    0.0997   51.2893   18.1552 H   0  0  0  0  0  0
    4.0278   51.1949   21.6840 H   0  0  0  0  0  0
    5.4890   52.1534   22.0169 H   0  0  0  0  0  0
    6.0478   53.3972   23.0593 H   0  0  0  0  0  0
    4.6601   52.6975   19.6714 H   0  0  0  0  0  0
    4.9337   54.1909   17.7309 H   0  0  0  0  0  0
    6.4401   55.6805   22.2513 H   0  0  0  0  0  0
    6.3053   58.7368   18.5300 H   0  0  0  0  0  0
    7.7828   57.7383   18.3730 H   0  0  0  0  0  0
    4.6617   55.1738   23.7326 H   0  0  0  0  0  0
    2.9613   55.0796   23.6646 H   0  0  0  0  0  0
    1.7444   54.1664   25.5416 H   0  0  0  0  0  0
    0.4649   53.6917   27.6847 H   0  0  0  0  0  0
    4.8108   52.5014   29.8568 H   0  0  0  0  0  0
    0.5310   51.6965   32.0809 H   0  0  0  0  0  0
    1.0097   53.3748   32.1643 H   0  0  0  0  0  0
  1  2  1  0  0  0
  1 38  1  0  0  0
  1 39  1  0  0  0
  1 40  1  0  0  0
  2  7  2  0  0  0
  2  3  1  0  0  0
  3  4  2  0  0  0
  3 41  1  0  0  0
  4  5  1  0  0  0
  4 42  1  0  0  0
  5  6  2  0  0  0
  5  8  1  0  0  0
  6  7  1  0  0  0
  6 43  1  0  0  0
  7 44  1  0  0  0
  8  9  1  0  0  0
  8 45  1  0  0  0
  9 10  2  0  0  0
  9 11  1  0  0  0
 11 12  1  0  0  0
 11 22  1  0  0  0
 12 13  1  0  0  0
 12 46  1  0  0  0
 12 47  1  0  0  0
 13 18  2  0  0  0
 13 14  1  0  0  0
 14 15  2  0  0  0
 14 48  1  0  0  0
 15 16  1  0  0  0
 15 49  1  0  0  0
 16 21  1  0  0  0
 16 17  2  0  0  0
 17 18  1  0  0  0
 17 19  1  0  0  0
 18 50  1  0  0  0
 19 20  1  0  0  0
 20 21  1  0  0  0
 20 51  1  0  0  0
 20 52  1  0  0  0
 22 23  1  0  0  0
 22 53  1  0  0  0
 22 54  1  0  0  0
 23 33  1  0  0  0
 23 24  2  0  0  0
 24 25  1  0  0  0
 24 55  1  0  0  0
 25 30  2  0  0  0
 25 26  1  0  0  0
 26 27  2  0  0  0
 26 56  1  0  0  0
 27 37  1  0  0  0
 27 28  1  0  0  0
 28 29  2  0  0  0
 28 35  1  0  0  0
 29 30  1  0  0  0
 29 57  1  0  0  0
 30 31  1  0  0  0
 31 32  1  0  0  0
 31 33  1  0  0  0
 33 34  2  0  0  0
 35 36  1  0  0  0
 36 37  1  0  0  0
 36 58  1  0  0  0
 36 59  1  0  0  0
M  END
> <i_i_glide_confnum>
29

> <i_i_glide_lignum>
929

> <i_i_glide_posenum>
208

> <i_i_glide_rotatable_bonds>
7

> <i_m_Source_File_Index>
5099

> <b_m_subgroup_collapsed>
0

> <r_i_docking_score>
-5.45911

> <r_i_glide_ecoul>
-4.92029

> <r_i_glide_eff_state_penalty>
0

> <r_i_glide_einternal>
7.31405

> <r_i_glide_emodel>
-64.7033

> <r_i_glide_energy>
-53.1005

> <r_i_glide_erotb>
0.406016

> <r_i_glide_esite>
-0.122038

> <r_i_glide_evdw>
-48.1802

> <r_i_glide_gscore>
-5.45911

> <r_i_glide_hbond>
-0.576778

> <r_i_glide_ligand_efficiency>
-0.151642

> <r_i_glide_ligand_efficiency_ln>
-1.19103

> <r_i_glide_ligand_efficiency_sa>
-0.500711

> <r_i_glide_lipo>
-2.46526

> <r_i_glide_metal>
0

> <r_i_glide_rewards>
0.446004

> <s_i_glide_gridfile>
wee1_glide-grid

> <s_m_Source_File>
wee1_decoys_glide_SP.sdf

> <s_m_Source_Path>
/Users/zhangxujun/Desktop

> <s_m_entry_id>
5374

> <s_m_entry_name>
wee1_decoys_glide_SP.5099

> <s_m_subgroup_title>
wee1_decoys_glide_SP

> <s_m_subgroupid>
wee1_decoys_glide_SP


$$$$
