ZINC01056560_2803
                    3D
 Schrodinger Suite 2024-2.
 47 50  0  0  1  0            999 V2000
    7.2245   53.6849   17.8678 C   0  0  0  0  0  0
    8.4737   53.4924   17.2823 C   0  0  0  0  0  0
    9.3938   54.5458   17.2097 C   0  0  0  0  0  0
    9.0194   55.8070   17.6938 C   0  0  0  0  0  0
    7.7634   56.0006   18.2632 C   0  0  0  0  0  0
    6.8676   54.9349   18.3808 C   0  0  0  0  0  0
    5.5207   55.1145   19.1075 C   0  0  1  0  0  0
    5.3573   56.1952   19.1104 H   0  0  0  0  0  0
    4.3513   54.4827   18.3468 C   0  0  0  0  0  0
    3.5853   53.5023   18.8707 C   0  0  0  0  0  0
    3.7602   53.0529   20.1881 N   0  0  0  0  0  0
    4.7524   53.6020   21.0193 C   0  0  0  0  0  0
    5.5615   54.6122   20.5770 C   0  0  0  0  0  0
    6.5184   55.2981   21.4871 C   0  0  0  0  0  0
    7.1002   56.3327   21.1682 O   0  0  0  0  0  0
    6.7043   54.7394   22.9036 C   0  0  0  0  0  0
    5.4138   54.1258   23.4387 C   0  0  0  0  0  0
    4.8648   53.0781   22.4679 C   0  0  0  0  0  0
    2.8683   52.0900   20.7203 C   0  0  0  0  0  0
    1.7699   52.4941   21.4891 C   0  0  0  0  0  0
    0.9026   51.5457   22.0226 C   0  0  0  0  0  0
    1.1233   50.1922   21.7771 C   0  0  0  0  0  0
    2.2093   49.7833   21.0058 C   0  0  0  0  0  0
    3.0777   50.7324   20.4738 C   0  0  0  0  0  0
   -0.0820   48.8999   22.4824 Br  0  0  0  0  0  0
    2.5981   52.8849   18.1295 N   0  0  0  0  0  0
    4.1358   54.9303   17.0051 C   0  0  0  0  0  0
    3.9420   55.2820   15.9193 N   0  0  0  0  0  0
   10.7483   54.3287   16.6443 N   0  3  0  0  0  0
   11.0768   53.1895   16.3339 O   0  0  0  0  0  0
   11.4891   55.2963   16.5100 O   0  5  0  0  0  0
    6.5452   52.8447   17.9461 H   0  0  0  0  0  0
    8.7305   52.5080   16.9157 H   0  0  0  0  0  0
    9.7053   56.6402   17.6486 H   0  0  0  0  0  0
    7.5053   56.9788   18.6437 H   0  0  0  0  0  0
    7.1007   55.5189   23.5523 H   0  0  0  0  0  0
    7.4684   53.9665   22.8486 H   0  0  0  0  0  0
    4.6610   54.8979   23.6028 H   0  0  0  0  0  0
    5.5939   53.6740   24.4165 H   0  0  0  0  0  0
    3.8828   52.8946   22.8957 H   0  0  0  0  0  0
    5.4037   52.1288   22.4815 H   0  0  0  0  0  0
    1.6047   53.5454   21.6803 H   0  0  0  0  0  0
    0.0631   51.8590   22.6249 H   0  0  0  0  0  0
    2.3738   48.7338   20.8107 H   0  0  0  0  0  0
    3.9048   50.4214   19.8512 H   0  0  0  0  0  0
    2.4315   53.1645   17.1730 H   0  0  0  0  0  0
    2.2679   51.9673   18.3990 H   0  0  0  0  0  0
  1  6  2  0  0  0
  1  2  1  0  0  0
  1 32  1  0  0  0
  2  3  2  0  0  0
  2 33  1  0  0  0
  3  4  1  0  0  0
  3 29  1  0  0  0
  4  5  2  0  0  0
  4 34  1  0  0  0
  5  6  1  0  0  0
  5 35  1  0  0  0
  6  7  1  0  0  0
  7  8  1  0  0  0
  7 13  1  0  0  0
  7  9  1  0  0  0
  9 10  2  0  0  0
  9 27  1  0  0  0
 10 11  1  0  0  0
 10 26  1  0  0  0
 11 12  1  0  0  0
 11 19  1  0  0  0
 12 18  1  0  0  0
 12 13  2  0  0  0
 13 14  1  0  0  0
 14 15  2  0  0  0
 14 16  1  0  0  0
 16 17  1  0  0  0
 16 36  1  0  0  0
 16 37  1  0  0  0
 17 18  1  0  0  0
 17 38  1  0  0  0
 17 39  1  0  0  0
 18 40  1  0  0  0
 18 41  1  0  0  0
 19 24  2  0  0  0
 19 20  1  0  0  0
 20 21  2  0  0  0
 20 42  1  0  0  0
 21 22  1  0  0  0
 21 43  1  0  0  0
 22 23  2  0  0  0
 22 25  1  0  0  0
 23 24  1  0  0  0
 23 44  1  0  0  0
 24 45  1  0  0  0
 26 46  1  0  0  0
 26 47  1  0  0  0
 27 28  3  0  0  0
 29 30  2  0  0  0
 29 31  1  0  0  0
M  CHG  2  29   1  31  -1
M  END
> <i_i_glide_confnum>
4

> <i_i_glide_lignum>
2804

> <i_i_glide_posenum>
108

> <i_i_glide_rotatable_bonds>
4

> <i_m_Source_File_Index>
4510

> <b_m_subgroup_collapsed>
0

> <r_i_docking_score>
-3.85589

> <r_i_glide_ecoul>
-1.70691

> <r_i_glide_eff_state_penalty>
0

> <r_i_glide_einternal>
2.63497

> <r_i_glide_emodel>
-41.1027

> <r_i_glide_energy>
-34.3

> <r_i_glide_erotb>
0.186288

> <r_i_glide_esite>
-0.0223354

> <r_i_glide_evdw>
-32.5931

> <r_i_glide_gscore>
-3.85589

> <r_i_glide_hbond>
-0.206563

> <r_i_glide_ligand_efficiency>
-0.12853

> <r_i_glide_ligand_efficiency_ln>
-0.876099

> <r_i_glide_ligand_efficiency_sa>
-0.399371

> <r_i_glide_lipo>
-1.32732

> <r_i_glide_metal>
0

> <r_i_glide_rewards>
-0.600269

> <s_i_glide_gridfile>
wee1_glide-grid

> <s_m_Source_File>
wee1_decoys_glide_SP.sdf

> <s_m_Source_Path>
/Users/zhangxujun/Desktop

> <s_m_entry_id>
4785

> <s_m_entry_name>
wee1_decoys_glide_SP.4510

> <s_m_subgroup_title>
wee1_decoys_glide_SP

> <s_m_subgroupid>
wee1_decoys_glide_SP


$$$$
