@<TRIPOS>MOLECULE
ZINC51730211_4751
40   41    1
SMALL
USER_CHARGES


@<TRIPOS>ATOM
      1 C1         -0.0418   52.3087   30.8817 C.3       1 UNK         0.0000 
      2 C2          1.0470   53.2321   30.3574 C.3       1 UNK         0.0000 
      3 H3          1.1956   54.0361   31.0773 H         1 UNK         0.0000 
      4 C4          2.3696   52.4775   30.1682 C.3       1 UNK         0.0000 
      5 C5          3.4642   53.3611   29.5462 C.3       1 UNK         0.0000 
      6 N6          3.0114   54.0026   28.2944 N.pl3     1 UNK         0.0000 
      7 C7          1.7674   54.7785   28.4817 C.3       1 UNK         0.0000 
      8 H8          1.4103   55.0844   27.5024 H         1 UNK         0.0000 
      9 C9          0.6638   53.8384   29.0030 C.3       1 UNK         0.0000 
     10 C10         1.9189   56.0804   29.2961 C.3       1 UNK         0.0000 
     11 C11         3.8107   54.1337   27.1576 C.ar      1 UNK         0.0000 
     12 C12         3.1924   54.0482   25.9021 C.ar      1 UNK         0.0000 
     13 C13         3.9333   54.0967   24.7258 C.ar      1 UNK         0.0000 
     14 C14         5.3174   54.2474   24.7836 C.ar      1 UNK         0.0000 
     15 C15         5.9505   54.3909   26.0178 C.ar      1 UNK         0.0000 
     16 C16         5.2116   54.3305   27.1999 C.ar      1 UNK         0.0000 
     17 N17         5.9044   54.4967   28.4008 N.pl3     1 UNK         0.0000 
     18 S18         6.2764   54.2031   23.2817 S.o2      1 UNK         0.0000 
     19 O19         5.5052   53.4248   22.3065 O.2       1 UNK         0.0000 
     20 O20         6.7044   55.5769   23.0087 O.2       1 UNK         0.0000 
     21 N21         7.7107   53.2967   23.6817 N.pl3     1 UNK         0.0000 
     22 H22        -0.3771   51.5842   30.1379 H         1 UNK         0.0000 
     23 H23        -0.8956   52.8967   31.2005 H         1 UNK         0.0000 
     24 H24         0.3044   51.7577   31.7576 H         1 UNK         0.0000 
     25 H25         2.7005   52.0665   31.1227 H         1 UNK         0.0000 
     26 H26         2.2282   51.6023   29.5309 H         1 UNK         0.0000 
     27 H27         4.3059   52.7022   29.3272 H         1 UNK         0.0000 
     28 H28         3.8140   54.1184   30.2481 H         1 UNK         0.0000 
     29 H29         0.5230   53.0109   28.3037 H         1 UNK         0.0000 
     30 H30        -0.3033   54.3357   29.0482 H         1 UNK         0.0000 
     31 H31         0.9995   56.6645   29.2854 H         1 UNK         0.0000 
     32 H32         2.1781   55.8979   30.3375 H         1 UNK         0.0000 
     33 H33         2.7044   56.7089   28.8818 H         1 UNK         0.0000 
     34 H34         2.1270   53.8874   25.8283 H         1 UNK         0.0000 
     35 H35         3.4319   53.9884   23.7742 H         1 UNK         0.0000 
     36 H36         7.0223   54.5165   26.0551 H         1 UNK         0.0000 
     37 H37         6.8796   54.7664   28.4120 H         1 UNK         0.0000 
     38 H38         5.3689   54.5215   29.2553 H         1 UNK         0.0000 
     39 H39         7.8221   52.4134   23.1806 H         1 UNK         0.0000 
     40 H40         8.5523   53.8917   23.6817 H         1 UNK         0.0000 
@<TRIPOS>BOND
     1    1    2 1    
     2    1   22 1    
     3    1   23 1    
     4    1   24 1    
     5    2    3 1    
     6    2    9 1    
     7    2    4 1    
     8    4    5 1    
     9    4   25 1    
    10    4   26 1    
    11    5    6 1    
    12    5   27 1    
    13    5   28 1    
    14    6    7 1    
    15    6   11 1    
    16    7    8 1    
    17    7    9 1    
    18    7   10 1    
    19    9   29 1    
    20    9   30 1    
    21   10   31 1    
    22   10   32 1    
    23   10   33 1    
    24   11   16 ar   
    25   11   12 ar   
    26   12   13 ar   
    27   12   34 1    
    28   13   14 ar   
    29   13   35 1    
    30   14   15 ar   
    31   14   18 1    
    32   15   16 ar   
    33   15   36 1    
    34   16   17 1    
    35   17   37 1    
    36   17   38 1    
    37   18   19 2    
    38   18   20 2    
    39   18   21 1    
    40   21   39 1    
    41   21   40 1    
@<TRIPOS>SUBSTRUCTURE
     1 UNK         1 GROUP             0       ****    0 ROOT    
