@<TRIPOS>MOLECULE
ZINC17099298_3924
54   57    1
SMALL
USER_CHARGES


@<TRIPOS>ATOM
      1 C1          6.5318   53.5612   28.3576 C.3       1 UNK         0.0000 
      2 C2          5.5473   53.7287   27.2293 C.ar      1 UNK         0.0000 
      3 C3          6.0332   54.0970   25.9888 C.ar      1 UNK         0.0000 
      4 C4          5.1761   54.2745   24.9092 C.ar      1 UNK         0.0000 
      5 C5          3.7757   54.1250   25.0908 C.ar      1 UNK         0.0000 
      6 C6          3.2671   53.7086   26.3564 C.ar      1 UNK         0.0000 
      7 C7          4.1831   53.5144   27.4051 C.ar      1 UNK         0.0000 
      8 C8          1.7520   53.4902   26.6420 C.3       1 UNK         0.0000 
      9 H9          1.2773   54.3038   26.1194 H         1 UNK         0.0000 
     10 C10         1.3186   53.6121   28.1194 C.ar      1 UNK         0.0000 
     11 C11         1.4286   54.5863   29.1391 C.ar      1 UNK         0.0000 
     12 N12         0.9017   54.1731   30.2828 N.2       1 UNK         0.0000 
     13 N13         0.4531   52.9372   30.0501 N.pl3     1 UNK         0.0000 
     14 H14        -0.0299   52.3801   30.7422 H         1 UNK         0.0000 
     15 C15         0.6916   52.5653   28.7627 C.ar      1 UNK         0.0000 
     16 O16         0.3069   51.3582   28.2444 O.3       1 UNK         0.0000 
     17 C17         0.4914   51.2671   26.8960 C.2       1 UNK         0.0000 
     18 C18         1.1043   52.1835   26.0953 C.2       1 UNK         0.0000 
     19 C19         1.0869   51.9528   24.6873 C.1       1 UNK         0.0000 
     20 N20         1.0204   51.7060   23.5589 N.1       1 UNK         0.0000 
     21 N21        -0.0950   50.0973   26.4839 N.pl3     1 UNK         0.0000 
     22 C22         2.0381   55.9668   29.0672 C.3       1 UNK         0.0000 
     23 C23         2.8458   54.4637   23.9223 C.3       1 UNK         0.0000 
     24 C24         5.8596   54.6122   23.5803 C.3       1 UNK         0.0000 
     25 O25         5.2159   53.9592   22.4903 O.3       1 UNK         0.0000 
     26 C26         5.5044   54.3298   21.1913 C.ar      1 UNK         0.0000 
     27 C27         6.4405   55.3218   20.8487 C.ar      1 UNK         0.0000 
     28 C28         6.6825   55.6386   19.5141 C.ar      1 UNK         0.0000 
     29 C29         6.0065   54.9610   18.5019 C.ar      1 UNK         0.0000 
     30 C30         5.0837   53.9699   18.8274 C.ar      1 UNK         0.0000 
     31 C31         4.8247   53.6540   20.1634 C.ar      1 UNK         0.0000 
     32 C32         3.8278   52.5505   20.4853 C.3       1 UNK         0.0000 
     33 Cl33        6.3104   55.3461   16.8488 Cl        1 UNK         0.0000 
     34 H34         7.0813   54.4901   28.4934 H         1 UNK         0.0000 
     35 H35         6.0260   53.2970   29.2816 H         1 UNK         0.0000 
     36 H36         7.2551   52.7872   28.1053 H         1 UNK         0.0000 
     37 H37         7.1001   54.2272   25.8596 H         1 UNK         0.0000 
     38 H38         3.8377   53.1943   28.3772 H         1 UNK         0.0000 
     39 H39        -0.0292   49.7845   25.5275 H         1 UNK         0.0000 
     40 H40        -0.5827   49.5000   27.1478 H         1 UNK         0.0000 
     41 H41         1.9072   56.4047   28.0823 H         1 UNK         0.0000 
     42 H42         3.1059   55.9533   29.2779 H         1 UNK         0.0000 
     43 H43         1.5844   56.6666   29.7691 H         1 UNK         0.0000 
     44 H44         3.2466   55.2954   23.3453 H         1 UNK         0.0000 
     45 H45         2.7630   53.6165   23.2389 H         1 UNK         0.0000 
     46 H46         1.8492   54.7958   24.2056 H         1 UNK         0.0000 
     47 H47         5.9047   55.6941   23.4915 H         1 UNK         0.0000 
     48 H48         6.8976   54.2709   23.5849 H         1 UNK         0.0000 
     49 H49         7.0025   55.8512   21.6030 H         1 UNK         0.0000 
     50 H50         7.3990   56.4049   19.2586 H         1 UNK         0.0000 
     51 H51         4.5750   53.4379   18.0389 H         1 UNK         0.0000 
     52 H52         3.6323   51.9161   19.6203 H         1 UNK         0.0000 
     53 H53         4.2261   51.9010   21.2668 H         1 UNK         0.0000 
     54 H54         2.8903   52.9773   20.8452 H         1 UNK         0.0000 
@<TRIPOS>BOND
     1    1    2 1    
     2    1   34 1    
     3    1   35 1    
     4    1   36 1    
     5    2    7 ar   
     6    2    3 ar   
     7    3    4 ar   
     8    3   37 1    
     9    4    5 ar   
    10    4   24 1    
    11    5    6 ar   
    12    5   23 1    
    13    6    7 ar   
    14    6    8 1    
    15    7   38 1    
    16    8    9 1    
    17    8   18 1    
    18    8   10 1    
    19   10   15 ar   
    20   10   11 ar   
    21   11   12 ar   
    22   11   22 1    
    23   12   13 ar   
    24   13   14 1    
    25   13   15 ar   
    26   15   16 1    
    27   16   17 1    
    28   17   18 2    
    29   17   21 1    
    30   18   19 1    
    31   19   20 3    
    32   21   39 1    
    33   21   40 1    
    34   22   41 1    
    35   22   42 1    
    36   22   43 1    
    37   23   44 1    
    38   23   45 1    
    39   23   46 1    
    40   24   25 1    
    41   24   47 1    
    42   24   48 1    
    43   25   26 1    
    44   26   31 ar   
    45   26   27 ar   
    46   27   28 ar   
    47   27   49 1    
    48   28   29 ar   
    49   28   50 1    
    50   29   30 ar   
    51   29   33 1    
    52   30   31 ar   
    53   30   51 1    
    54   31   32 1    
    55   32   52 1    
    56   32   53 1    
    57   32   54 1    
@<TRIPOS>SUBSTRUCTURE
     1 UNK         1 GROUP             0       ****    0 ROOT    
