ZINC58949216_1610
                    3D
 Schrodinger Suite 2024-2.
 37 38  0  0  1  0            999 V2000
    0.5436   52.1633   19.3959 C   0  0  0  0  0  0
    1.1744   51.1918   20.3673 C   0  0  0  0  0  0
    1.2705   49.8200   20.1012 C   0  0  0  0  0  0
    1.9006   49.1028   21.0946 C   0  0  0  0  0  0
    2.3043   50.0967   22.4365 S   0  0  0  0  0  0
    1.7148   51.5276   21.6235 C   0  0  0  0  0  0
    1.9226   52.9183   22.2519 C   0  0  2  0  0  0
    1.4031   53.6883   21.6817 H   0  0  0  0  0  0
    3.4300   53.2939   22.2297 C   0  0  0  0  0  0
    4.0762   53.6973   23.3539 C   0  0  0  0  0  0
    3.4629   53.8048   24.5567 O   0  0  0  0  0  0
    2.1729   53.4317   24.7189 C   0  0  0  0  0  0
    1.3649   53.0317   23.6982 C   0  0  0  0  0  0
   -0.0620   52.6397   23.8812 C   0  0  0  0  0  0
   -0.8309   52.4913   22.9268 O   0  0  0  0  0  0
   -0.4436   52.4451   25.1680 O   0  0  0  0  0  0
   -1.7669   52.0370   25.4858 C   0  0  0  0  0  0
    1.9041   53.5572   26.0555 N   0  0  0  0  0  0
    5.5384   54.0888   23.5336 C   0  0  0  0  0  0
    4.1564   53.0635   20.9973 C   0  0  0  0  0  0
    5.1055   52.2937   20.9291 O   0  0  0  0  0  0
    3.6980   53.6965   19.9232 N   0  0  0  0  0  0
   -0.3919   51.7679   19.0007 H   0  0  0  0  0  0
    0.3061   53.1258   19.8384 H   0  0  0  0  0  0
    1.1864   52.3341   18.5309 H   0  0  0  0  0  0
    0.9255   49.3721   19.1804 H   0  0  0  0  0  0
    2.1516   48.0561   21.0986 H   0  0  0  0  0  0
   -1.8701   51.9223   26.5650 H   0  0  0  0  0  0
   -2.0036   51.0795   25.0194 H   0  0  0  0  0  0
   -2.4950   52.7766   25.1502 H   0  0  0  0  0  0
    0.9955   53.3010   26.4160 H   0  0  0  0  0  0
    2.6219   53.8405   26.7047 H   0  0  0  0  0  0
    6.0969   54.1052   22.5988 H   0  0  0  0  0  0
    5.6072   55.0822   23.9754 H   0  0  0  0  0  0
    6.0307   53.3838   24.2042 H   0  0  0  0  0  0
    2.8926   54.3106   19.9877 H   0  0  0  0  0  0
    4.1431   53.5278   19.0339 H   0  0  0  0  0  0
  1  2  1  0  0  0
  1 23  1  0  0  0
  1 24  1  0  0  0
  1 25  1  0  0  0
  2  6  2  0  0  0
  2  3  1  0  0  0
  3  4  2  0  0  0
  3 26  1  0  0  0
  4  5  1  0  0  0
  4 27  1  0  0  0
  5  6  1  0  0  0
  6  7  1  0  0  0
  7  8  1  0  0  0
  7 13  1  0  0  0
  7  9  1  0  0  0
  9 10  2  0  0  0
  9 20  1  0  0  0
 10 11  1  0  0  0
 10 19  1  0  0  0
 11 12  1  0  0  0
 12 13  2  0  0  0
 12 18  1  0  0  0
 13 14  1  0  0  0
 14 15  2  0  0  0
 14 16  1  0  0  0
 16 17  1  0  0  0
 17 28  1  0  0  0
 17 29  1  0  0  0
 17 30  1  0  0  0
 18 31  1  0  0  0
 18 32  1  0  0  0
 19 33  1  0  0  0
 19 34  1  0  0  0
 19 35  1  0  0  0
 20 21  2  0  0  0
 20 22  1  0  0  0
 22 36  1  0  0  0
 22 37  1  0  0  0
M  END
> <i_i_glide_confnum>
2

> <i_i_glide_lignum>
1611

> <i_i_glide_posenum>
219

> <i_i_glide_rotatable_bonds>
4

> <i_m_Source_File_Index>
2015

> <b_m_subgroup_collapsed>
0

> <r_i_docking_score>
-4.93347

> <r_i_glide_ecoul>
-5.36612

> <r_i_glide_eff_state_penalty>
0

> <r_i_glide_einternal>
3.60437

> <r_i_glide_emodel>
-40.5533

> <r_i_glide_energy>
-31.4612

> <r_i_glide_erotb>
0.389144

> <r_i_glide_esite>
-0.02315

> <r_i_glide_evdw>
-26.095

> <r_i_glide_gscore>
-4.93347

> <r_i_glide_hbond>
-0.32

> <r_i_glide_ligand_efficiency>
-0.234927

> <r_i_glide_ligand_efficiency_ln>
-1.21979

> <r_i_glide_ligand_efficiency_sa>
-0.648147

> <r_i_glide_lipo>
-1.31346

> <r_i_glide_metal>
0

> <r_i_glide_rewards>
-1.55634

> <s_i_glide_gridfile>
wee1_glide-grid

> <s_m_Source_File>
wee1_decoys_glide_SP.sdf

> <s_m_Source_Path>
/Users/zhangxujun/Desktop

> <s_m_entry_id>
2290

> <s_m_entry_name>
wee1_decoys_glide_SP.2015

> <s_m_subgroup_title>
wee1_decoys_glide_SP

> <s_m_subgroupid>
wee1_decoys_glide_SP


$$$$
