@<TRIPOS>MOLECULE
ZINC44973616_2376
55   59    1
SMALL
USER_CHARGES


@<TRIPOS>ATOM
      1 C1          2.3136   54.4344   16.8734 C.3       1 UNK         0.0000 
      2 C2          2.7967   52.9592   16.9098 C.3       1 UNK         0.0000 
      3 C3          2.8726   52.4402   18.3726 C.3       1 UNK         0.0000 
      4 C4          3.9747   53.1580   19.1551 C.2       1 UNK         0.0000 
      5 C5          5.0861   53.6887   18.5791 C.2       1 UNK         0.0000 
      6 C6          6.1631   54.4470   19.4078 C.3       1 UNK         0.0000 
      7 H7          7.0626   53.8393   19.3107 H         1 UNK         0.0000 
      8 C8          5.7854   54.4971   20.9201 C.ar      1 UNK         0.0000 
      9 C9          6.6271   54.9589   21.9529 C.ar      1 UNK         0.0000 
     10 N10         6.3047   54.8987   23.2686 N.ar      1 UNK         0.0000 
     11 C11         5.0823   54.4149   23.5800 C.ar      1 UNK         0.0000 
     12 N12         4.1885   53.9328   22.6858 N.ar      1 UNK         0.0000 
     13 C13         4.5744   53.9548   21.3870 C.ar      1 UNK         0.0000 
     14 N14         3.7080   53.3424   20.4869 N.pl3     1 UNK         0.0000 
     15 S15         4.6162   54.4919   25.2870 S.3       1 UNK         0.0000 
     16 C16         2.9159   53.8360   25.4162 C.3       1 UNK         0.0000 
     17 C17         2.4010   53.6471   26.8454 C.ar      1 UNK         0.0000 
     18 C18         2.7935   54.4965   27.8863 C.ar      1 UNK         0.0000 
     19 C19         2.2854   54.3188   29.1699 C.ar      1 UNK         0.0000 
     20 C20         1.3940   53.2762   29.4204 C.ar      1 UNK         0.0000 
     21 C21         1.0031   52.4185   28.3965 C.ar      1 UNK         0.0000 
     22 C22         1.5006   52.6084   27.1092 C.ar      1 UNK         0.0000 
     23 N23         7.8825   55.4897   21.6816 N.pl3     1 UNK         0.0000 
     24 C24         6.5019   55.8151   18.8227 C.2       1 UNK         0.0000 
     25 C25         7.7570   56.3874   18.5946 C.2       1 UNK         0.0000 
     26 C26         7.7220   57.6716   18.0523 C.2       1 UNK         0.0000 
     27 C27         6.4298   58.0986   17.8066 C.2       1 UNK         0.0000 
     28 S28         5.2669   56.8967   18.2396 S.3       1 UNK         0.0000 
     29 C29         5.3386   53.4907   17.1297 C.2       1 UNK         0.0000 
     30 O30         6.4445   53.6791   16.6246 O.2       1 UNK         0.0000 
     31 C31         4.2197   52.8310   16.2991 C.3       1 UNK         0.0000 
     32 C32         1.8648   52.0152   16.1177 C.3       1 UNK         0.0000 
     33 H33         1.2957   54.5232   17.2586 H         1 UNK         0.0000 
     34 H34         2.9326   55.1040   17.4704 H         1 UNK         0.0000 
     35 H35         2.3022   54.8241   15.8541 H         1 UNK         0.0000 
     36 H36         3.0744   51.3696   18.4348 H         1 UNK         0.0000 
     37 H37         1.8940   52.6472   18.8082 H         1 UNK         0.0000 
     38 H38         2.8355   52.9990   20.8566 H         1 UNK         0.0000 
     39 H39         2.9065   52.8721   24.9071 H         1 UNK         0.0000 
     40 H40         2.2333   54.4948   24.8785 H         1 UNK         0.0000 
     41 H41         3.4905   55.2967   27.7056 H         1 UNK         0.0000 
     42 H42         2.5799   54.9890   29.9620 H         1 UNK         0.0000 
     43 H43         1.0021   53.1313   30.4185 H         1 UNK         0.0000 
     44 H44         0.3132   51.6078   28.5984 H         1 UNK         0.0000 
     45 H45         1.1793   51.9460   26.3189 H         1 UNK         0.0000 
     46 H46         8.2011   55.5493   20.7291 H         1 UNK         0.0000 
     47 H47         8.4963   55.6967   22.4659 H         1 UNK         0.0000 
     48 H48         8.6845   55.8836   18.8231 H         1 UNK         0.0000 
     49 H49         8.5994   58.2642   17.8373 H         1 UNK         0.0000 
     50 H50         6.1105   59.0474   17.3944 H         1 UNK         0.0000 
     51 H51         4.2748   53.1853   15.2685 H         1 UNK         0.0000 
     52 H52         4.4756   51.7690   16.2854 H         1 UNK         0.0000 
     53 H53         0.8516   52.0243   16.5232 H         1 UNK         0.0000 
     54 H54         1.7970   52.3064   15.0682 H         1 UNK         0.0000 
     55 H55         2.2164   50.9811   16.1472 H         1 UNK         0.0000 
@<TRIPOS>BOND
     1    1    2 1    
     2    1   33 1    
     3    1   34 1    
     4    1   35 1    
     5    2   31 1    
     6    2    3 1    
     7    2   32 1    
     8    3    4 1    
     9    3   36 1    
    10    3   37 1    
    11    4   14 1    
    12    4    5 2    
    13    5    6 1    
    14    5   29 1    
    15    6    7 1    
    16    6    8 1    
    17    6   24 1    
    18    8   13 ar   
    19    8    9 ar   
    20    9   10 ar   
    21    9   23 1    
    22   10   11 ar   
    23   11   12 ar   
    24   11   15 1    
    25   12   13 ar   
    26   13   14 1    
    27   14   38 1    
    28   15   16 1    
    29   16   17 1    
    30   16   39 1    
    31   16   40 1    
    32   17   22 ar   
    33   17   18 ar   
    34   18   19 ar   
    35   18   41 1    
    36   19   20 ar   
    37   19   42 1    
    38   20   21 ar   
    39   20   43 1    
    40   21   22 ar   
    41   21   44 1    
    42   22   45 1    
    43   23   46 1    
    44   23   47 1    
    45   24   28 1    
    46   24   25 2    
    47   25   26 1    
    48   25   48 1    
    49   26   27 2    
    50   26   49 1    
    51   27   28 1    
    52   27   50 1    
    53   29   30 2    
    54   29   31 1    
    55   31   51 1    
    56   31   52 1    
    57   32   53 1    
    58   32   54 1    
    59   32   55 1    
@<TRIPOS>SUBSTRUCTURE
     1 UNK         1 GROUP             0       ****    0 ROOT    
