@<TRIPOS>MOLECULE
ZINC36148154_3543
65   68    1
SMALL
USER_CHARGES


@<TRIPOS>ATOM
      1 C1         -1.2873   51.0473   30.3230 C.3       1 UNK         0.0000 
      2 C2         -0.1988   51.6989   29.5096 C.ar      1 UNK         0.0000 
      3 C3         -0.2439   51.6009   28.1237 C.ar      1 UNK         0.0000 
      4 C4          0.8060   52.1034   27.3731 C.ar      1 UNK         0.0000 
      5 C5          1.8965   52.6904   28.0141 C.ar      1 UNK         0.0000 
      6 C6          1.9346   52.8164   29.4066 C.ar      1 UNK         0.0000 
      7 C7          0.8707   52.3243   30.1553 C.ar      1 UNK         0.0000 
      8 N8          2.8805   53.1609   27.1585 N.am      1 UNK         0.0000 
      9 C9          4.1475   53.5641   27.3754 C.2       1 UNK         0.0000 
     10 O10         4.7632   53.4087   28.4321 O.2       1 UNK         0.0000 
     11 N11         4.6749   54.1172   26.2546 N.am      1 UNK         0.0000 
     12 C12         3.8476   55.0225   25.4305 C.3       1 UNK         0.0000 
     13 C13         4.0945   54.6723   23.9614 C.3       1 UNK         0.0000 
     14 C14         5.5847   54.7264   23.5587 C.3       1 UNK         0.0000 
     15 C15         6.4343   53.9515   24.5935 C.3       1 UNK         0.0000 
     16 C16         6.1286   54.2728   26.0818 C.3       1 UNK         0.0000 
     17 C17         5.8706   54.2984   22.0794 C.3       1 UNK         0.0000 
     18 H18         6.9378   54.0968   22.0790 H         1 UNK         0.0000 
     19 C19         5.1047   53.0175   21.6396 C.2       1 UNK         0.0000 
     20 O20         5.5044   51.9526   22.0815 O.2       1 UNK         0.0000 
     21 N21         4.0417   53.1233   20.8062 N.am      1 UNK         0.0000 
     22 C22         3.2122   52.0871   20.3397 C.ar      1 UNK         0.0000 
     23 C23         2.9734   50.9009   21.0531 C.ar      1 UNK         0.0000 
     24 C24         2.1490   49.9187   20.5131 C.ar      1 UNK         0.0000 
     25 C25         1.5505   50.1241   19.2735 C.ar      1 UNK         0.0000 
     26 C26         1.7605   51.3101   18.5726 C.ar      1 UNK         0.0000 
     27 C27         2.5856   52.2939   19.1102 C.ar      1 UNK         0.0000 
     28 N28         5.6913   55.3452   21.0731 N.am      1 UNK         0.0000 
     29 C29         6.6674   55.9233   20.3489 C.2       1 UNK         0.0000 
     30 O30         7.8661   55.8153   20.6057 O.2       1 UNK         0.0000 
     31 C31         6.2055   56.7024   19.1429 C.ar      1 UNK         0.0000 
     32 C32         5.0761   56.2928   18.4160 C.ar      1 UNK         0.0000 
     33 C33         4.6835   56.9838   17.2736 C.ar      1 UNK         0.0000 
     34 C34         5.4204   58.0808   16.8432 C.ar      1 UNK         0.0000 
     35 C35         6.5432   58.4968   17.5523 C.ar      1 UNK         0.0000 
     36 C36         6.9400   57.8077   18.6960 C.ar      1 UNK         0.0000 
     37 F37         5.0523   58.7328   15.7180 F         1 UNK         0.0000 
     38 H38        -2.0690   50.5269   29.7644 H         1 UNK         0.0000 
     39 H39        -0.8959   50.4555   31.1180 H         1 UNK         0.0000 
     40 H40        -1.6957   51.6999   31.0143 H         1 UNK         0.0000 
     41 H41        -1.0681   51.0987   27.6352 H         1 UNK         0.0000 
     42 H42         0.7715   52.0079   26.2968 H         1 UNK         0.0000 
     43 H43         2.7677   53.2870   29.9070 H         1 UNK         0.0000 
     44 H44         0.8883   52.3945   31.2335 H         1 UNK         0.0000 
     45 H45         2.5794   53.2279   26.1991 H         1 UNK         0.0000 
     46 H46         4.1648   56.0295   25.6839 H         1 UNK         0.0000 
     47 H47         2.7766   54.9003   25.5926 H         1 UNK         0.0000 
     48 H48         3.4972   55.2968   23.2955 H         1 UNK         0.0000 
     49 H49         3.6840   53.6781   23.7822 H         1 UNK         0.0000 
     50 H50         5.9224   55.7517   23.6790 H         1 UNK         0.0000 
     51 H51         6.2590   52.8972   24.4077 H         1 UNK         0.0000 
     52 H52         7.4986   54.0592   24.3744 H         1 UNK         0.0000 
     53 H53         6.4086   55.2998   26.3204 H         1 UNK         0.0000 
     54 H54         6.6835   53.5764   26.7149 H         1 UNK         0.0000 
     55 H55         3.8208   54.0313   20.4348 H         1 UNK         0.0000 
     56 H56         3.4166   50.7253   22.0217 H         1 UNK         0.0000 
     57 H57         1.9808   48.9989   21.0533 H         1 UNK         0.0000 
     58 H58         0.9246   49.3555   18.8470 H         1 UNK         0.0000 
     59 H59         1.2997   51.4597   17.6079 H         1 UNK         0.0000 
     60 H60         2.7503   53.2051   18.5533 H         1 UNK         0.0000 
     61 H61         4.7394   55.6093   20.8766 H         1 UNK         0.0000 
     62 H62         4.4995   55.4268   18.7069 H         1 UNK         0.0000 
     63 H63         3.8193   56.6639   16.7118 H         1 UNK         0.0000 
     64 H64         7.0972   59.3593   17.2120 H         1 UNK         0.0000 
     65 H65         7.8235   58.1362   19.2244 H         1 UNK         0.0000 
@<TRIPOS>BOND
     1    1    2 1    
     2    1   38 1    
     3    1   39 1    
     4    1   40 1    
     5    2    7 ar   
     6    2    3 ar   
     7    3    4 ar   
     8    3   41 1    
     9    4    5 ar   
    10    4   42 1    
    11    5    6 ar   
    12    5    8 1    
    13    6    7 ar   
    14    6   43 1    
    15    7   44 1    
    16    8    9 am   BACKBONE|DICT|INTERRES
    17    8   45 1    
    18    9   10 2    
    19    9   11 am   BACKBONE|DICT|INTERRES
    20   11   16 1    
    21   11   12 1    
    22   12   13 1    
    23   12   46 1    
    24   12   47 1    
    25   13   14 1    
    26   13   48 1    
    27   13   49 1    
    28   14   15 1    
    29   14   17 1    
    30   14   50 1    
    31   15   16 1    
    32   15   51 1    
    33   15   52 1    
    34   16   53 1    
    35   16   54 1    
    36   17   18 1    
    37   17   19 1    
    38   17   28 1    
    39   19   20 2    
    40   19   21 am   BACKBONE|DICT|INTERRES
    41   21   22 1    
    42   21   55 1    
    43   22   27 ar   
    44   22   23 ar   
    45   23   24 ar   
    46   23   56 1    
    47   24   25 ar   
    48   24   57 1    
    49   25   26 ar   
    50   25   58 1    
    51   26   27 ar   
    52   26   59 1    
    53   27   60 1    
    54   28   29 am   BACKBONE|DICT|INTERRES
    55   28   61 1    
    56   29   30 2    
    57   29   31 1    
    58   31   36 ar   
    59   31   32 ar   
    60   32   33 ar   
    61   32   62 1    
    62   33   34 ar   
    63   33   63 1    
    64   34   35 ar   
    65   34   37 1    
    66   35   36 ar   
    67   35   64 1    
    68   36   65 1    
@<TRIPOS>SUBSTRUCTURE
     1 UNK         1 GROUP             0       ****    0 ROOT    
