@<TRIPOS>MOLECULE
ZINC35476906_4069
60   64    1
SMALL
USER_CHARGES


@<TRIPOS>ATOM
      1 C1         -3.3693   46.8845   25.6935 C.3       1 UNK         0.0000 
      2 C2         -2.2392   47.5834   24.9681 C.ar      1 UNK         0.0000 
      3 C3         -1.9769   47.4196   23.6058 C.ar      1 UNK         0.0000 
      4 C4         -0.8955   48.0969   23.0347 C.ar      1 UNK         0.0000 
      5 C5         -0.0857   48.9151   23.8303 C.ar      1 UNK         0.0000 
      6 C6         -0.4157   49.1026   25.1746 C.ar      1 UNK         0.0000 
      7 N7         -1.4607   48.4150   25.6817 N.pl3     1 UNK         0.0000 
      8 N8          0.2569   50.0790   25.9671 N.pl3     1 UNK         0.0000 
      9 C9         -0.5388   50.8834   26.9215 C.3       1 UNK         0.0000 
     10 H10        -0.9152   50.1124   27.5855 H         1 UNK         0.0000 
     11 C11         0.2882   51.8151   27.8066 C.ar      1 UNK         0.0000 
     12 C12        -0.0240   51.8942   29.1807 C.ar      1 UNK         0.0000 
     13 C13         0.6709   52.7590   30.0359 C.ar      1 UNK         0.0000 
     14 C14         1.6681   53.5480   29.4743 C.ar      1 UNK         0.0000 
     15 C15         1.9792   53.4801   28.1457 C.ar      1 UNK         0.0000 
     16 C16         1.3181   52.6176   27.2788 C.ar      1 UNK         0.0000 
     17 O17         2.9980   54.3383   27.8783 O.3       1 UNK         0.0000 
     18 C18         3.1541   55.1092   29.0395 C.3       1 UNK         0.0000 
     19 O19         2.4879   54.4463   30.0817 O.3       1 UNK         0.0000 
     20 C20        -1.7097   51.6254   26.2524 C.2       1 UNK         0.0000 
     21 C21        -3.0229   51.7054   26.7842 C.2       1 UNK         0.0000 
     22 C22        -3.9244   52.3681   25.9369 C.2       1 UNK         0.0000 
     23 S23        -3.1520   52.8966   24.4811 S.3       1 UNK         0.0000 
     24 C24        -1.6299   52.2687   25.0136 C.2       1 UNK         0.0000 
     25 N25        -0.4736   52.4514   24.2705 N.am      1 UNK         0.0000 
     26 C26        -0.3459   52.2864   22.9380 C.2       1 UNK         0.0000 
     27 O27        -1.2620   51.9422   22.1865 O.2       1 UNK         0.0000 
     28 C28         1.0520   52.4966   22.4037 C.ar      1 UNK         0.0000 
     29 C29         1.9340   53.4116   23.0059 C.ar      1 UNK         0.0000 
     30 C30         3.2158   53.5945   22.4926 C.ar      1 UNK         0.0000 
     31 C31         3.6265   52.8641   21.3800 C.ar      1 UNK         0.0000 
     32 C32         2.7631   51.9568   20.7698 C.ar      1 UNK         0.0000 
     33 C33         1.4780   51.7794   21.2762 C.ar      1 UNK         0.0000 
     34 C34        -5.4006   52.6395   26.1276 C.3       1 UNK         0.0000 
     35 C35        -3.4495   51.0629   28.0896 C.3       1 UNK         0.0000 
     36 H36        -3.9510   46.2498   25.0236 H         1 UNK         0.0000 
     37 H37        -2.9760   46.2687   26.5033 H         1 UNK         0.0000 
     38 H38        -4.0465   47.6179   26.1325 H         1 UNK         0.0000 
     39 H39        -2.5988   46.7840   22.9936 H         1 UNK         0.0000 
     40 H40        -0.6839   47.9897   21.9813 H         1 UNK         0.0000 
     41 H41         0.7412   49.4479   23.3851 H         1 UNK         0.0000 
     42 H42         1.1040   50.4868   25.6060 H         1 UNK         0.0000 
     43 H43        -0.8104   51.2769   29.5951 H         1 UNK         0.0000 
     44 H44         0.4282   52.8023   31.0890 H         1 UNK         0.0000 
     45 H45         1.5893   52.5788   26.2361 H         1 UNK         0.0000 
     46 H46         2.6937   56.0877   28.8855 H         1 UNK         0.0000 
     47 H47         4.2103   55.2410   29.2754 H         1 UNK         0.0000 
     48 H48         0.3841   52.4702   24.7959 H         1 UNK         0.0000 
     49 H49         1.6348   54.0025   23.8612 H         1 UNK         0.0000 
     50 H50         3.8883   54.3029   22.9549 H         1 UNK         0.0000 
     51 H51         4.6192   53.0071   20.9780 H         1 UNK         0.0000 
     52 H52         3.0909   51.4027   19.9009 H         1 UNK         0.0000 
     53 H53         0.8173   51.0779   20.7837 H         1 UNK         0.0000 
     54 H54        -5.6939   52.6327   27.1796 H         1 UNK         0.0000 
     55 H55        -5.6908   53.6152   25.7282 H         1 UNK         0.0000 
     56 H56        -6.0126   51.8912   25.6179 H         1 UNK         0.0000 
     57 H57        -2.9733   50.0969   28.2487 H         1 UNK         0.0000 
     58 H58        -3.1837   51.6795   28.9447 H         1 UNK         0.0000 
     59 H59        -4.5181   50.8552   28.1335 H         1 UNK         0.0000 
     60 H60        -1.6325   48.4967   26.6864 H         1 UNK         0.0000 
@<TRIPOS>BOND
     1    1    2 1    
     2    1   36 1    
     3    1   37 1    
     4    1   38 1    
     5    2    7 ar   
     6    2    3 ar   
     7    3    4 ar   
     8    3   39 1    
     9    4    5 ar   
    10    4   40 1    
    11    5    6 ar   
    12    5   41 1    
    13    6    7 ar   
    14    6    8 1    
    15    7   60 1    
    16    8    9 1    
    17    8   42 1    
    18    9   10 1    
    19    9   11 1    
    20    9   20 1    
    21   11   16 ar   
    22   11   12 ar   
    23   12   13 ar   
    24   12   43 1    
    25   13   14 ar   
    26   13   44 1    
    27   14   19 1    
    28   14   15 ar   
    29   15   16 ar   
    30   15   17 1    
    31   16   45 1    
    32   17   18 1    
    33   18   19 1    
    34   18   46 1    
    35   18   47 1    
    36   20   24 2    
    37   20   21 1    
    38   21   22 2    
    39   21   35 1    
    40   22   23 1    
    41   22   34 1    
    42   23   24 1    
    43   24   25 am   BACKBONE|DICT|INTERRES
    44   25   26 am   BACKBONE|DICT|INTERRES
    45   25   48 1    
    46   26   27 2    
    47   26   28 1    
    48   28   33 ar   
    49   28   29 ar   
    50   29   30 ar   
    51   29   49 1    
    52   30   31 ar   
    53   30   50 1    
    54   31   32 ar   
    55   31   51 1    
    56   32   33 ar   
    57   32   52 1    
    58   33   53 1    
    59   34   54 1    
    60   34   55 1    
    61   34   56 1    
    62   35   57 1    
    63   35   58 1    
    64   35   59 1    
@<TRIPOS>SUBSTRUCTURE
     1 UNK         1 GROUP             0       ****    0 ROOT    
