@<TRIPOS>MOLECULE
ZINC40820321_4796
42   45    1
SMALL
USER_CHARGES


@<TRIPOS>ATOM
      1 C1         -1.6603   51.1802   24.6826 C.ar      1 UNK         0.0000 
      2 C2         -1.4087   50.4931   23.5003 C.ar      1 UNK         0.0000 
      3 C3         -0.3894   49.5491   23.4623 C.ar      1 UNK         0.0000 
      4 C4          0.3451   49.2597   24.6077 C.ar      1 UNK         0.0000 
      5 C5          0.1032   49.9527   25.7893 C.ar      1 UNK         0.0000 
      6 C6         -0.8755   50.9515   25.8245 C.ar      1 UNK         0.0000 
      7 C7         -1.1489   51.7665   27.0677 C.2       1 UNK         0.0000 
      8 O8         -2.3294   52.0512   27.2817 O.2       1 UNK         0.0000 
      9 N9         -0.1408   52.1985   27.8902 N.am      1 UNK         0.0000 
     10 C10        -0.4953   52.7601   29.2038 C.3       1 UNK         0.0000 
     11 C11         0.7690   52.6669   30.0262 C.3       1 UNK         0.0000 
     12 C12         1.8559   52.8236   28.9983 C.3       1 UNK         0.0000 
     13 C13         1.3342   52.1827   27.6941 C.3       1 UNK         0.0000 
     14 H14         1.7186   51.1639   27.6824 H         1 UNK         0.0000 
     15 C15         1.9034   52.9037   26.4549 C.ar      1 UNK         0.0000 
     16 C16         1.3017   53.1382   25.2242 C.ar      1 UNK         0.0000 
     17 N17         2.1624   53.7259   24.3437 N.pl3     1 UNK         0.0000 
     18 H18         1.9128   53.9411   23.3887 H         1 UNK         0.0000 
     19 C19         3.3520   53.9698   24.9737 C.ar      1 UNK         0.0000 
     20 C20         3.2171   53.5104   26.3215 C.ar      1 UNK         0.0000 
     21 C21         4.3178   53.6969   27.1844 C.ar      1 UNK         0.0000 
     22 C22         5.4588   54.3425   26.7186 C.ar      1 UNK         0.0000 
     23 C23         5.5436   54.7697   25.4000 C.ar      1 UNK         0.0000 
     24 C24         4.5178   54.5545   24.4873 C.ar      1 UNK         0.0000 
     25 Cl25        6.9345   55.6228   24.8816 Cl        1 UNK         0.0000 
     26 N26        -0.0978   48.8984   22.2675 N.pl3     1 UNK         0.0000 
     27 H27        -2.4490   51.9199   24.6951 H         1 UNK         0.0000 
     28 H28        -1.9972   50.7046   22.6200 H         1 UNK         0.0000 
     29 H29         1.1042   48.4968   24.5944 H         1 UNK         0.0000 
     30 H30         0.6656   49.6852   26.6705 H         1 UNK         0.0000 
     31 H31        -0.7622   53.8110   29.0892 H         1 UNK         0.0000 
     32 H32        -1.2970   52.2039   29.6936 H         1 UNK         0.0000 
     33 H33         0.8034   53.4145   30.8198 H         1 UNK         0.0000 
     34 H34         0.8321   51.6967   30.5084 H         1 UNK         0.0000 
     35 H35         2.0595   53.8881   28.8660 H         1 UNK         0.0000 
     36 H36         2.7699   52.3432   29.3462 H         1 UNK         0.0000 
     37 H37         0.3124   52.9159   24.8656 H         1 UNK         0.0000 
     38 H38         4.3008   53.3562   28.2049 H         1 UNK         0.0000 
     39 H39         6.2869   54.5149   27.3919 H         1 UNK         0.0000 
     40 H40         4.6017   54.8926   23.4650 H         1 UNK         0.0000 
     41 H41        -0.5618   49.2105   21.4279 H         1 UNK         0.0000 
     42 H42         0.8052   48.4527   22.2019 H         1 UNK         0.0000 
@<TRIPOS>BOND
     1    1    6 ar   
     2    1    2 ar   
     3    1   27 1    
     4    2    3 ar   
     5    2   28 1    
     6    3    4 ar   
     7    3   26 1    
     8    4    5 ar   
     9    4   29 1    
    10    5    6 ar   
    11    5   30 1    
    12    6    7 1    
    13    7    8 2    
    14    7    9 am   BACKBONE|DICT|INTERRES
    15    9   13 1    
    16    9   10 1    
    17   10   11 1    
    18   10   31 1    
    19   10   32 1    
    20   11   12 1    
    21   11   33 1    
    22   11   34 1    
    23   12   13 1    
    24   12   35 1    
    25   12   36 1    
    26   13   14 1    
    27   13   15 1    
    28   15   20 ar   
    29   15   16 ar   
    30   16   17 ar   
    31   16   37 1    
    32   17   18 1    
    33   17   19 ar   
    34   19   24 ar   
    35   19   20 ar   
    36   20   21 ar   
    37   21   22 ar   
    38   21   38 1    
    39   22   23 ar   
    40   22   39 1    
    41   23   24 ar   
    42   23   25 1    
    43   24   40 1    
    44   26   41 1    
    45   26   42 1    
@<TRIPOS>SUBSTRUCTURE
     1 UNK         1 GROUP             0       ****    0 ROOT    
