@<TRIPOS>MOLECULE
ZINC34975277_4238
64   66    1
SMALL
USER_CHARGES


@<TRIPOS>ATOM
      1 C1          1.5335   53.1958   30.0335 C.3       1 UNK         0.0000 
      2 C2          2.6877   53.4423   29.0775 C.ar      1 UNK         0.0000 
      3 C3          2.5184   54.3055   27.9958 C.ar      1 UNK         0.0000 
      4 C4          3.5660   54.5220   27.1031 C.ar      1 UNK         0.0000 
      5 C5          4.7957   53.8680   27.2624 C.ar      1 UNK         0.0000 
      6 C6          4.9543   53.0229   28.3714 C.ar      1 UNK         0.0000 
      7 C7          3.9116   52.8037   29.2686 C.ar      1 UNK         0.0000 
      8 C8          5.9903   54.0997   26.3468 C.2       1 UNK         0.0000 
      9 O9          7.1037   54.0963   26.8817 O.2       1 UNK         0.0000 
     10 N10         5.8600   54.2827   24.9913 N.am      1 UNK         0.0000 
     11 C11         4.5624   54.2936   24.2728 C.3       1 UNK         0.0000 
     12 C12         4.7576   53.9020   22.7841 C.3       1 UNK         0.0000 
     13 N13         5.7671   54.7804   22.1444 N.am      1 UNK         0.0000 
     14 C14         6.7637   55.4329   23.0222 C.3       1 UNK         0.0000 
     15 C15         7.1044   54.4974   24.2013 C.3       1 UNK         0.0000 
     16 H16         7.8369   55.0151   24.8219 H         1 UNK         0.0000 
     17 C17         7.7836   53.1950   23.7143 C.3       1 UNK         0.0000 
     18 C18         5.7614   55.1292   20.8224 C.2       1 UNK         0.0000 
     19 O19         6.4536   56.0689   20.4193 O.2       1 UNK         0.0000 
     20 C20         4.8695   54.3765   19.7702 C.3       1 UNK         0.0000 
     21 H21         3.9054   54.8851   19.8325 H         1 UNK         0.0000 
     22 C22         5.3678   54.5200   18.2854 C.3       1 UNK         0.0000 
     23 C23         5.1323   55.9172   17.6728 C.3       1 UNK         0.0000 
     24 C24         6.8092   54.0266   18.0341 C.3       1 UNK         0.0000 
     25 N25         4.6293   52.9648   20.0893 N.am      1 UNK         0.0000 
     26 C26         3.5043   52.2924   19.8118 C.2       1 UNK         0.0000 
     27 O27         2.6451   52.6779   19.0185 O.2       1 UNK         0.0000 
     28 N28         3.4188   51.1759   20.5534 N.am      1 UNK         0.0000 
     29 C29         2.3282   50.3043   20.5302 C.ar      1 UNK         0.0000 
     30 C30         2.0264   49.5845   19.3667 C.ar      1 UNK         0.0000 
     31 C31         0.9305   48.7216   19.3463 C.ar      1 UNK         0.0000 
     32 C32         0.1312   48.5825   20.4813 C.ar      1 UNK         0.0000 
     33 C33         0.4329   49.2968   21.6420 C.ar      1 UNK         0.0000 
     34 C34         1.5336   50.1543   21.6753 C.ar      1 UNK         0.0000 
     35 Br35        1.9045   51.1184   23.2809 Br        1 UNK         0.0000 
     36 H36         1.7153   52.3417   30.6881 H         1 UNK         0.0000 
     37 H37         1.3416   54.0804   30.6425 H         1 UNK         0.0000 
     38 H38         0.6231   52.9818   29.4709 H         1 UNK         0.0000 
     39 H39         1.5789   54.8193   27.8522 H         1 UNK         0.0000 
     40 H40         3.4123   55.2418   26.3169 H         1 UNK         0.0000 
     41 H41         5.8943   52.5124   28.5285 H         1 UNK         0.0000 
     42 H42         4.0615   52.1368   30.1041 H         1 UNK         0.0000 
     43 H43         4.1431   55.2966   24.3028 H         1 UNK         0.0000 
     44 H44         3.8745   53.5602   24.6963 H         1 UNK         0.0000 
     45 H45         3.7877   54.0197   22.2984 H         1 UNK         0.0000 
     46 H46         5.0772   52.8634   22.7235 H         1 UNK         0.0000 
     47 H47         7.6987   55.6316   22.4931 H         1 UNK         0.0000 
     48 H48         6.3534   56.3489   23.4450 H         1 UNK         0.0000 
     49 H49         8.7689   53.2967   23.2817 H         1 UNK         0.0000 
     50 H50         7.9203   52.4967   24.5371 H         1 UNK         0.0000 
     51 H51         7.1969   52.7099   22.9369 H         1 UNK         0.0000 
     52 H52         4.7357   53.8643   17.6838 H         1 UNK         0.0000 
     53 H53         5.7686   56.6848   18.1114 H         1 UNK         0.0000 
     54 H54         5.3369   55.9064   16.6021 H         1 UNK         0.0000 
     55 H55         4.0960   56.2316   17.7998 H         1 UNK         0.0000 
     56 H56         7.5529   54.6182   18.5675 H         1 UNK         0.0000 
     57 H57         6.9230   52.9870   18.3433 H         1 UNK         0.0000 
     58 H58         7.0578   54.0724   16.9729 H         1 UNK         0.0000 
     59 H59         5.4014   52.4774   20.5156 H         1 UNK         0.0000 
     60 H60         4.0858   51.0386   21.2949 H         1 UNK         0.0000 
     61 H61         2.6418   49.6963   18.4821 H         1 UNK         0.0000 
     62 H62         0.7015   48.1684   18.4470 H         1 UNK         0.0000 
     63 H63        -0.7216   47.9199   20.4613 H         1 UNK         0.0000 
     64 H64        -0.1876   49.1861   22.5203 H         1 UNK         0.0000 
@<TRIPOS>BOND
     1    1    2 1    
     2    1   36 1    
     3    1   37 1    
     4    1   38 1    
     5    2    7 ar   
     6    2    3 ar   
     7    3    4 ar   
     8    3   39 1    
     9    4    5 ar   
    10    4   40 1    
    11    5    6 ar   
    12    5    8 1    
    13    6    7 ar   
    14    6   41 1    
    15    7   42 1    
    16    8    9 2    
    17    8   10 am   BACKBONE|DICT|INTERRES
    18   10   15 1    
    19   10   11 1    
    20   11   12 1    
    21   11   43 1    
    22   11   44 1    
    23   12   13 1    
    24   12   45 1    
    25   12   46 1    
    26   13   14 1    
    27   13   18 am   BACKBONE|DICT|INTERRES
    28   14   15 1    
    29   14   47 1    
    30   14   48 1    
    31   15   16 1    
    32   15   17 1    
    33   17   49 1    
    34   17   50 1    
    35   17   51 1    
    36   18   19 2    
    37   18   20 1    
    38   20   21 1    
    39   20   22 1    
    40   20   25 1    
    41   22   23 1    
    42   22   24 1    
    43   22   52 1    
    44   23   53 1    
    45   23   54 1    
    46   23   55 1    
    47   24   56 1    
    48   24   57 1    
    49   24   58 1    
    50   25   26 am   BACKBONE|DICT|INTERRES
    51   25   59 1    
    52   26   27 2    
    53   26   28 am   BACKBONE|DICT|INTERRES
    54   28   29 1    
    55   28   60 1    
    56   29   34 ar   
    57   29   30 ar   
    58   30   31 ar   
    59   30   61 1    
    60   31   32 ar   
    61   31   62 1    
    62   32   33 ar   
    63   32   63 1    
    64   33   34 ar   
    65   33   64 1    
    66   34   35 1    
@<TRIPOS>SUBSTRUCTURE
     1 UNK         1 GROUP             0       ****    0 ROOT    
