@<TRIPOS>MOLECULE
ZINC39790134_3398
53   56    1
SMALL
USER_CHARGES


@<TRIPOS>ATOM
      1 C1          6.5120   58.8988   16.7268 C.3       1 UNK         0.0000 
      2 C2          5.3812   57.8904   16.7669 C.2       1 UNK         0.0000 
      3 C3          5.4137   56.5474   16.8654 C.2       1 UNK         0.0000 
      4 S4          3.8097   55.8343   16.7562 S.3       1 UNK         0.0000 
      5 C5          3.0919   57.4785   16.4817 C.2       1 UNK         0.0000 
      6 O6          1.9049   57.6973   16.2559 O.2       1 UNK         0.0000 
      7 N7          4.1320   58.3873   16.5766 N.am      1 UNK         0.0000 
      8 H8          3.9598   59.3833   16.4828 H         1 UNK         0.0000 
      9 S9          6.8789   55.5059   17.0480 S.o2      1 UNK         0.0000 
     10 O10         6.9050   54.5901   15.9028 O.2       1 UNK         0.0000 
     11 O11         8.0352   56.3623   17.3323 O.2       1 UNK         0.0000 
     12 N12         6.5906   54.5470   18.5073 N.pl3     1 UNK         0.0000 
     13 C13         5.9902   53.1960   18.4802 C.3       1 UNK         0.0000 
     14 C14         4.6689   53.1455   19.2808 C.3       1 UNK         0.0000 
     15 N15         4.8813   53.7611   20.6233 N.am      1 UNK         0.0000 
     16 C16         5.3985   55.1507   20.5743 C.3       1 UNK         0.0000 
     17 C17         6.7618   55.1248   19.8505 C.3       1 UNK         0.0000 
     18 C18         4.4765   53.0880   21.7443 C.2       1 UNK         0.0000 
     19 O19         4.0389   51.9379   21.6814 O.2       1 UNK         0.0000 
     20 C20         4.4501   53.7422   23.0451 C.2       1 UNK         0.0000 
     21 C21         5.4910   54.3261   23.6794 C.2       1 UNK         0.0000 
     22 N22         5.0444   54.8145   24.9033 N.pl3     1 UNK         0.0000 
     23 N23         3.7253   54.3157   25.2141 N.pl3     1 UNK         0.0000 
     24 C24         3.2772   53.6685   23.9970 C.3       1 UNK         0.0000 
     25 H25         3.0253   52.6285   24.2086 H         1 UNK         0.0000 
     26 Cl26        1.8728   54.4972   23.2783 Cl        1 UNK         0.0000 
     27 C27         3.4359   53.9882   26.5535 C.ar      1 UNK         0.0000 
     28 C28         2.2623   53.2857   26.8543 C.ar      1 UNK         0.0000 
     29 C29         1.9469   52.9527   28.1708 C.ar      1 UNK         0.0000 
     30 C30         2.7982   53.3360   29.2037 C.ar      1 UNK         0.0000 
     31 C31         3.9532   54.0607   28.9309 C.ar      1 UNK         0.0000 
     32 C32         4.2644   54.3905   27.6154 C.ar      1 UNK         0.0000 
     33 F33         2.5027   53.0062   30.4811 F         1 UNK         0.0000 
     34 C34         6.9490   54.5533   23.3727 C.3       1 UNK         0.0000 
     35 H35         6.6987   59.2948   17.7253 H         1 UNK         0.0000 
     36 H36         7.4379   58.4772   16.3402 H         1 UNK         0.0000 
     37 H37         6.2638   59.7423   16.0807 H         1 UNK         0.0000 
     38 H38         5.7948   52.9203   17.4431 H         1 UNK         0.0000 
     39 H39         6.7041   52.4842   18.8820 H         1 UNK         0.0000 
     40 H40         3.9174   53.7573   18.7809 H         1 UNK         0.0000 
     41 H41         4.2974   52.1186   19.3217 H         1 UNK         0.0000 
     42 H42         5.4129   55.6847   21.5214 H         1 UNK         0.0000 
     43 H43         4.7040   55.6945   19.9367 H         1 UNK         0.0000 
     44 H44         7.4931   54.5081   20.3654 H         1 UNK         0.0000 
     45 H45         7.1838   56.1267   19.7710 H         1 UNK         0.0000 
     46 H46         4.9770   55.8098   25.0586 H         1 UNK         0.0000 
     47 H47         1.5878   52.9843   26.0663 H         1 UNK         0.0000 
     48 H48         1.0470   52.3962   28.3901 H         1 UNK         0.0000 
     49 H49         4.6098   54.3635   29.7328 H         1 UNK         0.0000 
     50 H50         5.1697   54.9493   27.4344 H         1 UNK         0.0000 
     51 H51         7.1753   55.6147   23.2702 H         1 UNK         0.0000 
     52 H52         7.5268   54.1488   24.2030 H         1 UNK         0.0000 
     53 H53         7.2641   54.0330   22.4815 H         1 UNK         0.0000 
@<TRIPOS>BOND
     1    1    2 1    
     2    1   35 1    
     3    1   36 1    
     4    1   37 1    
     5    2    7 1    
     6    2    3 2    
     7    3    4 1    
     8    3    9 1    
     9    4    5 1    
    10    5    6 2    
    11    5    7 am   BACKBONE|DICT|INTERRES
    12    7    8 1    
    13    9   10 2    
    14    9   11 2    
    15    9   12 1    
    16   12   17 1    
    17   12   13 1    
    18   13   14 1    
    19   13   38 1    
    20   13   39 1    
    21   14   15 1    
    22   14   40 1    
    23   14   41 1    
    24   15   16 1    
    25   15   18 am   BACKBONE|DICT|INTERRES
    26   16   17 1    
    27   16   42 1    
    28   16   43 1    
    29   17   44 1    
    30   17   45 1    
    31   18   19 2    
    32   18   20 1    
    33   20   24 1    
    34   20   21 2    
    35   21   22 1    
    36   21   34 1    
    37   22   23 1    
    38   22   46 1    
    39   23   24 1    
    40   23   27 1    
    41   24   25 1    
    42   24   26 1    
    43   27   32 ar   
    44   27   28 ar   
    45   28   29 ar   
    46   28   47 1    
    47   29   30 ar   
    48   29   48 1    
    49   30   31 ar   
    50   30   33 1    
    51   31   32 ar   
    52   31   49 1    
    53   32   50 1    
    54   34   51 1    
    55   34   52 1    
    56   34   53 1    
@<TRIPOS>SUBSTRUCTURE
     1 UNK         1 GROUP             0       ****    0 ROOT    
