@<TRIPOS>MOLECULE
ZINC15891919_3218
43   45    1
SMALL
USER_CHARGES


@<TRIPOS>ATOM
      1 C1          1.9654   49.4736   22.1218 C.ar      1 UNK         0.0000 
      2 C2          2.6643   50.5007   21.4951 C.ar      1 UNK         0.0000 
      3 C3          2.2855   51.8346   21.6973 C.ar      1 UNK         0.0000 
      4 C4          1.1758   52.1259   22.4952 C.ar      1 UNK         0.0000 
      5 C5          0.4793   51.0912   23.1317 C.ar      1 UNK         0.0000 
      6 C6          0.8800   49.7649   22.9473 C.ar      1 UNK         0.0000 
      7 S7         -0.9160   51.4467   24.1943 S.o2      1 UNK         0.0000 
      8 O8         -1.1432   52.8967   24.1873 O.2       1 UNK         0.0000 
      9 O9         -1.9805   50.5127   23.8143 O.2       1 UNK         0.0000 
     10 N10        -0.4125   50.9745   25.8304 N.pl3     1 UNK         0.0000 
     11 C11         0.3048   51.8120   26.6942 C.ar      1 UNK         0.0000 
     12 C12         0.0821   51.6968   28.0681 C.ar      1 UNK         0.0000 
     13 C13         0.7822   52.5064   28.9606 C.ar      1 UNK         0.0000 
     14 C14         1.7138   53.4235   28.4752 C.ar      1 UNK         0.0000 
     15 C15         1.9513   53.5335   27.1079 C.ar      1 UNK         0.0000 
     16 C16         1.2472   52.7287   26.2174 C.ar      1 UNK         0.0000 
     17 Br17        2.6764   54.5367   29.6818 Br        1 UNK         0.0000 
     18 N18         2.9873   52.8923   21.1041 N.am      1 UNK         0.0000 
     19 C19         4.3321   53.0148   21.0902 C.2       1 UNK         0.0000 
     20 O20         5.1043   52.2546   21.6810 O.2       1 UNK         0.0000 
     21 C21         4.8703   54.1990   20.3346 C.ar      1 UNK         0.0000 
     22 C22         4.3047   54.5995   19.1174 C.ar      1 UNK         0.0000 
     23 C23         4.8173   55.7002   18.4369 C.ar      1 UNK         0.0000 
     24 C24         5.9041   56.4152   18.9578 C.ar      1 UNK         0.0000 
     25 C25         6.4844   55.9907   20.1600 C.ar      1 UNK         0.0000 
     26 C26         5.9687   54.8968   20.8442 C.ar      1 UNK         0.0000 
     27 N27         6.4241   57.6096   18.2535 N.pl3     1 UNK         0.0000 
     28 O28         7.1411   58.3830   18.8817 O.co2     1 UNK         0.0000 
     29 O29         6.1128   57.7767   17.0786 O.co2     1 UNK         0.0000 
     30 H30         2.2880   48.4547   21.9781 H         1 UNK         0.0000 
     31 H31         3.5042   50.2571   20.8600 H         1 UNK         0.0000 
     32 H32         0.8740   53.1536   22.6412 H         1 UNK         0.0000 
     33 H33         0.3553   48.9611   23.4444 H         1 UNK         0.0000 
     34 H34        -0.8721   50.1657   26.2258 H         1 UNK         0.0000 
     35 H35        -0.6344   50.9797   28.4475 H         1 UNK         0.0000 
     36 H36         0.6018   52.4201   30.0224 H         1 UNK         0.0000 
     37 H37         2.6799   54.2400   26.7386 H         1 UNK         0.0000 
     38 H38         1.4462   52.8213   25.1618 H         1 UNK         0.0000 
     39 H39         2.4389   53.6509   20.7175 H         1 UNK         0.0000 
     40 H40         3.4660   54.0669   18.6900 H         1 UNK         0.0000 
     41 H41         4.3568   56.0007   17.5060 H         1 UNK         0.0000 
     42 H42         7.3428   56.4974   20.5737 H         1 UNK         0.0000 
     43 H43         6.4316   54.5939   21.7739 H         1 UNK         0.0000 
@<TRIPOS>BOND
     1    1    6 ar   
     2    1    2 ar   
     3    1   30 1    
     4    2    3 ar   
     5    2   31 1    
     6    3    4 ar   
     7    3   18 1    
     8    4    5 ar   
     9    4   32 1    
    10    5    6 ar   
    11    5    7 1    
    12    6   33 1    
    13    7    8 2    
    14    7    9 2    
    15    7   10 1    
    16   10   11 1    
    17   10   34 1    
    18   11   16 ar   
    19   11   12 ar   
    20   12   13 ar   
    21   12   35 1    
    22   13   14 ar   
    23   13   36 1    
    24   14   15 ar   
    25   14   17 1    
    26   15   16 ar   
    27   15   37 1    
    28   16   38 1    
    29   18   19 am   BACKBONE|DICT|INTERRES
    30   18   39 1    
    31   19   20 2    
    32   19   21 1    
    33   21   26 ar   
    34   21   22 ar   
    35   22   23 ar   
    36   22   40 1    
    37   23   24 ar   
    38   23   41 1    
    39   24   25 ar   
    40   24   27 1    
    41   25   26 ar   
    42   25   42 1    
    43   26   43 1    
    44   27   28 2    
    45   27   29 1    
@<TRIPOS>SUBSTRUCTURE
     1 UNK         1 GROUP             0       ****    0 ROOT    
