@<TRIPOS>MOLECULE
ZINC63010001_3855
29   31    1
SMALL
USER_CHARGES


@<TRIPOS>ATOM
      1 C1          6.5390   54.8631   23.5700 C.ar      1 UNK         0.0000 
      2 C2          5.5227   54.4845   24.4482 C.ar      1 UNK         0.0000 
      3 C3          4.2598   54.0981   23.9671 C.ar      1 UNK         0.0000 
      4 C4          4.0491   54.0967   22.5784 C.ar      1 UNK         0.0000 
      5 C5          5.0625   54.4815   21.7006 C.ar      1 UNK         0.0000 
      6 C6          6.3073   54.8690   22.1969 C.ar      1 UNK         0.0000 
      7 Br7         4.7421   54.4945   19.8249 Br        1 UNK         0.0000 
      8 C8          3.1576   53.7285   24.9224 C.2       1 UNK         0.0000 
      9 N9          3.3473   53.6954   26.2306 N.2       1 UNK         0.0000 
     10 C10         2.1857   53.2971   26.6783 C.2       1 UNK         0.0000 
     11 O11         1.2700   53.1118   25.6940 O.3       1 UNK         0.0000 
     12 N12         1.9423   53.4168   24.5132 N.2       1 UNK         0.0000 
     13 C13         1.7976   53.0075   28.0899 C.ar      1 UNK         0.0000 
     14 C14         0.4510   52.9575   28.4659 C.ar      1 UNK         0.0000 
     15 C15         0.0950   52.7076   29.7925 C.ar      1 UNK         0.0000 
     16 C16         1.0781   52.4958   30.7563 C.ar      1 UNK         0.0000 
     17 C17         2.4273   52.4985   30.3791 C.ar      1 UNK         0.0000 
     18 C18         2.7811   52.7691   29.0571 C.ar      1 UNK         0.0000 
     19 F19         3.4038   52.2334   31.2808 F         1 UNK         0.0000 
     20 N20         0.7059   52.2595   32.0816 N.pl3     1 UNK         0.0000 
     21 H21         7.5044   55.1575   23.9557 H         1 UNK         0.0000 
     22 H22         5.7232   54.4961   25.5098 H         1 UNK         0.0000 
     23 H23         3.0880   53.8149   22.1691 H         1 UNK         0.0000 
     24 H24         7.0943   55.1632   21.5181 H         1 UNK         0.0000 
     25 H25        -0.3256   53.1192   27.7307 H         1 UNK         0.0000 
     26 H26        -0.9480   52.6759   30.0682 H         1 UNK         0.0000 
     27 H27         3.8273   52.7824   28.7831 H         1 UNK         0.0000 
     28 H28        -0.2778   52.0966   32.3447 H         1 UNK         0.0000 
     29 H29         1.4220   52.0989   32.7777 H         1 UNK         0.0000 
@<TRIPOS>BOND
     1    1    6 ar   
     2    1    2 ar   
     3    1   21 1    
     4    2    3 ar   
     5    2   22 1    
     6    3    4 ar   
     7    3    8 1    
     8    4    5 ar   
     9    4   23 1    
    10    5    6 ar   
    11    5    7 1    
    12    6   24 1    
    13    8   12 2    
    14    8    9 1    
    15    9   10 2    
    16   10   11 1    
    17   10   13 1    
    18   11   12 1    
    19   13   18 ar   
    20   13   14 ar   
    21   14   15 ar   
    22   14   25 1    
    23   15   16 ar   
    24   15   26 1    
    25   16   17 ar   
    26   16   20 1    
    27   17   18 ar   
    28   17   19 1    
    29   18   27 1    
    30   20   28 1    
    31   20   29 1    
@<TRIPOS>SUBSTRUCTURE
     1 UNK         1 GROUP             0       ****    0 ROOT    
