@<TRIPOS>MOLECULE
ZINC63104772_3797
35   38    1
SMALL
USER_CHARGES


@<TRIPOS>ATOM
      1 C1          5.5126   54.1902   20.5820 C.3       1 UNK         0.0000 
      2 C2          5.2914   54.1974   22.0892 C.ar      1 UNK         0.0000 
      3 C3          6.3045   54.7089   22.9103 C.ar      1 UNK         0.0000 
      4 C4          6.1031   54.7171   24.2957 C.ar      1 UNK         0.0000 
      5 C5          4.8947   54.2118   24.8374 C.ar      1 UNK         0.0000 
      6 C6          3.8696   53.7174   24.0244 C.ar      1 UNK         0.0000 
      7 C7          4.0982   53.6966   22.6438 C.ar      1 UNK         0.0000 
      8 C8          3.0150   53.0930   21.7592 C.3       1 UNK         0.0000 
      9 N9          5.0570   54.3170   26.2091 N.pl3     1 UNK         0.0000 
     10 C10         6.2993   54.8968   26.3844 C.ar      1 UNK         0.0000 
     11 N11         6.9412   55.1618   25.2803 N.2       1 UNK         0.0000 
     12 C12         4.2329   53.9229   27.2394 C.2       1 UNK         0.0000 
     13 N13         2.9267   53.9281   27.1819 N.2       1 UNK         0.0000 
     14 C14         2.3788   53.4502   28.3333 C.ar      1 UNK         0.0000 
     15 C15         1.0043   53.3445   28.5966 C.ar      1 UNK         0.0000 
     16 C16         0.6014   52.8664   29.8481 C.ar      1 UNK         0.0000 
     17 C17         1.5342   52.4970   30.8202 C.ar      1 UNK         0.0000 
     18 C18         2.9030   52.5499   30.5644 C.ar      1 UNK         0.0000 
     19 C19         3.3146   53.0458   29.3223 C.ar      1 UNK         0.0000 
     20 S20         4.9340   53.2969   28.7133 S.3       1 UNK         0.0000 
     21 N21         1.1044   52.0970   32.0816 N.pl3     1 UNK         0.0000 
     22 H22         5.3719   53.1844   20.1817 H         1 UNK         0.0000 
     23 H23         6.5156   54.5181   20.3058 H         1 UNK         0.0000 
     24 H24         4.7915   54.8440   20.0891 H         1 UNK         0.0000 
     25 H25         7.2266   55.0886   22.4943 H         1 UNK         0.0000 
     26 H26         2.9583   53.3211   24.4488 H         1 UNK         0.0000 
     27 H27         2.0531   53.0297   22.2710 H         1 UNK         0.0000 
     28 H28         2.8519   53.6966   20.8680 H         1 UNK         0.0000 
     29 H29         3.3092   52.0938   21.4311 H         1 UNK         0.0000 
     30 H30         6.6640   55.0998   27.3828 H         1 UNK         0.0000 
     31 H31         0.2749   53.6347   27.8562 H         1 UNK         0.0000 
     32 H32        -0.4540   52.7948   30.0709 H         1 UNK         0.0000 
     33 H33         3.6249   52.2584   31.3141 H         1 UNK         0.0000 
     34 H34         0.1054   52.0950   32.2977 H         1 UNK         0.0000 
     35 H35         1.7581   52.0967   32.8556 H         1 UNK         0.0000 
@<TRIPOS>BOND
     1    1    2 1    
     2    1   22 1    
     3    1   23 1    
     4    1   24 1    
     5    2    7 ar   
     6    2    3 ar   
     7    3    4 ar   
     8    3   25 1    
     9    4   11 ar   
    10    4    5 ar   
    11    5    6 ar   
    12    5    9 ar   
    13    6    7 ar   
    14    6   26 1    
    15    7    8 1    
    16    8   27 1    
    17    8   28 1    
    18    8   29 1    
    19    9   10 ar   
    20    9   12 1    
    21   10   11 ar   
    22   10   30 1    
    23   12   20 1    
    24   12   13 2    
    25   13   14 1    
    26   14   19 ar   
    27   14   15 ar   
    28   15   16 ar   
    29   15   31 1    
    30   16   17 ar   
    31   16   32 1    
    32   17   18 ar   
    33   17   21 1    
    34   18   19 ar   
    35   18   33 1    
    36   19   20 1    
    37   21   34 1    
    38   21   35 1    
@<TRIPOS>SUBSTRUCTURE
     1 UNK         1 GROUP             0       ****    0 ROOT    
