ZINC09250233_6088
                    3D
 Schrodinger Suite 2024-2.
 51 54  0  0  1  0            999 V2000
    3.7756   53.5470   18.5721 C   0  0  0  0  0  0
    4.7187   54.3155   19.4948 C   0  0  0  0  0  0
    5.3712   55.4393   18.9832 C   0  0  0  0  0  0
    6.2546   56.1418   19.7979 C   0  0  0  0  0  0
    6.5288   55.7723   21.0747 N   0  0  0  0  0  0
    5.9077   54.6703   21.5763 C   0  0  0  0  0  0
    4.9786   53.9152   20.8245 C   0  0  0  0  0  0
    4.2728   52.7315   21.4281 C   0  0  0  0  0  0
    4.8883   51.6978   21.6800 O   0  0  0  0  0  0
    2.9718   52.9634   21.6905 N   0  0  0  0  0  0
    2.0686   52.1478   22.3866 C   0  0  0  0  0  0
    2.1732   50.7506   22.4815 C   0  0  0  0  0  0
    1.2334   50.0275   23.2164 C   0  0  0  0  0  0
    0.1759   50.6866   23.8437 C   0  0  0  0  0  0
    0.0552   52.0722   23.7310 C   0  0  0  0  0  0
    1.0004   52.7979   23.0076 C   0  0  0  0  0  0
   -1.2633   52.8950   24.4814 Cl  0  0  0  0  0  0
    6.4483   54.1761   23.2061 S   0  0  0  0  0  0
    5.5073   55.1809   24.3802 C   0  0  0  0  0  0
    5.4079   54.5776   25.7765 C   0  0  0  0  0  0
    6.4384   54.3713   26.4186 O   0  0  0  0  0  0
    4.1456   54.3591   26.2034 N   0  0  0  0  0  0
    3.7204   53.8593   27.4169 C   0  0  0  0  0  0
    2.4439   53.7885   27.6642 N   0  0  0  0  0  0
    2.2063   53.2512   28.8901 C   0  0  0  0  0  0
    0.9347   53.0642   29.4534 C   0  0  0  0  0  0
    0.8496   52.4967   30.7261 C   0  0  0  0  0  0
    1.9946   52.0975   31.4167 C   0  0  0  0  0  0
    3.2719   52.2807   30.8825 C   0  0  0  0  0  0
    3.3664   52.8735   29.6190 C   0  0  0  0  0  0
    4.7912   53.2885   28.6841 S   0  0  0  0  0  0
    6.9629   57.3805   19.2837 C   0  0  0  0  0  0
    2.7480   53.5989   18.9359 H   0  0  0  0  0  0
    3.7959   53.9263   17.5484 H   0  0  0  0  0  0
    4.0638   52.4946   18.5331 H   0  0  0  0  0  0
    5.1911   55.7637   17.9683 H   0  0  0  0  0  0
    2.6183   53.8705   21.4201 H   0  0  0  0  0  0
    2.9740   50.2133   21.9959 H   0  0  0  0  0  0
    1.3292   48.9548   23.3018 H   0  0  0  0  0  0
   -0.5500   50.1213   24.4123 H   0  0  0  0  0  0
    0.9048   53.8717   22.9425 H   0  0  0  0  0  0
    4.5075   55.2966   23.9637 H   0  0  0  0  0  0
    5.9694   56.1630   24.4708 H   0  0  0  0  0  0
    3.3965   54.5946   25.5730 H   0  0  0  0  0  0
    0.0430   53.3490   28.9164 H   0  0  0  0  0  0
   -0.1198   52.3446   31.1855 H   0  0  0  0  0  0
    1.8838   51.6665   32.4034 H   0  0  0  0  0  0
    4.1562   51.9997   31.4389 H   0  0  0  0  0  0
    6.6723   57.6092   18.2574 H   0  0  0  0  0  0
    6.7042   58.2480   19.8915 H   0  0  0  0  0  0
    8.0444   57.2375   19.2888 H   0  0  0  0  0  0
  1  2  1  0  0  0
  1 33  1  0  0  0
  1 34  1  0  0  0
  1 35  1  0  0  0
  2  7  2  0  0  0
  2  3  1  0  0  0
  3  4  2  0  0  0
  3 36  1  0  0  0
  4  5  1  0  0  0
  4 32  1  0  0  0
  5  6  2  0  0  0
  6  7  1  0  0  0
  6 18  1  0  0  0
  7  8  1  0  0  0
  8  9  2  0  0  0
  8 10  1  0  0  0
 10 11  1  0  0  0
 10 37  1  0  0  0
 11 16  2  0  0  0
 11 12  1  0  0  0
 12 13  2  0  0  0
 12 38  1  0  0  0
 13 14  1  0  0  0
 13 39  1  0  0  0
 14 15  2  0  0  0
 14 40  1  0  0  0
 15 16  1  0  0  0
 15 17  1  0  0  0
 16 41  1  0  0  0
 18 19  1  0  0  0
 19 20  1  0  0  0
 19 42  1  0  0  0
 19 43  1  0  0  0
 20 21  2  0  0  0
 20 22  1  0  0  0
 22 23  1  0  0  0
 22 44  1  0  0  0
 23 31  1  0  0  0
 23 24  2  0  0  0
 24 25  1  0  0  0
 25 30  2  0  0  0
 25 26  1  0  0  0
 26 27  2  0  0  0
 26 45  1  0  0  0
 27 28  1  0  0  0
 27 46  1  0  0  0
 28 29  2  0  0  0
 28 47  1  0  0  0
 29 30  1  0  0  0
 29 48  1  0  0  0
 30 31  1  0  0  0
 32 49  1  0  0  0
 32 50  1  0  0  0
 32 51  1  0  0  0
M  END
> <i_i_glide_confnum>
49

> <i_i_glide_lignum>
6089

> <i_i_glide_posenum>
140

> <i_i_glide_rotatable_bonds>
8

> <i_m_Source_File_Index>
1104

> <b_m_subgroup_collapsed>
0

> <r_i_docking_score>
-6.32373

> <r_i_glide_ecoul>
-6.18074

> <r_i_glide_eff_state_penalty>
0

> <r_i_glide_einternal>
5.56087

> <r_i_glide_emodel>
-77.554

> <r_i_glide_energy>
-59.2849

> <r_i_glide_erotb>
0.609027

> <r_i_glide_esite>
0

> <r_i_glide_evdw>
-53.1042

> <r_i_glide_gscore>
-6.32373

> <r_i_glide_hbond>
-0.146142

> <r_i_glide_ligand_efficiency>
-0.197617

> <r_i_glide_ligand_efficiency_ln>
-1.41606

> <r_i_glide_ligand_efficiency_sa>
-0.627394

> <r_i_glide_lipo>
-2.56045

> <r_i_glide_metal>
0

> <r_i_glide_rewards>
-0.643851

> <s_i_glide_gridfile>
wee1_glide-grid

> <s_m_Source_File>
wee1_decoys_glide_SP.sdf

> <s_m_Source_Path>
/Users/zhangxujun/Desktop

> <s_m_entry_id>
1379

> <s_m_entry_name>
wee1_decoys_glide_SP.1104

> <s_m_subgroup_title>
wee1_decoys_glide_SP

> <s_m_subgroupid>
wee1_decoys_glide_SP


$$$$
