@<TRIPOS>MOLECULE
ZINC22505006_5990
63   67    1
SMALL
USER_CHARGES


@<TRIPOS>ATOM
      1 C1          5.0461   57.4725   16.1000 C.ar      1 UNK         0.0000 
      2 C2          5.7638   58.2527   17.0021 C.ar      1 UNK         0.0000 
      3 C3          6.7948   57.6822   17.7427 C.ar      1 UNK         0.0000 
      4 C4          7.1167   56.3288   17.5754 C.ar      1 UNK         0.0000 
      5 C5          6.3849   55.5534   16.6681 C.ar      1 UNK         0.0000 
      6 C6          5.3519   56.1247   15.9296 C.ar      1 UNK         0.0000 
      7 C7          8.2229   55.6663   18.4159 C.3       1 UNK         0.0000 
      8 C8          9.6101   56.0154   17.8766 C.ar      1 UNK         0.0000 
      9 C9         10.3609   55.0417   17.2077 C.ar      1 UNK         0.0000 
     10 C10        11.6246   55.3516   16.7113 C.ar      1 UNK         0.0000 
     11 C11        12.1393   56.6344   16.8839 C.ar      1 UNK         0.0000 
     12 C12        11.4054   57.6090   17.5570 C.ar      1 UNK         0.0000 
     13 C13        10.1440   57.2981   18.0579 C.ar      1 UNK         0.0000 
     14 N14         8.1455   55.8723   19.8745 N.am      1 UNK         0.0000 
     15 C15         7.0451   55.6967   20.6258 C.2       1 UNK         0.0000 
     16 O16         5.9044   55.8179   20.1841 O.2       1 UNK         0.0000 
     17 N17         7.3272   55.3395   21.8944 N.am      1 UNK         0.0000 
     18 C18         6.3964   54.8967   22.8529 C.ar      1 UNK         0.0000 
     19 C19         5.2380   54.1938   22.5071 C.ar      1 UNK         0.0000 
     20 C20         4.3501   53.7922   23.4912 C.ar      1 UNK         0.0000 
     21 C21         4.6031   54.0447   24.8430 C.ar      1 UNK         0.0000 
     22 C22         5.8058   54.6904   25.2152 C.ar      1 UNK         0.0000 
     23 C23         6.6669   55.1344   24.2034 C.ar      1 UNK         0.0000 
     24 C24         6.2061   54.8322   26.6808 C.3       1 UNK         0.0000 
     25 C25         5.0464   54.4898   27.6283 C.3       1 UNK         0.0000 
     26 C26         4.2946   53.2535   27.1360 C.3       1 UNK         0.0000 
     27 N27         3.7184   53.4822   25.8016 N.pl3     1 UNK         0.0000 
     28 S28         1.9440   53.6954   25.6792 S.o2      1 UNK         0.0000 
     29 O29         1.5045   54.0965   27.0216 O.2       1 UNK         0.0000 
     30 O30         1.6718   54.4967   24.4814 O.2       1 UNK         0.0000 
     31 C31         1.2070   52.0968   25.3385 C.ar      1 UNK         0.0000 
     32 C32         0.7044   51.3051   26.3765 C.ar      1 UNK         0.0000 
     33 C33         0.2134   50.0324   26.0917 C.ar      1 UNK         0.0000 
     34 C34         0.2084   49.5614   24.7823 C.ar      1 UNK         0.0000 
     35 C35         0.6826   50.3563   23.7431 C.ar      1 UNK         0.0000 
     36 C36         1.1802   51.6259   24.0210 C.ar      1 UNK         0.0000 
     37 H37         4.2442   57.9208   15.5317 H         1 UNK         0.0000 
     38 H38         5.5152   59.2969   17.1297 H         1 UNK         0.0000 
     39 H39         7.3298   58.2926   18.4542 H         1 UNK         0.0000 
     40 H40         6.6083   54.5043   16.5364 H         1 UNK         0.0000 
     41 H41         4.7876   55.5234   15.2323 H         1 UNK         0.0000 
     42 H42         8.1019   54.5861   18.3002 H         1 UNK         0.0000 
     43 H43         9.9705   54.0438   17.0670 H         1 UNK         0.0000 
     44 H44        12.2022   54.5992   16.1946 H         1 UNK         0.0000 
     45 H45        13.1195   56.8736   16.4981 H         1 UNK         0.0000 
     46 H46        11.8153   58.5985   17.6939 H         1 UNK         0.0000 
     47 H47         9.5858   58.0549   18.5882 H         1 UNK         0.0000 
     48 H48         9.0389   55.8642   20.3432 H         1 UNK         0.0000 
     49 H49         8.2749   55.4463   22.2296 H         1 UNK         0.0000 
     50 H50         5.0074   53.9525   21.4798 H         1 UNK         0.0000 
     51 H51         3.4723   53.2486   23.1856 H         1 UNK         0.0000 
     52 H52         7.5687   55.6558   24.4813 H         1 UNK         0.0000 
     53 H53         7.0207   54.1307   26.8682 H         1 UNK         0.0000 
     54 H54         6.6088   55.8201   26.8958 H         1 UNK         0.0000 
     55 H55         4.3264   55.2976   27.6951 H         1 UNK         0.0000 
     56 H56         5.4182   54.3367   28.6423 H         1 UNK         0.0000 
     57 H57         3.5625   52.8955   27.8603 H         1 UNK         0.0000 
     58 H58         5.0228   52.4583   27.0049 H         1 UNK         0.0000 
     59 H59         0.7196   51.6547   27.3988 H         1 UNK         0.0000 
     60 H60        -0.1527   49.3961   26.8822 H         1 UNK         0.0000 
     61 H61        -0.1665   48.5693   24.5769 H         1 UNK         0.0000 
     62 H62         0.6715   49.9869   22.7280 H         1 UNK         0.0000 
     63 H63         1.5451   52.2336   23.2071 H         1 UNK         0.0000 
@<TRIPOS>BOND
     1    1    6 ar   
     2    1    2 ar   
     3    1   37 1    
     4    2    3 ar   
     5    2   38 1    
     6    3    4 ar   
     7    3   39 1    
     8    4    5 ar   
     9    4    7 1    
    10    5    6 ar   
    11    5   40 1    
    12    6   41 1    
    13    7    8 1    
    14    7   14 1    
    15    7   42 1    
    16    8   13 ar   
    17    8    9 ar   
    18    9   10 ar   
    19    9   43 1    
    20   10   11 ar   
    21   10   44 1    
    22   11   12 ar   
    23   11   45 1    
    24   12   13 ar   
    25   12   46 1    
    26   13   47 1    
    27   14   15 am   BACKBONE|DICT|INTERRES
    28   14   48 1    
    29   15   16 2    
    30   15   17 am   BACKBONE|DICT|INTERRES
    31   17   18 1    
    32   17   49 1    
    33   18   23 ar   
    34   18   19 ar   
    35   19   20 ar   
    36   19   50 1    
    37   20   21 ar   
    38   20   51 1    
    39   21   27 1    
    40   21   22 ar   
    41   22   23 ar   
    42   22   24 1    
    43   23   52 1    
    44   24   25 1    
    45   24   53 1    
    46   24   54 1    
    47   25   26 1    
    48   25   55 1    
    49   25   56 1    
    50   26   27 1    
    51   26   57 1    
    52   26   58 1    
    53   27   28 1    
    54   28   29 2    
    55   28   30 2    
    56   28   31 1    
    57   31   36 ar   
    58   31   32 ar   
    59   32   33 ar   
    60   32   59 1    
    61   33   34 ar   
    62   33   60 1    
    63   34   35 ar   
    64   34   61 1    
    65   35   36 ar   
    66   35   62 1    
    67   36   63 1    
@<TRIPOS>SUBSTRUCTURE
     1 UNK         1 GROUP             0       ****    0 ROOT    
