@<TRIPOS>MOLECULE
ZINC61079993_1911
36   38    1
SMALL
USER_CHARGES


@<TRIPOS>ATOM
      1 C1          2.8116   52.0967   31.5997 C.ar      1 UNK         0.0000 
      2 C2          3.5045   52.5549   30.4817 C.ar      1 UNK         0.0000 
      3 C3          2.6428   53.3305   29.7136 C.ar      1 UNK         0.0000 
      4 N4          1.4214   53.2687   30.3428 N.pl3     1 UNK         0.0000 
      5 H5          0.5744   53.6856   29.9792 H         1 UNK         0.0000 
      6 C6          1.4973   52.4967   31.4690 C.ar      1 UNK         0.0000 
      7 C7          2.8360   54.1163   28.4208 C.3       1 UNK         0.0000 
      8 H8          2.3072   55.0676   28.5069 H         1 UNK         0.0000 
      9 C9          4.3146   54.4101   28.1233 C.3       1 UNK         0.0000 
     10 C10         4.3521   54.5253   26.6149 C.3       1 UNK         0.0000 
     11 C11         3.4642   53.3666   26.2032 C.3       1 UNK         0.0000 
     12 N12         2.3935   53.3974   27.2063 N.am      1 UNK         0.0000 
     13 C13         1.1044   53.0023   27.0174 C.2       1 UNK         0.0000 
     14 O14         0.2053   53.2965   27.8089 O.2       1 UNK         0.0000 
     15 C15         0.7426   52.0703   25.8869 C.ar      1 UNK         0.0000 
     16 C16         0.2727   50.7960   26.2405 C.ar      1 UNK         0.0000 
     17 C17        -0.1705   49.8940   25.2765 C.ar      1 UNK         0.0000 
     18 C18        -0.1157   50.2468   23.9255 C.ar      1 UNK         0.0000 
     19 C19         0.3245   51.5180   23.5602 C.ar      1 UNK         0.0000 
     20 C20         0.7169   52.4462   24.5274 C.ar      1 UNK         0.0000 
     21 Br21        1.1045   54.2130   23.9177 Br        1 UNK         0.0000 
     22 F22        -0.5226   49.3821   22.9649 F         1 UNK         0.0000 
     23 N23        -0.7021   48.6691   25.6816 N.pl3     1 UNK         0.0000 
     24 H24         3.2117   51.4844   32.3955 H         1 UNK         0.0000 
     25 H25         4.5382   52.3453   30.2569 H         1 UNK         0.0000 
     26 H26         0.6236   52.3231   32.0817 H         1 UNK         0.0000 
     27 H27         4.9653   53.5861   28.4208 H         1 UNK         0.0000 
     28 H28         4.6762   55.2967   28.6338 H         1 UNK         0.0000 
     29 H29         5.3576   54.4467   26.1997 H         1 UNK         0.0000 
     30 H30         3.9273   55.4678   26.2678 H         1 UNK         0.0000 
     31 H31         4.0778   52.4967   26.3821 H         1 UNK         0.0000 
     32 H32         3.1727   53.4480   25.1622 H         1 UNK         0.0000 
     33 H33         0.2184   50.5071   27.2819 H         1 UNK         0.0000 
     34 H34         0.3214   51.7987   22.5173 H         1 UNK         0.0000 
     35 H35        -1.0517   48.0312   24.9848 H         1 UNK         0.0000 
     36 H36        -0.8908   48.4967   26.6743 H         1 UNK         0.0000 
@<TRIPOS>BOND
     1    1    6 ar   
     2    1    2 ar   
     3    1   24 1    
     4    2    3 ar   
     5    2   25 1    
     6    3    4 ar   
     7    3    7 1    
     8    4    5 1    
     9    4    6 ar   
    10    6   26 1    
    11    7    8 1    
    12    7   12 1    
    13    7    9 1    
    14    9   10 1    
    15    9   27 1    
    16    9   28 1    
    17   10   11 1    
    18   10   29 1    
    19   10   30 1    
    20   11   12 1    
    21   11   31 1    
    22   11   32 1    
    23   12   13 am   BACKBONE|DICT|INTERRES
    24   13   14 2    
    25   13   15 1    
    26   15   20 ar   
    27   15   16 ar   
    28   16   17 ar   
    29   16   33 1    
    30   17   18 ar   
    31   17   23 1    
    32   18   19 ar   
    33   18   22 1    
    34   19   20 ar   
    35   19   34 1    
    36   20   21 1    
    37   23   35 1    
    38   23   36 1    
@<TRIPOS>SUBSTRUCTURE
     1 UNK         1 GROUP             0       ****    0 ROOT    
