ZINC13036149_2010
                    3D
 Schrodinger Suite 2024-2.
 49 51  0  0  1  0            999 V2000
    0.9594   52.9258   25.3699 C   0  0  0  0  0  0
    2.2062   53.2966   26.1660 C   0  0  0  0  0  0
    2.2675   52.9084   27.5065 C   0  0  0  0  0  0
    3.4025   53.1751   28.2707 C   0  0  0  0  0  0
    4.5060   53.7739   27.6636 C   0  0  0  0  0  0
    4.4892   54.1347   26.3124 C   0  0  0  0  0  0
    3.2956   53.9678   25.5734 C   0  0  0  0  0  0
    3.1355   54.4979   24.1548 C   0  0  0  0  0  0
    6.0633   54.7149   25.6259 S   0  0  0  0  0  0
    5.9044   56.0966   25.1696 O   0  0  0  0  0  0
    7.1044   54.3928   26.6052 O   0  0  0  0  0  0
    6.4139   53.6973   24.2146 N   0  0  0  0  0  0
    6.1753   54.1334   22.9094 C   0  0  0  0  0  0
    6.8255   55.2687   22.4234 C   0  0  0  0  0  0
    6.6412   55.6635   21.1048 C   0  0  0  0  0  0
    5.7817   54.9387   20.2754 C   0  0  0  0  0  0
    5.1031   53.8206   20.7688 C   0  0  0  0  0  0
    5.3243   53.4027   22.0795 C   0  0  0  0  0  0
    5.5654   55.4232   18.5597 S   0  0  0  0  0  0
    4.1331   55.7143   18.4600 O   0  0  0  0  0  0
    6.4503   56.5865   18.4038 O   0  0  0  0  0  0
    6.0953   53.8969   17.8428 N   0  0  0  0  0  0
    7.3047   53.7069   17.5000 C   0  0  0  0  0  0
    7.8271   52.4945   16.8845 C   0  0  0  0  0  0
    9.1353   52.2992   16.5857 C   0  0  0  0  0  0
   10.1095   53.3420   16.8811 C   0  0  0  0  0  0
    9.6661   54.4894   17.4350 C   0  0  0  0  0  0
    8.3151   54.6627   17.7068 N   0  0  0  0  0  0
    3.4506   52.8231   29.7133 C   0  0  0  0  0  0
    3.9029   53.6971   30.4817 O   0  0  0  0  0  0
    3.0358   51.6971   30.0649 O   0  5  0  0  0  0
    0.1439   52.5908   26.0127 H   0  0  0  0  0  0
    0.5860   53.7706   24.7956 H   0  0  0  0  0  0
    1.1938   52.1302   24.6623 H   0  0  0  0  0  0
    1.4266   52.4009   27.9613 H   0  0  0  0  0  0
    5.3963   53.9371   28.2573 H   0  0  0  0  0  0
    3.9499   55.1406   23.8447 H   0  0  0  0  0  0
    2.2406   55.1163   24.0828 H   0  0  0  0  0  0
    3.0144   53.6793   23.4463 H   0  0  0  0  0  0
    6.2207   52.7248   24.3970 H   0  0  0  0  0  0
    7.5033   55.8215   23.0588 H   0  0  0  0  0  0
    7.1808   56.5194   20.7322 H   0  0  0  0  0  0
    4.4406   53.2594   20.1242 H   0  0  0  0  0  0
    4.8288   52.5156   22.4438 H   0  0  0  0  0  0
    7.1341   51.6948   16.6663 H   0  0  0  0  0  0
    9.4589   51.3692   16.1392 H   0  0  0  0  0  0
   11.1593   53.1915   16.6762 H   0  0  0  0  0  0
   10.3148   55.3133   17.7002 H   0  0  0  0  0  0
    8.0011   55.5573   18.0676 H   0  0  0  0  0  0
  1  2  1  0  0  0
  1 32  1  0  0  0
  1 33  1  0  0  0
  1 34  1  0  0  0
  2  7  2  0  0  0
  2  3  1  0  0  0
  3  4  2  0  0  0
  3 35  1  0  0  0
  4  5  1  0  0  0
  4 29  1  0  0  0
  5  6  2  0  0  0
  5 36  1  0  0  0
  6  7  1  0  0  0
  6  9  1  0  0  0
  7  8  1  0  0  0
  8 37  1  0  0  0
  8 38  1  0  0  0
  8 39  1  0  0  0
  9 10  2  0  0  0
  9 11  2  0  0  0
  9 12  1  0  0  0
 12 13  1  0  0  0
 12 40  1  0  0  0
 13 18  2  0  0  0
 13 14  1  0  0  0
 14 15  2  0  0  0
 14 41  1  0  0  0
 15 16  1  0  0  0
 15 42  1  0  0  0
 16 17  2  0  0  0
 16 19  1  0  0  0
 17 18  1  0  0  0
 17 43  1  0  0  0
 18 44  1  0  0  0
 19 20  2  0  0  0
 19 21  2  0  0  0
 19 22  1  0  0  0
 22 23  2  0  0  0
 23 28  1  0  0  0
 23 24  1  0  0  0
 24 25  2  0  0  0
 24 45  1  0  0  0
 25 26  1  0  0  0
 25 46  1  0  0  0
 26 27  2  0  0  0
 26 47  1  0  0  0
 27 28  1  0  0  0
 27 48  1  0  0  0
 28 49  1  0  0  0
 29 30  2  0  0  0
 29 31  1  0  0  0
M  CHG  1  31  -1
M  END
> <i_i_glide_confnum>
91

> <i_i_glide_lignum>
2011

> <i_i_glide_posenum>
193

> <i_i_glide_rotatable_bonds>
6

> <i_m_Source_File_Index>
4329

> <b_m_subgroup_collapsed>
0

> <r_i_docking_score>
-5.80006

> <r_i_glide_ecoul>
-9.79114

> <r_i_glide_eff_state_penalty>
0

> <r_i_glide_einternal>
14.1294

> <r_i_glide_emodel>
-65.1677

> <r_i_glide_energy>
-53.5678

> <r_i_glide_erotb>
0.474593

> <r_i_glide_esite>
0

> <r_i_glide_evdw>
-43.7767

> <r_i_glide_gscore>
-5.80006

> <r_i_glide_hbond>
-0.32

> <r_i_glide_ligand_efficiency>
-0.187099

> <r_i_glide_ligand_efficiency_ln>
-1.30809

> <r_i_glide_ligand_efficiency_sa>
-0.587748

> <r_i_glide_lipo>
-2.81526

> <r_i_glide_metal>
0

> <r_i_glide_rewards>
0.518113

> <s_i_glide_gridfile>
wee1_glide-grid

> <s_m_Source_File>
wee1_decoys_glide_SP.sdf

> <s_m_Source_Path>
/Users/zhangxujun/Desktop

> <s_m_entry_id>
4604

> <s_m_entry_name>
wee1_decoys_glide_SP.4329

> <s_m_subgroup_title>
wee1_decoys_glide_SP

> <s_m_subgroupid>
wee1_decoys_glide_SP


$$$$
