@<TRIPOS>MOLECULE
ZINC13187553_5783
56   58    1
SMALL
USER_CHARGES


@<TRIPOS>ATOM
      1 C1          3.5876   54.3009   28.2824 C.3       1 UNK         0.0000 
      2 C2          2.3050   53.8760   27.5501 C.3       1 UNK         0.0000 
      3 H3          1.6565   54.7480   27.4495 H         1 UNK         0.0000 
      4 C4          1.5256   52.7839   28.3228 C.3       1 UNK         0.0000 
      5 C5          0.2017   52.4249   27.6005 C.3       1 UNK         0.0000 
      6 H6         -0.3867   53.3302   27.4906 H         1 UNK         0.0000 
      7 C7          0.5440   51.8975   26.1862 C.3       1 UNK         0.0000 
      8 N8          1.3750   52.8954   25.4598 N.pl3     1 UNK         0.0000 
      9 C9          2.6194   53.3490   26.1294 C.3       1 UNK         0.0000 
     10 S10         0.9163   53.4906   23.8587 S.o2      1 UNK         0.0000 
     11 O11         1.5066   54.8176   23.6814 O.2       1 UNK         0.0000 
     12 O12        -0.5272   53.2855   23.6953 O.2       1 UNK         0.0000 
     13 C13         1.7186   52.4091   22.6625 C.ar      1 UNK         0.0000 
     14 C14         0.9476   51.4125   22.0602 C.ar      1 UNK         0.0000 
     15 C15         1.4812   50.5796   21.0678 C.ar      1 UNK         0.0000 
     16 C16         2.8139   50.7631   20.6818 C.ar      1 UNK         0.0000 
     17 C17         3.5905   51.7546   21.2813 C.ar      1 UNK         0.0000 
     18 C18         3.0568   52.5901   22.2802 C.ar      1 UNK         0.0000 
     19 O19         3.7992   53.5666   22.9200 O.3       1 UNK         0.0000 
     20 C20         5.1552   53.7862   22.5467 C.3       1 UNK         0.0000 
     21 C21         0.6484   49.5014   20.4255 C.2       1 UNK         0.0000 
     22 O22         1.1639   48.4330   20.0879 O.2       1 UNK         0.0000 
     23 N23        -0.6480   49.8365   20.2424 N.am      1 UNK         0.0000 
     24 C24        -1.7425   49.0893   19.7654 C.ar      1 UNK         0.0000 
     25 C25        -1.6951   47.6843   19.6819 C.ar      1 UNK         0.0000 
     26 C26        -2.7871   46.9592   19.2185 C.ar      1 UNK         0.0000 
     27 C27        -3.9460   47.6190   18.8321 C.ar      1 UNK         0.0000 
     28 C28        -4.0137   49.0065   18.9110 C.ar      1 UNK         0.0000 
     29 C29        -2.9298   49.7748   19.3806 C.ar      1 UNK         0.0000 
     30 C30        -3.0926   51.2799   19.4491 C.2       1 UNK         0.0000 
     31 O31        -4.0893   51.7824   18.8822 O.co2     1 UNK         0.0000 
     32 Cl32       -5.3012   46.7163   18.2560 Cl        1 UNK         0.0000 
     33 C33        -0.6362   51.4194   28.4009 C.3       1 UNK         0.0000 
     34 H34         4.2677   53.4601   28.4165 H         1 UNK         0.0000 
     35 H35         4.1244   55.0730   27.7275 H         1 UNK         0.0000 
     36 H36         3.3643   54.7075   29.2685 H         1 UNK         0.0000 
     37 H37         1.3207   53.1251   29.3392 H         1 UNK         0.0000 
     38 H38         2.1418   51.8942   28.4718 H         1 UNK         0.0000 
     39 H39        -0.3585   51.6850   25.6149 H         1 UNK         0.0000 
     40 H40         1.1044   50.9636   26.2436 H         1 UNK         0.0000 
     41 H41         3.2967   52.5002   26.1731 H         1 UNK         0.0000 
     42 H42         3.1072   54.1098   25.5169 H         1 UNK         0.0000 
     43 H43        -0.0838   51.2900   22.3672 H         1 UNK         0.0000 
     44 H44         3.2494   50.1492   19.9060 H         1 UNK         0.0000 
     45 H45         4.6117   51.8584   20.9459 H         1 UNK         0.0000 
     46 H46         5.5644   54.5981   23.1484 H         1 UNK         0.0000 
     47 H47         5.7690   52.9004   22.7240 H         1 UNK         0.0000 
     48 H48         5.2361   54.0790   21.4978 H         1 UNK         0.0000 
     49 H49        -0.9024   50.8056   20.4202 H         1 UNK         0.0000 
     50 H50        -0.8255   47.1259   19.9893 H         1 UNK         0.0000 
     51 H51        -2.7348   45.8821   19.1619 H         1 UNK         0.0000 
     52 H52        -4.9293   49.4878   18.6007 H         1 UNK         0.0000 
     53 H53        -0.0866   50.4971   28.5460 H         1 UNK         0.0000 
     54 H54        -0.8957   51.8067   29.3869 H         1 UNK         0.0000 
     55 H55        -1.5636   51.1701   27.8835 H         1 UNK         0.0000 
     56 O56        -2.2543   51.9680   20.0811 O.co2     1 UNK         0.0000 
@<TRIPOS>BOND
     1    1    2 1    
     2    1   34 1    
     3    1   35 1    
     4    1   36 1    
     5    2    3 1    
     6    2    9 1    
     7    2    4 1    
     8    4    5 1    
     9    4   37 1    
    10    4   38 1    
    11    5    6 1    
    12    5    7 1    
    13    5   33 1    
    14    7    8 1    
    15    7   39 1    
    16    7   40 1    
    17    8    9 1    
    18    8   10 1    
    19    9   41 1    
    20    9   42 1    
    21   10   11 2    
    22   10   12 2    
    23   10   13 1    
    24   13   18 ar   
    25   13   14 ar   
    26   14   15 ar   
    27   14   43 1    
    28   15   16 ar   
    29   15   21 1    
    30   16   17 ar   
    31   16   44 1    
    32   17   18 ar   
    33   17   45 1    
    34   18   19 1    
    35   19   20 1    
    36   20   46 1    
    37   20   47 1    
    38   20   48 1    
    39   21   22 2    
    40   21   23 am   BACKBONE|DICT|INTERRES
    41   23   24 1    
    42   23   49 1    
    43   24   29 ar   
    44   24   25 ar   
    45   25   26 ar   
    46   25   50 1    
    47   26   27 ar   
    48   26   51 1    
    49   27   28 ar   
    50   27   32 1    
    51   28   29 ar   
    52   28   52 1    
    53   29   30 1    
    54   30   31 2    
    55   30   56 1    
    56   33   53 1    
    57   33   54 1    
    58   33   55 1    
@<TRIPOS>SUBSTRUCTURE
     1 UNK         1 GROUP             0       ****    0 ROOT    
