@<TRIPOS>MOLECULE
ZINC38547733_2006
64   67    1
SMALL
USER_CHARGES


@<TRIPOS>ATOM
      1 C1         -0.1976   49.1453   23.9551 C.3       1 UNK         0.0000 
      2 C2         -0.3697   50.5592   23.2966 C.3       1 UNK         0.0000 
      3 C3         -0.4894   51.5772   24.4672 C.3       1 UNK         0.0000 
      4 C4         -0.0907   52.9525   23.9424 C.3       1 UNK         0.0000 
      5 C5          0.8933   52.6875   22.7813 C.3       1 UNK         0.0000 
      6 H6          0.4862   53.1962   21.9086 H         1 UNK         0.0000 
      7 C7          0.8912   51.1309   22.4955 C.3       1 UNK         0.0000 
      8 C8          0.8874   50.9015   20.9555 C.3       1 UNK         0.0000 
      9 C9          2.1943   50.4517   22.9996 C.3       1 UNK         0.0000 
     10 C10         2.2714   53.3397   22.9743 C.ar      1 UNK         0.0000 
     11 N11         3.1069   53.6216   21.9163 N.pl3     1 UNK         0.0000 
     12 H12         2.8455   53.4830   20.9504 H         1 UNK         0.0000 
     13 C13         4.2924   54.0912   22.4316 C.ar      1 UNK         0.0000 
     14 C14         5.5043   54.4969   21.8626 C.ar      1 UNK         0.0000 
     15 C15         6.5073   54.8928   22.7532 C.ar      1 UNK         0.0000 
     16 C16         6.3109   54.8946   24.1357 C.ar      1 UNK         0.0000 
     17 C17         5.0969   54.4967   24.6985 C.ar      1 UNK         0.0000 
     18 C18         4.0733   54.0876   23.8322 C.ar      1 UNK         0.0000 
     19 N19         2.8192   53.6273   24.1333 N.2       1 UNK         0.0000 
     20 C20        -1.7059   50.6035   22.4457 C.2       1 UNK         0.0000 
     21 O21        -2.4269   51.6040   22.4692 O.2       1 UNK         0.0000 
     22 N22        -2.1185   49.5584   21.6930 N.am      1 UNK         0.0000 
     23 N23        -1.3139   48.5732   21.2464 N.2       1 UNK         0.0000 
     24 C24        -1.9311   47.6461   20.6352 C.2       1 UNK         0.0000 
     25 C25        -1.2308   46.5633   19.9187 C.ar      1 UNK         0.0000 
     26 C26        -0.2313   46.9323   19.0082 C.ar      1 UNK         0.0000 
     27 C27         0.4217   45.9882   18.2261 C.ar      1 UNK         0.0000 
     28 C28         0.0925   44.6322   18.3247 C.ar      1 UNK         0.0000 
     29 C29        -0.8842   44.2365   19.2492 C.ar      1 UNK         0.0000 
     30 C30        -1.5379   45.1852   20.0675 C.ar      1 UNK         0.0000 
     31 C31        -2.5347   44.7053   21.0778 C.2       1 UNK         0.0000 
     32 O32        -3.7401   44.9435   20.8479 O.co2     1 UNK         0.0000 
     33 O33        -2.0957   44.0965   22.0815 O.co2     1 UNK         0.0000 
     34 O34        -1.2064   42.8973   19.3067 O.3       1 UNK         0.0000 
     35 C35        -2.3134   42.5412   18.4838 C.3       1 UNK         0.0000 
     36 O36         0.6671   43.6464   17.5402 O.3       1 UNK         0.0000 
     37 C37         1.4372   44.0223   16.4013 C.3       1 UNK         0.0000 
     38 H38         0.5022   49.1547   24.7923 H         1 UNK         0.0000 
     39 H39        -1.1384   48.7641   24.3561 H         1 UNK         0.0000 
     40 H40         0.1857   48.3950   23.2665 H         1 UNK         0.0000 
     41 H41         0.2299   51.3278   25.2498 H         1 UNK         0.0000 
     42 H42        -1.4580   51.5617   24.9717 H         1 UNK         0.0000 
     43 H43         0.3290   53.5478   24.7538 H         1 UNK         0.0000 
     44 H44        -0.9847   53.4692   23.5933 H         1 UNK         0.0000 
     45 H45         0.9220   49.8416   20.7055 H         1 UNK         0.0000 
     46 H46         0.0152   51.3315   20.4636 H         1 UNK         0.0000 
     47 H47         1.7601   51.3568   20.4855 H         1 UNK         0.0000 
     48 H48         2.2004   49.3751   22.8261 H         1 UNK         0.0000 
     49 H49         3.0781   50.8328   22.4850 H         1 UNK         0.0000 
     50 H50         2.3075   50.6126   24.0708 H         1 UNK         0.0000 
     51 H51         5.6652   54.4956   20.7942 H         1 UNK         0.0000 
     52 H52         7.4669   55.2063   22.3654 H         1 UNK         0.0000 
     53 H53         7.1215   55.2058   24.7777 H         1 UNK         0.0000 
     54 H54         4.9530   54.4885   25.7687 H         1 UNK         0.0000 
     55 H55        -3.0446   49.5713   21.2923 H         1 UNK         0.0000 
     56 H56        -3.0176   47.5872   20.5812 H         1 UNK         0.0000 
     57 H57         0.0384   47.9726   18.8799 H         1 UNK         0.0000 
     58 H58         1.1745   46.3354   17.5344 H         1 UNK         0.0000 
     59 H59        -2.5186   41.4762   18.5810 H         1 UNK         0.0000 
     60 H60        -3.2226   43.0753   18.7626 H         1 UNK         0.0000 
     61 H61        -2.1052   42.7418   17.4314 H         1 UNK         0.0000 
     62 H62         1.7537   43.1249   15.8702 H         1 UNK         0.0000 
     63 H63         0.8489   44.6250   15.7080 H         1 UNK         0.0000 
     64 H64         2.3361   44.5758   16.6694 H         1 UNK         0.0000 
@<TRIPOS>BOND
     1    1    2 1    
     2    1   38 1    
     3    1   39 1    
     4    1   40 1    
     5    2    7 1    
     6    2    3 1    
     7    2   20 1    
     8    3    4 1    
     9    3   41 1    
    10    3   42 1    
    11    4    5 1    
    12    4   43 1    
    13    4   44 1    
    14    5    6 1    
    15    5    7 1    
    16    5   10 1    
    17    7    8 1    
    18    7    9 1    
    19    8   45 1    
    20    8   46 1    
    21    8   47 1    
    22    9   48 1    
    23    9   49 1    
    24    9   50 1    
    25   10   19 ar   
    26   10   11 ar   
    27   11   12 1    
    28   11   13 ar   
    29   13   18 ar   
    30   13   14 ar   
    31   14   15 ar   
    32   14   51 1    
    33   15   16 ar   
    34   15   52 1    
    35   16   17 ar   
    36   16   53 1    
    37   17   18 ar   
    38   17   54 1    
    39   18   19 ar   
    40   20   21 2    
    41   20   22 am   BACKBONE|DICT|INTERRES
    42   22   23 1    
    43   22   55 1    
    44   23   24 2    
    45   24   25 1    
    46   24   56 1    
    47   25   30 ar   
    48   25   26 ar   
    49   26   27 ar   
    50   26   57 1    
    51   27   28 ar   
    52   27   58 1    
    53   28   29 ar   
    54   28   36 1    
    55   29   30 ar   
    56   29   34 1    
    57   30   31 1    
    58   31   32 2    
    59   31   33 1    
    60   34   35 1    
    61   35   59 1    
    62   35   60 1    
    63   35   61 1    
    64   36   37 1    
    65   37   62 1    
    66   37   63 1    
    67   37   64 1    
@<TRIPOS>SUBSTRUCTURE
     1 UNK         1 GROUP             0       ****    0 ROOT    
