@<TRIPOS>MOLECULE
ZINC20499721_4053
50   52    1
SMALL
USER_CHARGES


@<TRIPOS>ATOM
      1 C1          7.5916   55.3050   21.5569 C.3       1 UNK         0.0000 
      2 C2          6.3032   54.7564   22.1381 C.ar      1 UNK         0.0000 
      3 C3          6.2090   54.5164   23.5087 C.ar      1 UNK         0.0000 
      4 C4          4.9986   54.0963   24.0546 C.ar      1 UNK         0.0000 
      5 C5          3.8830   53.9041   23.2314 C.ar      1 UNK         0.0000 
      6 C6          4.0031   54.0965   21.8514 C.ar      1 UNK         0.0000 
      7 C7          5.2123   54.5113   21.3057 C.ar      1 UNK         0.0000 
      8 S8          2.2745   53.6420   24.0004 S.o2      1 UNK         0.0000 
      9 O9          2.5176   53.2964   25.4064 O.2       1 UNK         0.0000 
     10 O10         1.5043   54.8426   23.6813 O.2       1 UNK         0.0000 
     11 N11         1.3997   52.2686   23.2305 N.pl3     1 UNK         0.0000 
     12 C12         1.0548   52.3329   21.8144 C.3       1 UNK         0.0000 
     13 C13        -0.4218   52.1235   21.4004 C.2       1 UNK         0.0000 
     14 O14        -1.3277   52.0704   22.2378 O.2       1 UNK         0.0000 
     15 N15        -0.6405   52.0960   20.0699 N.am      1 UNK         0.0000 
     16 N16        -1.8837   52.0478   19.5476 N.2       1 UNK         0.0000 
     17 C17        -1.9095   52.1796   18.2832 C.2       1 UNK         0.0000 
     18 C18        -3.1518   52.1465   17.5018 C.ar      1 UNK         0.0000 
     19 C19        -3.1356   52.5820   16.1706 C.ar      1 UNK         0.0000 
     20 C20        -4.3034   52.5827   15.4112 C.ar      1 UNK         0.0000 
     21 C21        -5.4961   52.1418   15.9769 C.ar      1 UNK         0.0000 
     22 C22        -5.5293   51.6953   17.2947 C.ar      1 UNK         0.0000 
     23 C23        -4.3614   51.6952   18.0527 C.ar      1 UNK         0.0000 
     24 Br24       -7.0934   52.1496   14.9432 Br        1 UNK         0.0000 
     25 C25         0.8300   51.2709   24.0489 C.ar      1 UNK         0.0000 
     26 C26         1.0828   49.9228   23.7721 C.ar      1 UNK         0.0000 
     27 C27         0.4373   48.9233   24.5005 C.ar      1 UNK         0.0000 
     28 C28        -0.4415   49.2566   25.5255 C.ar      1 UNK         0.0000 
     29 C29        -0.6933   50.5943   25.8171 C.ar      1 UNK         0.0000 
     30 C30        -0.0751   51.6005   25.0747 C.ar      1 UNK         0.0000 
     31 F31        -0.3931   52.8909   25.3346 F         1 UNK         0.0000 
     32 H32         7.5041   55.5477   20.4973 H         1 UNK         0.0000 
     33 H33         8.3957   54.5865   21.6872 H         1 UNK         0.0000 
     34 H34         7.8891   56.2092   22.0868 H         1 UNK         0.0000 
     35 H35         7.0591   54.6943   24.1518 H         1 UNK         0.0000 
     36 H36         4.9214   53.9666   25.1247 H         1 UNK         0.0000 
     37 H37         3.1689   54.0086   21.1806 H         1 UNK         0.0000 
     38 H38         5.2798   54.6902   20.2419 H         1 UNK         0.0000 
     39 H39         1.2998   53.2960   21.3824 H         1 UNK         0.0000 
     40 H40         1.6717   51.6303   21.2516 H         1 UNK         0.0000 
     41 H41         0.1168   52.1815   19.4075 H         1 UNK         0.0000 
     42 H42        -1.0093   52.3346   17.6898 H         1 UNK         0.0000 
     43 H43        -2.2209   52.9321   15.7131 H         1 UNK         0.0000 
     44 H44        -4.2843   52.9249   14.3874 H         1 UNK         0.0000 
     45 H45        -6.4566   51.3505   17.7270 H         1 UNK         0.0000 
     46 H46        -4.4060   51.3411   19.0735 H         1 UNK         0.0000 
     47 H47         1.7664   49.6442   22.9830 H         1 UNK         0.0000 
     48 H48         0.6377   47.8851   24.2855 H         1 UNK         0.0000 
     49 H49        -0.9284   48.4753   26.0907 H         1 UNK         0.0000 
     50 H50        -1.3825   50.8454   26.6098 H         1 UNK         0.0000 
@<TRIPOS>BOND
     1    1    2 1    
     2    1   32 1    
     3    1   33 1    
     4    1   34 1    
     5    2    7 ar   
     6    2    3 ar   
     7    3    4 ar   
     8    3   35 1    
     9    4    5 ar   
    10    4   36 1    
    11    5    6 ar   
    12    5    8 1    
    13    6    7 ar   
    14    6   37 1    
    15    7   38 1    
    16    8    9 2    
    17    8   10 2    
    18    8   11 1    
    19   11   12 1    
    20   11   25 1    
    21   12   13 1    
    22   12   39 1    
    23   12   40 1    
    24   13   14 2    
    25   13   15 am   BACKBONE|DICT|INTERRES
    26   15   16 1    
    27   15   41 1    
    28   16   17 2    
    29   17   18 1    
    30   17   42 1    
    31   18   23 ar   
    32   18   19 ar   
    33   19   20 ar   
    34   19   43 1    
    35   20   21 ar   
    36   20   44 1    
    37   21   22 ar   
    38   21   24 1    
    39   22   23 ar   
    40   22   45 1    
    41   23   46 1    
    42   25   30 ar   
    43   25   26 ar   
    44   26   27 ar   
    45   26   47 1    
    46   27   28 ar   
    47   27   48 1    
    48   28   29 ar   
    49   28   49 1    
    50   29   30 ar   
    51   29   50 1    
    52   30   31 1    
@<TRIPOS>SUBSTRUCTURE
     1 UNK         1 GROUP             0       ****    0 ROOT    
