@<TRIPOS>MOLECULE
ZINC20106914_679
73   78    1
SMALL
USER_CHARGES


@<TRIPOS>ATOM
      1 C1          0.4282   52.7996   30.7726 C.3       1 UNK         0.0000 
      2 C2          0.5158   52.5435   29.2792 C.ar      1 UNK         0.0000 
      3 C3          1.5896   53.0536   28.5485 C.ar      1 UNK         0.0000 
      4 C4          1.6722   52.8264   27.1759 C.ar      1 UNK         0.0000 
      5 C5          0.6666   52.1074   26.5273 C.ar      1 UNK         0.0000 
      6 C6         -0.4113   51.5930   27.2609 C.ar      1 UNK         0.0000 
      7 C7         -0.4846   51.8101   28.6345 C.ar      1 UNK         0.0000 
      8 N8          0.8168   51.8724   25.1504 N.am      1 UNK         0.0000 
      9 C9         -0.1459   51.9051   24.2072 C.2       1 UNK         0.0000 
     10 O10        -1.3091   52.2429   24.4284 O.2       1 UNK         0.0000 
     11 C11         0.2545   51.4991   22.7588 C.3       1 UNK         0.0000 
     12 H12        -0.6872   51.4098   22.2165 H         1 UNK         0.0000 
     13 C13         0.9967   50.1283   22.7348 C.3       1 UNK         0.0000 
     14 H14         0.7376   49.4042   23.5106 H         1 UNK         0.0000 
     15 C15         1.0946   49.5673   21.3188 C.2       1 UNK         0.0000 
     16 C16         1.9980   50.3294   20.6800 C.2       1 UNK         0.0000 
     17 C17         2.3564   51.4108   21.6876 C.3       1 UNK         0.0000 
     18 C18         1.2591   52.4163   21.9769 C.3       1 UNK         0.0000 
     19 H19         0.8075   52.7945   21.0595 H         1 UNK         0.0000 
     20 C20         1.9921   53.5861   22.6652 C.2       1 UNK         0.0000 
     21 O21         1.4454   54.4965   23.2864 O.2       1 UNK         0.0000 
     22 N22         3.3219   53.4031   22.4536 N.am      1 UNK         0.0000 
     23 C23         3.6513   52.2166   21.6376 C.3       1 UNK         0.0000 
     24 H24         4.4556   51.6345   22.0826 H         1 UNK         0.0000 
     25 C25         4.1509   52.5637   20.2123 C.2       1 UNK         0.0000 
     26 O26         5.3594   52.4955   19.9977 O.2       1 UNK         0.0000 
     27 N27         3.2680   52.9010   19.2500 N.am      1 UNK         0.0000 
     28 C28         3.6213   53.1034   17.8347 C.3       1 UNK         0.0000 
     29 C29         2.3827   53.0083   16.9102 C.3       1 UNK         0.0000 
     30 C30         1.3948   54.1800   17.0996 C.3       1 UNK         0.0000 
     31 C31         2.0916   55.5502   16.9458 C.3       1 UNK         0.0000 
     32 C32         3.3749   55.6621   17.7935 C.3       1 UNK         0.0000 
     33 C33         4.3155   54.4619   17.5579 C.3       1 UNK         0.0000 
     34 C34         4.3228   54.2851   23.0925 C.3       1 UNK         0.0000 
     35 C35         4.2910   54.2721   24.6502 C.3       1 UNK         0.0000 
     36 C36         5.3943   55.0776   25.3562 C.3       1 UNK         0.0000 
     37 C37         6.7891   54.7991   24.7868 C.3       1 UNK         0.0000 
     38 C38         6.8351   55.0243   23.2694 C.3       1 UNK         0.0000 
     39 C39         5.7680   54.2054   22.5248 C.3       1 UNK         0.0000 
     40 O40         2.3047   50.6383   22.8742 O.3       1 UNK         0.0000 
     41 H41        -0.6001   52.7337   31.1290 H         1 UNK         0.0000 
     42 H42         0.7747   53.8059   31.0111 H         1 UNK         0.0000 
     43 H43         1.0375   52.0869   31.3286 H         1 UNK         0.0000 
     44 H44         2.3687   53.6151   29.0436 H         1 UNK         0.0000 
     45 H45         2.5198   53.2095   26.6315 H         1 UNK         0.0000 
     46 H46        -1.1764   51.0055   26.7773 H         1 UNK         0.0000 
     47 H47        -1.3105   51.3903   29.1929 H         1 UNK         0.0000 
     48 H48         1.7603   51.7426   24.8172 H         1 UNK         0.0000 
     49 H49         0.5399   48.7187   20.9461 H         1 UNK         0.0000 
     50 H50         2.3564   50.2720   19.6614 H         1 UNK         0.0000 
     51 H51         2.3431   53.1988   19.5243 H         1 UNK         0.0000 
     52 H52         4.2975   52.2922   17.5467 H         1 UNK         0.0000 
     53 H53         2.7142   52.9836   15.8710 H         1 UNK         0.0000 
     54 H54         1.8749   52.0586   17.0813 H         1 UNK         0.0000 
     55 H55         0.5786   54.0966   16.3817 H         1 UNK         0.0000 
     56 H56         0.9350   54.1043   18.0815 H         1 UNK         0.0000 
     57 H57         2.3440   55.7097   15.8966 H         1 UNK         0.0000 
     58 H58         1.4011   56.3514   17.2124 H         1 UNK         0.0000 
     59 H59         3.8916   56.5978   17.5726 H         1 UNK         0.0000 
     60 H60         3.1067   55.7053   18.8478 H         1 UNK         0.0000 
     61 H61         5.2081   54.5621   18.1771 H         1 UNK         0.0000 
     62 H62         4.6781   54.4806   16.5285 H         1 UNK         0.0000 
     63 H63         3.9895   55.2873   22.8357 H         1 UNK         0.0000 
     64 H64         3.3284   54.6312   25.0171 H         1 UNK         0.0000 
     65 H65         4.4117   53.2499   24.9913 H         1 UNK         0.0000 
     66 H66         5.1786   56.1395   25.2770 H         1 UNK         0.0000 
     67 H67         5.3802   54.8565   26.4252 H         1 UNK         0.0000 
     68 H68         7.5059   55.4546   25.2789 H         1 UNK         0.0000 
     69 H69         7.0913   53.7759   25.0140 H         1 UNK         0.0000 
     70 H70         6.7048   56.0857   23.0542 H         1 UNK         0.0000 
     71 H71         7.8191   54.7522   22.8784 H         1 UNK         0.0000 
     72 H72         6.1010   53.1672   22.5699 H         1 UNK         0.0000 
     73 H73         5.7775   54.5257   21.4823 H         1 UNK         0.0000 
@<TRIPOS>BOND
     1    1    2 1    
     2    1   41 1    
     3    1   42 1    
     4    1   43 1    
     5    2    7 ar   
     6    2    3 ar   
     7    3    4 ar   
     8    3   44 1    
     9    4    5 ar   
    10    4   45 1    
    11    5    6 ar   
    12    5    8 1    
    13    6    7 ar   
    14    6   46 1    
    15    7   47 1    
    16    8    9 am   BACKBONE|DICT|INTERRES
    17    8   48 1    
    18    9   10 2    
    19    9   11 1    
    20   11   12 1    
    21   11   18 1    
    22   11   13 1    
    23   13   14 1    
    24   13   40 1    
    25   13   15 1    
    26   15   16 2    
    27   15   49 1    
    28   16   17 1    
    29   16   50 1    
    30   17   23 1    
    31   17   18 1    
    32   17   40 1    
    33   18   19 1    
    34   18   20 1    
    35   20   21 2    
    36   20   22 am   BACKBONE|DICT|INTERRES
    37   22   23 1    
    38   22   34 1    
    39   23   24 1    
    40   23   25 1    
    41   25   26 2    
    42   25   27 am   BACKBONE|DICT|INTERRES
    43   27   28 1    
    44   27   51 1    
    45   28   33 1    
    46   28   29 1    
    47   28   52 1    
    48   29   30 1    
    49   29   53 1    
    50   29   54 1    
    51   30   31 1    
    52   30   55 1    
    53   30   56 1    
    54   31   32 1    
    55   31   57 1    
    56   31   58 1    
    57   32   33 1    
    58   32   59 1    
    59   32   60 1    
    60   33   61 1    
    61   33   62 1    
    62   34   39 1    
    63   34   35 1    
    64   34   63 1    
    65   35   36 1    
    66   35   64 1    
    67   35   65 1    
    68   36   37 1    
    69   36   66 1    
    70   36   67 1    
    71   37   38 1    
    72   37   68 1    
    73   37   69 1    
    74   38   39 1    
    75   38   70 1    
    76   38   71 1    
    77   39   72 1    
    78   39   73 1    
@<TRIPOS>SUBSTRUCTURE
     1 UNK         1 GROUP             0       ****    0 ROOT    
