@<TRIPOS>MOLECULE
ZINC41006712_3631
63   66    1
SMALL
USER_CHARGES


@<TRIPOS>ATOM
      1 C1         -0.5178   48.2653   23.2869 C.3       1 UNK         0.0000 
      2 C2         -1.3955   48.8894   24.3846 C.3       1 UNK         0.0000 
      3 C3         -2.7633   49.2956   23.7781 C.3       1 UNK         0.0000 
      4 C4         -3.6996   50.0121   24.7601 C.2       1 UNK         0.0000 
      5 O5         -4.8953   49.7133   24.8031 O.2       1 UNK         0.0000 
      6 C6         -3.0328   51.1032   25.6514 C.3       1 UNK         0.0000 
      7 H7         -2.8927   51.9792   25.0168 H         1 UNK         0.0000 
      8 C8         -1.6389   50.6516   26.2363 C.3       1 UNK         0.0000 
      9 H9         -1.8604   49.8074   26.8818 H         1 UNK         0.0000 
     10 C10        -0.6946   50.0714   25.1297 C.3       1 UNK         0.0000 
     11 H11         0.2011   49.6530   25.5907 H         1 UNK         0.0000 
     12 C12        -0.1696   51.1679   24.1424 C.2       1 UNK         0.0000 
     13 O13        -0.8903   51.6082   23.2423 O.2       1 UNK         0.0000 
     14 N14         1.1038   51.5733   24.3223 N.am      1 UNK         0.0000 
     15 C15         1.8686   52.3811   23.4726 C.ar      1 UNK         0.0000 
     16 C16         2.6837   53.3554   24.0504 C.ar      1 UNK         0.0000 
     17 C17         3.5529   54.0979   23.2579 C.ar      1 UNK         0.0000 
     18 C18         3.6090   53.8599   21.8871 C.ar      1 UNK         0.0000 
     19 C19         2.7921   52.8957   21.2986 C.ar      1 UNK         0.0000 
     20 C20         1.9152   52.1557   22.0893 C.ar      1 UNK         0.0000 
     21 C21        -0.9695   51.7011   27.1450 C.2       1 UNK         0.0000 
     22 C22         0.3495   51.8445   27.3951 C.2       1 UNK         0.0000 
     23 C23         0.9606   52.8777   28.2471 C.ar      1 UNK         0.0000 
     24 C24         0.2673   53.4583   29.3151 C.ar      1 UNK         0.0000 
     25 C25         0.8383   54.5031   30.0354 C.ar      1 UNK         0.0000 
     26 C26         2.1010   54.9724   29.6806 C.ar      1 UNK         0.0000 
     27 C27         2.8217   54.3734   28.6532 C.ar      1 UNK         0.0000 
     28 C28         2.2521   53.3185   27.9437 C.ar      1 UNK         0.0000 
     29 C29        -4.0254   51.5717   26.7493 C.2       1 UNK         0.0000 
     30 O30        -4.6873   52.5905   26.5483 O.2       1 UNK         0.0000 
     31 N31        -4.0913   50.8258   27.8781 N.am      1 UNK         0.0000 
     32 C32        -4.9229   50.9905   29.0012 C.ar      1 UNK         0.0000 
     33 C33        -4.4958   50.3808   30.1820 C.ar      1 UNK         0.0000 
     34 C34        -5.2557   50.4949   31.3446 C.ar      1 UNK         0.0000 
     35 C35        -6.4508   51.2096   31.3211 C.ar      1 UNK         0.0000 
     36 C36        -6.8964   51.8064   30.1443 C.ar      1 UNK         0.0000 
     37 C37        -6.1378   51.6957   28.9817 C.ar      1 UNK         0.0000 
     38 O38        -1.6162   47.8086   25.2826 O.3       1 UNK         0.0000 
     39 H39        -0.3642   48.9426   22.4461 H         1 UNK         0.0000 
     40 H40         0.4634   48.0043   23.6823 H         1 UNK         0.0000 
     41 H41        -0.9656   47.3571   22.8786 H         1 UNK         0.0000 
     42 H42        -2.6339   49.9539   22.9222 H         1 UNK         0.0000 
     43 H43        -3.2811   48.4089   23.4133 H         1 UNK         0.0000 
     44 H44         1.5517   51.3122   25.1855 H         1 UNK         0.0000 
     45 H45         2.6535   53.5398   25.1110 H         1 UNK         0.0000 
     46 H46         4.1850   54.8515   23.7054 H         1 UNK         0.0000 
     47 H47         4.2830   54.4340   21.2703 H         1 UNK         0.0000 
     48 H48         2.8382   52.7235   20.2339 H         1 UNK         0.0000 
     49 H49         1.2993   51.3954   21.6314 H         1 UNK         0.0000 
     50 H50        -1.6416   52.3919   27.6304 H         1 UNK         0.0000 
     51 H51         1.0473   51.1444   26.9608 H         1 UNK         0.0000 
     52 H52        -0.7173   53.1110   29.5867 H         1 UNK         0.0000 
     53 H53         0.2959   54.9616   30.8492 H         1 UNK         0.0000 
     54 H54         2.5276   55.8049   30.2177 H         1 UNK         0.0000 
     55 H55         3.8110   54.7278   28.4026 H         1 UNK         0.0000 
     56 H56         2.8162   52.8644   27.1429 H         1 UNK         0.0000 
     57 H57        -3.4267   50.0690   27.9616 H         1 UNK         0.0000 
     58 H58        -3.5689   49.8249   30.2145 H         1 UNK         0.0000 
     59 H59        -4.9101   50.0412   32.2622 H         1 UNK         0.0000 
     60 H60        -7.0381   51.2943   32.2244 H         1 UNK         0.0000 
     61 H61        -7.8333   52.3458   30.1323 H         1 UNK         0.0000 
     62 H62        -6.5118   52.1496   28.0774 H         1 UNK         0.0000 
     63 H63        -1.3207   48.0420   26.1747 H         1 UNK         0.0000 
@<TRIPOS>BOND
     1    1    2 1    
     2    1   39 1    
     3    1   40 1    
     4    1   41 1    
     5    2   10 1    
     6    2    3 1    
     7    2   38 1    
     8    3    4 1    
     9    3   42 1    
    10    3   43 1    
    11    4    5 2    
    12    4    6 1    
    13    6    7 1    
    14    6    8 1    
    15    6   29 1    
    16    8    9 1    
    17    8   10 1    
    18    8   21 1    
    19   10   11 1    
    20   10   12 1    
    21   12   13 2    
    22   12   14 am   BACKBONE|DICT|INTERRES
    23   14   15 1    
    24   14   44 1    
    25   15   20 ar   
    26   15   16 ar   
    27   16   17 ar   
    28   16   45 1    
    29   17   18 ar   
    30   17   46 1    
    31   18   19 ar   
    32   18   47 1    
    33   19   20 ar   
    34   19   48 1    
    35   20   49 1    
    36   21   22 2    
    37   21   50 1    
    38   22   23 1    
    39   22   51 1    
    40   23   28 ar   
    41   23   24 ar   
    42   24   25 ar   
    43   24   52 1    
    44   25   26 ar   
    45   25   53 1    
    46   26   27 ar   
    47   26   54 1    
    48   27   28 ar   
    49   27   55 1    
    50   28   56 1    
    51   29   30 2    
    52   29   31 am   BACKBONE|DICT|INTERRES
    53   31   32 1    
    54   31   57 1    
    55   32   37 ar   
    56   32   33 ar   
    57   33   34 ar   
    58   33   58 1    
    59   34   35 ar   
    60   34   59 1    
    61   35   36 ar   
    62   35   60 1    
    63   36   37 ar   
    64   36   61 1    
    65   37   62 1    
    66   38   63 1    
@<TRIPOS>SUBSTRUCTURE
     1 UNK         1 GROUP             0       ****    0 ROOT    
