@<TRIPOS>MOLECULE
ZINC43640132_3888
37   39    1
SMALL
USER_CHARGES


@<TRIPOS>ATOM
      1 C1          2.7013   55.0815   29.1999 C.3       1 UNK         0.0000 
      2 C2          3.8146   54.0229   29.1137 C.3       1 UNK         0.0000 
      3 C3          4.6497   54.1376   27.8536 C.2       1 UNK         0.0000 
      4 C4          6.0237   54.2901   27.7173 C.2       1 UNK         0.0000 
      5 C5          6.4650   54.3799   26.3960 C.2       1 UNK         0.0000 
      6 C6          5.4483   54.3178   25.4455 C.2       1 UNK         0.0000 
      7 S7          3.9318   54.0952   26.2678 S.3       1 UNK         0.0000 
      8 C8          5.5921   54.4538   23.9732 C.ar      1 UNK         0.0000 
      9 C9          4.7391   54.0971   22.8852 C.ar      1 UNK         0.0000 
     10 C10         5.4433   54.4689   21.7430 C.ar      1 UNK         0.0000 
     11 N11         6.6090   55.0295   22.1947 N.pl3     1 UNK         0.0000 
     12 N12         6.7044   54.9995   23.5246 N.2       1 UNK         0.0000 
     13 C13         7.6788   55.6470   21.4211 C.3       1 UNK         0.0000 
     14 N14         5.1290   54.3972   20.4118 N.pl3     1 UNK         0.0000 
     15 C15         3.3683   53.5104   22.8539 C.ar      1 UNK         0.0000 
     16 C16         3.1043   52.3762   22.0783 C.ar      1 UNK         0.0000 
     17 C17         1.8178   51.8423   22.0401 C.ar      1 UNK         0.0000 
     18 C18         0.7970   52.4474   22.7718 C.ar      1 UNK         0.0000 
     19 C19         1.0508   53.5866   23.5299 C.ar      1 UNK         0.0000 
     20 C20         2.3282   54.1320   23.5450 C.ar      1 UNK         0.0000 
     21 Cl21       -0.7976   51.7902   22.7269 Cl        1 UNK         0.0000 
     22 H22         2.1139   54.9608   30.1096 H         1 UNK         0.0000 
     23 H23         2.0094   55.0117   28.3606 H         1 UNK         0.0000 
     24 H24         3.1077   56.0934   29.2037 H         1 UNK         0.0000 
     25 H25         4.4500   54.1101   29.9958 H         1 UNK         0.0000 
     26 H26         3.3678   53.0293   29.1680 H         1 UNK         0.0000 
     27 H27         6.6936   54.3503   28.5637 H         1 UNK         0.0000 
     28 H28         7.5034   54.5002   26.1336 H         1 UNK         0.0000 
     29 H29         8.1703   54.8971   20.8044 H         1 UNK         0.0000 
     30 H30         7.2542   56.4167   20.7772 H         1 UNK         0.0000 
     31 H31         8.4154   56.1050   22.0810 H         1 UNK         0.0000 
     32 H32         4.2264   54.0596   20.1052 H         1 UNK         0.0000 
     33 H33         5.7688   54.6906   19.6886 H         1 UNK         0.0000 
     34 H34         3.8961   51.9036   21.5141 H         1 UNK         0.0000 
     35 H35         1.6181   50.9622   21.4470 H         1 UNK         0.0000 
     36 H36         0.2559   54.0621   24.0841 H         1 UNK         0.0000 
     37 H37         2.5099   55.0422   24.0960 H         1 UNK         0.0000 
@<TRIPOS>BOND
     1    1    2 1    
     2    1   22 1    
     3    1   23 1    
     4    1   24 1    
     5    2    3 1    
     6    2   25 1    
     7    2   26 1    
     8    3    7 1    
     9    3    4 2    
    10    4    5 1    
    11    4   27 1    
    12    5    6 2    
    13    5   28 1    
    14    6    7 1    
    15    6    8 1    
    16    8   12 ar   
    17    8    9 ar   
    18    9   10 ar   
    19    9   15 1    
    20   10   11 ar   
    21   10   14 1    
    22   11   12 ar   
    23   11   13 1    
    24   13   29 1    
    25   13   30 1    
    26   13   31 1    
    27   14   32 1    
    28   14   33 1    
    29   15   20 ar   
    30   15   16 ar   
    31   16   17 ar   
    32   16   34 1    
    33   17   18 ar   
    34   17   35 1    
    35   18   19 ar   
    36   18   21 1    
    37   19   20 ar   
    38   19   36 1    
    39   20   37 1    
@<TRIPOS>SUBSTRUCTURE
     1 UNK         1 GROUP             0       ****    0 ROOT    
