ZINC35337739_3657
                    3D
 Schrodinger Suite 2024-2.
 59 62  0  0  1  0            999 V2000
    4.3499   53.2290   27.6584 C   0  0  0  0  0  0
    3.0607   53.1662   26.8338 C   0  0  0  0  0  0
    2.8899   53.4082   25.5011 C   0  0  0  0  0  0
    1.5257   53.0893   24.8045 C   0  0  2  0  0  0
    1.1360   54.0470   24.4488 H   0  0  0  0  0  0
    0.5117   52.6406   25.8097 N   0  0  0  0  0  0
   -0.8516   52.4937   25.2442 C   0  0  0  0  0  0
   -1.9325   52.3510   26.3355 C   0  0  0  0  0  0
   -1.6554   51.2352   27.3513 C   0  0  0  0  0  0
   -0.2080   51.6962   28.3178 S   0  0  0  0  0  0
    0.7900   52.4262   27.1102 C   0  0  0  0  0  0
    2.0060   52.6993   27.5693 N   0  3  0  0  0  0
    1.5896   52.1820   23.5550 C   0  0  0  0  0  0
    1.6229   52.7508   22.2764 C   0  0  0  0  0  0
    1.7237   51.9424   21.1466 C   0  0  0  0  0  0
    1.7733   50.5483   21.2896 C   0  0  0  0  0  0
    1.7095   49.9761   22.5582 C   0  0  0  0  0  0
    1.5895   50.7883   23.6816 C   0  0  0  0  0  0
    1.9152   49.6682   20.2043 N   0  0  0  0  0  0
    1.3945   49.7983   18.9687 C   0  0  0  0  0  0
    0.7013   50.7492   18.6042 O   0  0  0  0  0  0
    1.6952   48.6686   18.1213 C   0  0  0  0  0  0
    1.2825   48.5924   16.8382 C   0  0  0  0  0  0
    1.4990   47.4528   15.9239 C   0  0  0  0  0  0
    1.3797   47.6598   14.5437 C   0  0  0  0  0  0
    1.5553   46.6017   13.6563 C   0  0  0  0  0  0
    1.8477   45.3309   14.1498 C   0  0  0  0  0  0
    1.9817   45.1157   15.5207 C   0  0  0  0  0  0
    1.8132   46.1763   16.4052 C   0  0  0  0  0  0
    3.9561   54.0034   24.6786 C   0  0  0  0  0  0
    4.1410   53.6970   23.5030 O   0  0  0  0  0  0
    4.7522   54.8953   25.2973 N   0  0  0  0  0  0
    5.9854   55.4448   24.7422 C   0  0  0  0  0  0
    5.2240   53.0037   27.0431 H   0  0  0  0  0  0
    4.4805   54.2046   28.1240 H   0  0  0  0  0  0
    4.3548   52.4738   28.4468 H   0  0  0  0  0  0
   -1.0661   53.3366   24.5866 H   0  0  0  0  0  0
   -0.8481   51.6002   24.6183 H   0  0  0  0  0  0
   -2.0466   53.2969   26.8661 H   0  0  0  0  0  0
   -2.8954   52.1660   25.8576 H   0  0  0  0  0  0
   -2.4862   51.0774   28.0418 H   0  0  0  0  0  0
   -1.4377   50.2792   26.8716 H   0  0  0  0  0  0
    1.6098   53.8243   22.1491 H   0  0  0  0  0  0
    1.7821   52.4056   20.1716 H   0  0  0  0  0  0
    1.7492   48.9017   22.6851 H   0  0  0  0  0  0
    1.5042   50.3193   24.6489 H   0  0  0  0  0  0
    2.4267   48.8175   20.3876 H   0  0  0  0  0  0
    2.2778   47.8701   18.5538 H   0  0  0  0  0  0
    0.7211   49.4163   16.4215 H   0  0  0  0  0  0
    1.1542   48.6420   14.1549 H   0  0  0  0  0  0
    1.4535   46.7641   12.5909 H   0  0  0  0  0  0
    1.9717   44.5062   13.4617 H   0  0  0  0  0  0
    2.2218   44.1291   15.8921 H   0  0  0  0  0  0
    1.9035   45.9955   17.4642 H   0  0  0  0  0  0
    4.5501   55.1190   26.2594 H   0  0  0  0  0  0
    6.2470   56.3814   25.2396 H   0  0  0  0  0  0
    6.8068   54.7386   24.9021 H   0  0  0  0  0  0
    5.9085   55.6297   23.6712 H   0  0  0  0  0  0
    2.1566   52.5060   28.5500 H   0  0  0  0  0  0
  1  2  1  0  0  0
  1 34  1  0  0  0
  1 35  1  0  0  0
  1 36  1  0  0  0
  2 12  1  0  0  0
  2  3  2  0  0  0
  3  4  1  0  0  0
  3 30  1  0  0  0
  4  5  1  0  0  0
  4  6  1  0  0  0
  4 13  1  0  0  0
  6 11  1  0  0  0
  6  7  1  0  0  0
  7  8  1  0  0  0
  7 37  1  0  0  0
  7 38  1  0  0  0
  8  9  1  0  0  0
  8 39  1  0  0  0
  8 40  1  0  0  0
  9 10  1  0  0  0
  9 41  1  0  0  0
  9 42  1  0  0  0
 10 11  1  0  0  0
 11 12  2  0  0  0
 12 59  1  0  0  0
 13 18  2  0  0  0
 13 14  1  0  0  0
 14 15  2  0  0  0
 14 43  1  0  0  0
 15 16  1  0  0  0
 15 44  1  0  0  0
 16 17  2  0  0  0
 16 19  1  0  0  0
 17 18  1  0  0  0
 17 45  1  0  0  0
 18 46  1  0  0  0
 19 20  1  0  0  0
 19 47  1  0  0  0
 20 21  2  0  0  0
 20 22  1  0  0  0
 22 23  2  0  0  0
 22 48  1  0  0  0
 23 24  1  0  0  0
 23 49  1  0  0  0
 24 29  2  0  0  0
 24 25  1  0  0  0
 25 26  2  0  0  0
 25 50  1  0  0  0
 26 27  1  0  0  0
 26 51  1  0  0  0
 27 28  2  0  0  0
 27 52  1  0  0  0
 28 29  1  0  0  0
 28 53  1  0  0  0
 29 54  1  0  0  0
 30 31  2  0  0  0
 30 32  1  0  0  0
 32 33  1  0  0  0
 32 55  1  0  0  0
 33 56  1  0  0  0
 33 57  1  0  0  0
 33 58  1  0  0  0
M  CHG  1  12   1
M  END
> <i_i_glide_confnum>
142

> <i_i_glide_lignum>
3658

> <i_i_glide_posenum>
305

> <i_i_glide_rotatable_bonds>
7

> <i_m_Source_File_Index>
6084

> <b_m_subgroup_collapsed>
0

> <r_i_docking_score>
-3.61196

> <r_i_glide_ecoul>
-1.11831

> <r_i_glide_eff_state_penalty>
0

> <r_i_glide_einternal>
7.23295

> <r_i_glide_emodel>
-42.3151

> <r_i_glide_energy>
-34.9552

> <r_i_glide_erotb>
0.499838

> <r_i_glide_esite>
-0.0632597

> <r_i_glide_evdw>
-33.8369

> <r_i_glide_gscore>
-3.61196

> <r_i_glide_hbond>
0

> <r_i_glide_ligand_efficiency>
-0.112874

> <r_i_glide_ligand_efficiency_ln>
-0.808817

> <r_i_glide_ligand_efficiency_sa>
-0.358352

> <r_i_glide_lipo>
-1.40072

> <r_i_glide_metal>
0

> <r_i_glide_rewards>
-0.788225

> <s_i_glide_gridfile>
wee1_glide-grid

> <s_m_Source_File>
wee1_decoys_glide_SP.sdf

> <s_m_Source_Path>
/Users/zhangxujun/Desktop

> <s_m_entry_id>
6359

> <s_m_entry_name>
wee1_decoys_glide_SP.6084

> <s_m_subgroup_title>
wee1_decoys_glide_SP

> <s_m_subgroupid>
wee1_decoys_glide_SP


$$$$
