ZINC21089612_3381
                    3D
 Schrodinger Suite 2024-2.
 70 73  0  0  1  0            999 V2000
   -5.8682   49.9844   30.7696 C   0  0  0  0  0  0
   -5.0031   50.8007   29.8205 C   0  0  0  0  0  0
   -5.5147   51.6935   29.1426 O   0  0  0  0  0  0
   -3.6945   50.4967   29.8254 N   0  0  0  0  0  0
   -2.6763   51.0579   29.0420 C   0  0  0  0  0  0
   -2.8281   51.2939   27.6768 C   0  0  0  0  0  0
   -1.7262   51.6896   26.9303 C   0  0  0  0  0  0
   -0.4888   51.9057   27.5450 C   0  0  0  0  0  0
   -0.3532   51.7307   28.9237 C   0  0  0  0  0  0
   -1.4457   51.2967   29.6662 C   0  0  0  0  0  0
    0.6084   52.2277   26.7363 N   0  0  0  0  0  0
    1.5068   53.2080   26.9357 C   0  0  0  0  0  0
    1.5808   53.8900   27.9616 O   0  0  0  0  0  0
    2.4235   53.4232   25.8331 C   0  0  0  0  0  0
    3.6371   54.1008   25.9611 C   0  0  0  0  0  0
    4.2897   54.1964   24.8388 N   0  0  0  0  0  0
    3.5151   53.6305   23.8938 N   0  0  0  0  0  0
    2.3045   53.1769   24.4419 C   0  0  0  0  0  0
    1.1830   52.5420   23.6058 C   0  0  0  0  0  0
    1.1367   50.9912   23.6998 C   0  0  0  0  0  0
    0.0784   50.3795   22.7588 C   0  0  0  0  0  0
   -1.2086   51.0374   23.0580 N   0  0  0  0  0  0
   -1.2844   52.4967   22.8822 C   0  0  0  0  0  0
   -0.2277   53.1385   23.8185 C   0  0  0  0  0  0
   -2.3178   50.3485   23.5810 C   0  0  0  0  0  0
   -3.4362   50.8430   23.7397 O   0  0  0  0  0  0
   -2.0046   49.0581   23.9120 O   0  0  0  0  0  0
   -2.9261   48.0734   24.4067 C   0  0  0  0  0  0
   -3.9639   47.7137   23.3196 C   0  0  0  0  0  0
   -3.6247   48.5031   25.7184 C   0  0  0  0  0  0
   -2.0402   46.8493   24.7037 C   0  0  0  0  0  0
    4.0540   53.5570   22.5584 C   0  0  0  0  0  0
    5.0114   54.4967   22.1345 C   0  0  0  0  0  0
    5.5043   54.4915   20.8347 C   0  0  0  0  0  0
    5.1038   53.4981   19.9502 C   0  0  0  0  0  0
    4.2261   52.5038   20.3660 C   0  0  0  0  0  0
    3.7095   52.5307   21.6600 C   0  0  0  0  0  0
    5.5974   53.4868   18.6919 F   0  0  0  0  0  0
   -5.7209   48.9177   30.5986 H   0  0  0  0  0  0
   -5.6072   50.2097   31.8046 H   0  0  0  0  0  0
   -6.9260   50.2106   30.6239 H   0  0  0  0  0  0
   -3.3613   49.7991   30.4815 H   0  0  0  0  0  0
   -3.7693   51.1058   27.1852 H   0  0  0  0  0  0
   -1.8647   51.7985   25.8712 H   0  0  0  0  0  0
    0.5991   51.8787   29.4096 H   0  0  0  0  0  0
   -1.3221   51.1057   30.7241 H   0  0  0  0  0  0
    0.6175   51.8028   25.8218 H   0  0  0  0  0  0
    4.0478   54.4948   26.8804 H   0  0  0  0  0  0
    1.3480   52.7859   22.5585 H   0  0  0  0  0  0
    0.9219   50.6398   24.7075 H   0  0  0  0  0  0
    2.0875   50.5496   23.4058 H   0  0  0  0  0  0
    0.0516   49.2909   22.8251 H   0  0  0  0  0  0
    0.3240   50.6173   21.7220 H   0  0  0  0  0  0
   -1.0509   52.7038   21.8374 H   0  0  0  0  0  0
   -2.2823   52.8990   23.0718 H   0  0  0  0  0  0
   -0.2056   54.2178   23.6817 H   0  0  0  0  0  0
   -0.6002   53.0143   24.8179 H   0  0  0  0  0  0
   -4.5976   46.8841   23.6336 H   0  0  0  0  0  0
   -3.4765   47.4247   22.3880 H   0  0  0  0  0  0
   -4.6199   48.5549   23.0927 H   0  0  0  0  0  0
   -2.8943   48.7771   26.4806 H   0  0  0  0  0  0
   -4.2903   49.3529   25.5789 H   0  0  0  0  0  0
   -4.2276   47.6935   26.1304 H   0  0  0  0  0  0
   -1.2804   47.0877   25.4499 H   0  0  0  0  0  0
   -2.6281   46.0216   25.0957 H   0  0  0  0  0  0
   -1.5195   46.5020   23.8104 H   0  0  0  0  0  0
    5.3946   55.2431   22.8075 H   0  0  0  0  0  0
    6.2181   55.2379   20.5171 H   0  0  0  0  0  0
    3.9549   51.7127   19.6801 H   0  0  0  0  0  0
    3.0597   51.7202   21.9339 H   0  0  0  0  0  0
  1  2  1  0  0  0
  1 39  1  0  0  0
  1 40  1  0  0  0
  1 41  1  0  0  0
  2  3  2  0  0  0
  2  4  1  0  0  0
  4  5  1  0  0  0
  4 42  1  0  0  0
  5 10  2  0  0  0
  5  6  1  0  0  0
  6  7  2  0  0  0
  6 43  1  0  0  0
  7  8  1  0  0  0
  7 44  1  0  0  0
  8  9  2  0  0  0
  8 11  1  0  0  0
  9 10  1  0  0  0
  9 45  1  0  0  0
 10 46  1  0  0  0
 11 12  1  0  0  0
 11 47  1  0  0  0
 12 13  2  0  0  0
 12 14  1  0  0  0
 14 18  2  0  0  0
 14 15  1  0  0  0
 15 16  2  0  0  0
 15 48  1  0  0  0
 16 17  1  0  0  0
 17 18  1  0  0  0
 17 32  1  0  0  0
 18 19  1  0  0  0
 19 24  1  0  0  0
 19 20  1  0  0  0
 19 49  1  0  0  0
 20 21  1  0  0  0
 20 50  1  0  0  0
 20 51  1  0  0  0
 21 22  1  0  0  0
 21 52  1  0  0  0
 21 53  1  0  0  0
 22 23  1  0  0  0
 22 25  1  0  0  0
 23 24  1  0  0  0
 23 54  1  0  0  0
 23 55  1  0  0  0
 24 56  1  0  0  0
 24 57  1  0  0  0
 25 26  2  0  0  0
 25 27  1  0  0  0
 27 28  1  0  0  0
 28 29  1  0  0  0
 28 30  1  0  0  0
 28 31  1  0  0  0
 29 58  1  0  0  0
 29 59  1  0  0  0
 29 60  1  0  0  0
 30 61  1  0  0  0
 30 62  1  0  0  0
 30 63  1  0  0  0
 31 64  1  0  0  0
 31 65  1  0  0  0
 31 66  1  0  0  0
 32 37  2  0  0  0
 32 33  1  0  0  0
 33 34  2  0  0  0
 33 67  1  0  0  0
 34 35  1  0  0  0
 34 68  1  0  0  0
 35 36  2  0  0  0
 35 38  1  0  0  0
 36 37  1  0  0  0
 36 69  1  0  0  0
 37 70  1  0  0  0
M  END
> <i_i_glide_confnum>
10

> <i_i_glide_lignum>
3382

> <i_i_glide_posenum>
164

> <i_i_glide_rotatable_bonds>
10

> <i_m_Source_File_Index>
4636

> <b_m_subgroup_collapsed>
0

> <r_i_docking_score>
-3.40563

> <r_i_glide_ecoul>
-3.62788

> <r_i_glide_eff_state_penalty>
0

> <r_i_glide_einternal>
12.2901

> <r_i_glide_emodel>
-40.81

> <r_i_glide_energy>
-39.0089

> <r_i_glide_erotb>
0.604551

> <r_i_glide_esite>
-0.215971

> <r_i_glide_evdw>
-35.381

> <r_i_glide_gscore>
-3.40563

> <r_i_glide_hbond>
-0.0981525

> <r_i_glide_ligand_efficiency>
-0.0896219

> <r_i_glide_ligand_efficiency_ln>
-0.734354

> <r_i_glide_ligand_efficiency_sa>
-0.301307

> <r_i_glide_lipo>
-1.4428

> <r_i_glide_metal>
0

> <r_i_glide_rewards>
0.0599773

> <s_i_glide_gridfile>
wee1_glide-grid

> <s_m_Source_File>
wee1_decoys_glide_SP.sdf

> <s_m_Source_Path>
/Users/zhangxujun/Desktop

> <s_m_entry_id>
4911

> <s_m_entry_name>
wee1_decoys_glide_SP.4636

> <s_m_subgroup_title>
wee1_decoys_glide_SP

> <s_m_subgroupid>
wee1_decoys_glide_SP


$$$$
