@<TRIPOS>MOLECULE
ZINC13958100_710
55   58    1
SMALL
USER_CHARGES


@<TRIPOS>ATOM
      1 C1          6.7764   54.9245   23.4555 C.3       1 UNK         0.0000 
      2 C2          5.3825   54.4958   23.8797 C.ar      1 UNK         0.0000 
      3 C3          4.4664   54.1110   22.8976 C.ar      1 UNK         0.0000 
      4 C4          3.1869   53.6967   23.2514 C.ar      1 UNK         0.0000 
      5 C5          2.8111   53.6088   24.5965 C.ar      1 UNK         0.0000 
      6 C6          3.7208   54.0295   25.5787 C.ar      1 UNK         0.0000 
      7 C7          5.0057   54.4617   25.2327 C.ar      1 UNK         0.0000 
      8 C8          5.9792   54.8498   26.3379 C.3       1 UNK         0.0000 
      9 C9          1.4547   52.9809   24.9344 C.3       1 UNK         0.0000 
     10 H10         0.6983   53.6228   24.4789 H         1 UNK         0.0000 
     11 C11         1.1301   52.8095   26.4351 C.3       1 UNK         0.0000 
     12 C12        -0.1815   52.0260   26.7297 C.3       1 UNK         0.0000 
     13 H13        -1.0237   52.5576   26.2858 H         1 UNK         0.0000 
     14 N14        -0.0745   50.7550   25.9725 N.pl3     1 UNK         0.0000 
     15 C15         0.5132   50.6717   24.7695 C.ar      1 UNK         0.0000 
     16 N16         1.2827   51.6632   24.3190 N.pl3     1 UNK         0.0000 
     17 C17         0.0906   49.4930   24.2186 C.ar      1 UNK         0.0000 
     18 C18        -0.8990   48.9682   24.9632 C.ar      1 UNK         0.0000 
     19 N19        -1.0464   49.7683   26.0817 N.pl3     1 UNK         0.0000 
     20 C20        -1.7240   47.7881   24.7137 C.2       1 UNK         0.0000 
     21 O21        -2.0851   47.1045   25.6815 O.2       1 UNK         0.0000 
     22 N22        -2.1417   47.5589   23.4165 N.am      1 UNK         0.0000 
     23 C23        -3.4168   46.9382   22.9601 C.3       1 UNK         0.0000 
     24 C24        -3.1484   46.6765   21.4771 C.3       1 UNK         0.0000 
     25 C25        -1.7964   47.2833   21.2715 C.2       1 UNK         0.0000 
     26 N26        -1.3061   47.7455   22.3448 N.2       1 UNK         0.0000 
     27 C27        -1.1226   47.3363   19.9191 C.3       1 UNK         0.0000 
     28 C28        -4.6370   47.8872   23.2130 C.3       1 UNK         0.0000 
     29 F29        -4.4280   49.0867   22.6618 F         1 UNK         0.0000 
     30 F30        -4.8690   48.1069   24.5096 F         1 UNK         0.0000 
     31 F31        -5.7688   47.4209   22.6767 F         1 UNK         0.0000 
     32 O32        -3.6934   45.6964   23.5634 O.co2     1 UNK         0.0000 
     33 C33        -0.4241   51.9166   28.2527 C.3       1 UNK         0.0000 
     34 F34        -0.4953   53.1304   28.7957 F         1 UNK         0.0000 
     35 F35        -1.5659   51.2967   28.5405 F         1 UNK         0.0000 
     36 F36         0.5741   51.2962   28.8747 F         1 UNK         0.0000 
     37 H37         6.9959   55.9344   23.8011 H         1 UNK         0.0000 
     38 H38         7.5042   54.2529   23.9056 H         1 UNK         0.0000 
     39 H39         6.9136   54.8992   22.3741 H         1 UNK         0.0000 
     40 H40         4.7395   54.1380   21.8522 H         1 UNK         0.0000 
     41 H41         2.5035   53.4006   22.4681 H         1 UNK         0.0000 
     42 H42         3.4603   53.9803   26.6248 H         1 UNK         0.0000 
     43 H43         6.4680   55.7936   26.1043 H         1 UNK         0.0000 
     44 H44         5.4816   54.9763   27.3004 H         1 UNK         0.0000 
     45 H45         6.7554   54.0905   26.4404 H         1 UNK         0.0000 
     46 H46         1.1050   53.7902   26.9106 H         1 UNK         0.0000 
     47 H47         1.9572   52.2773   26.9112 H         1 UNK         0.0000 
     48 H48         0.4594   49.1141   23.2776 H         1 UNK         0.0000 
     49 H49        -1.2568   49.3932   27.0207 H         1 UNK         0.0000 
     50 H50        -3.1209   45.6182   21.2137 H         1 UNK         0.0000 
     51 H51        -3.8854   47.1613   20.8379 H         1 UNK         0.0000 
     52 H52        -1.1269   48.3533   19.5271 H         1 UNK         0.0000 
     53 H53        -0.0852   47.0080   19.9883 H         1 UNK         0.0000 
     54 H54        -1.6287   46.6956   19.1972 H         1 UNK         0.0000 
     55 H55         1.7372   51.5254   23.4271 H         1 UNK         0.0000 
@<TRIPOS>BOND
     1    1    2 1    
     2    1   37 1    
     3    1   38 1    
     4    1   39 1    
     5    2    7 ar   
     6    2    3 ar   
     7    3    4 ar   
     8    3   40 1    
     9    4    5 ar   
    10    4   41 1    
    11    5    6 ar   
    12    5    9 1    
    13    6    7 ar   
    14    6   42 1    
    15    7    8 1    
    16    8   43 1    
    17    8   44 1    
    18    8   45 1    
    19    9   10 1    
    20    9   16 1    
    21    9   11 1    
    22   11   12 1    
    23   11   46 1    
    24   11   47 1    
    25   12   13 1    
    26   12   14 1    
    27   12   33 1    
    28   14   19 1    
    29   14   15 ar   
    30   15   16 2    
    31   15   17 ar   
    32   16   55 1    
    33   17   18 ar   
    34   17   48 1    
    35   18   19 ar   
    36   18   20 1    
    37   19   49 1    
    38   20   21 2    
    39   20   22 am   BACKBONE|DICT|INTERRES
    40   22   26 1    
    41   22   23 1    
    42   23   24 1    
    43   23   28 1    
    44   23   32 1    
    45   24   25 1    
    46   24   50 1    
    47   24   51 1    
    48   25   26 2    
    49   25   27 1    
    50   27   52 1    
    51   27   53 1    
    52   27   54 1    
    53   28   29 1    
    54   28   30 1    
    55   28   31 1    
    56   33   34 1    
    57   33   35 1    
    58   33   36 1    
@<TRIPOS>SUBSTRUCTURE
     1 UNK         1 GROUP             0       ****    0 ROOT    
