ZINC35489157_2878
                    3D
 Schrodinger Suite 2024-2.
 79 82  0  0  1  0            999 V2000
    6.7692   51.7564   14.4608 C   0  0  0  0  0  0
    8.0255   52.1947   15.2074 C   0  0  0  0  0  0
    9.2646   52.0063   14.5858 C   0  0  0  0  0  0
   10.4435   52.3958   15.2195 C   0  0  0  0  0  0
   10.3921   52.9781   16.4831 C   0  0  0  0  0  0
    9.1650   53.1670   17.1173 C   0  0  0  0  0  0
    7.9690   52.7745   16.4912 C   0  0  0  0  0  0
    6.7085   52.8967   17.1102 N   0  0  0  0  0  0
    6.3219   53.6854   18.1289 C   0  0  0  0  0  0
    7.0172   54.5331   18.6888 O   0  0  0  0  0  0
    5.0567   53.4069   18.4748 N   0  0  0  0  0  0
    4.3756   53.9011   19.6673 C   0  0  0  0  0  0
    4.4617   52.8786   20.8112 C   0  0  0  0  0  0
    3.9060   53.3705   22.0805 N   0  0  0  0  0  0
    2.4454   53.1866   22.1991 C   0  0  0  0  0  0
    2.0543   51.9349   23.0029 C   0  0  0  0  0  0
    0.6524   51.9133   23.2371 O   0  0  0  0  0  0
    0.2289   50.9182   24.1750 C   0  0  2  0  0  0
    0.7908   51.0778   25.0979 H   0  0  0  0  0  0
    0.3842   49.4732   23.6309 C   0  0  0  0  0  0
   -1.0594   48.9166   23.7303 C   0  0  1  0  0  0
   -1.2188   48.0231   23.1255 H   0  0  0  0  0  0
   -1.3676   48.6974   25.2334 C   0  0  0  0  0  0
   -1.5447   50.1434   25.7446 C   0  0  0  0  0  0
   -1.3047   51.0003   24.4640 C   0  0  2  0  0  0
   -1.9486   50.1259   23.3438 C   0  0  0  0  0  0
   -3.4813   49.8664   23.4886 C   0  0  0  0  0  0
   -1.7522   50.6342   21.8820 C   0  0  0  0  0  0
   -1.8524   52.4357   24.6054 C   0  0  0  0  0  0
    4.7199   53.8700   23.0556 C   0  0  0  0  0  0
    5.9320   54.0150   22.8887 O   0  0  0  0  0  0
    4.0934   54.1027   24.2327 N   0  0  0  0  0  0
    4.6136   54.2622   25.5333 C   0  0  0  0  0  0
    5.9600   54.5755   25.7956 C   0  0  0  0  0  0
    6.4168   54.6823   27.1079 C   0  0  0  0  0  0
    5.5411   54.4961   28.1729 C   0  0  0  0  0  0
    4.2058   54.1909   27.9290 C   0  0  0  0  0  0
    3.7310   54.0686   26.6194 C   0  0  0  0  0  0
    2.2594   53.7092   26.4324 C   0  0  0  0  0  0
    6.9917   51.0127   13.6949 H   0  0  0  0  0  0
    6.0458   51.2958   15.1327 H   0  0  0  0  0  0
    6.2902   52.6164   13.9895 H   0  0  0  0  0  0
    9.3213   51.5579   13.6037 H   0  0  0  0  0  0
   11.3948   52.2394   14.7323 H   0  0  0  0  0  0
   11.3056   53.2696   16.9822 H   0  0  0  0  0  0
    9.1665   53.5919   18.1088 H   0  0  0  0  0  0
    5.9979   52.2918   16.7267 H   0  0  0  0  0  0
    4.5971   52.6520   17.9884 H   0  0  0  0  0  0
    3.3344   54.0963   19.4110 H   0  0  0  0  0  0
    4.7884   54.8612   19.9861 H   0  0  0  0  0  0
    5.5039   52.5842   20.9458 H   0  0  0  0  0  0
    3.9205   51.9757   20.5259 H   0  0  0  0  0  0
    1.9433   53.1691   21.2309 H   0  0  0  0  0  0
    1.9971   54.0590   22.6781 H   0  0  0  0  0  0
    2.5826   51.9404   23.9553 H   0  0  0  0  0  0
    2.3831   51.0410   22.4719 H   0  0  0  0  0  0
    1.1040   48.8970   24.2139 H   0  0  0  0  0  0
    0.7237   49.4503   22.5947 H   0  0  0  0  0  0
   -2.2740   48.1098   25.3827 H   0  0  0  0  0  0
   -0.5666   48.1716   25.7558 H   0  0  0  0  0  0
   -0.8441   50.3728   26.5496 H   0  0  0  0  0  0
   -2.5409   50.2925   26.1642 H   0  0  0  0  0  0
   -3.8101   49.0964   22.7906 H   0  0  0  0  0  0
   -3.7979   49.5349   24.4758 H   0  0  0  0  0  0
   -4.0535   50.7678   23.2660 H   0  0  0  0  0  0
   -2.1563   49.9199   21.1643 H   0  0  0  0  0  0
   -2.2764   51.5783   21.7249 H   0  0  0  0  0  0
   -0.7190   50.7979   21.5872 H   0  0  0  0  0  0
   -1.3544   52.9552   25.4224 H   0  0  0  0  0  0
   -2.9222   52.4388   24.8170 H   0  0  0  0  0  0
   -1.6926   53.0178   23.6979 H   0  0  0  0  0  0
    3.0977   53.9576   24.2178 H   0  0  0  0  0  0
    6.6715   54.7396   25.0022 H   0  0  0  0  0  0
    7.4511   54.9126   27.3097 H   0  0  0  0  0  0
    5.9032   54.5927   29.1867 H   0  0  0  0  0  0
    3.5398   54.0409   28.7653 H   0  0  0  0  0  0
    1.6532   54.1382   27.2313 H   0  0  0  0  0  0
    1.8415   54.0944   25.5029 H   0  0  0  0  0  0
    2.1331   52.6273   26.4559 H   0  0  0  0  0  0
  1  2  1  0  0  0
  1 40  1  0  0  0
  1 41  1  0  0  0
  1 42  1  0  0  0
  2  7  2  0  0  0
  2  3  1  0  0  0
  3  4  2  0  0  0
  3 43  1  0  0  0
  4  5  1  0  0  0
  4 44  1  0  0  0
  5  6  2  0  0  0
  5 45  1  0  0  0
  6  7  1  0  0  0
  6 46  1  0  0  0
  7  8  1  0  0  0
  8  9  1  0  0  0
  8 47  1  0  0  0
  9 10  2  0  0  0
  9 11  1  0  0  0
 11 12  1  0  0  0
 11 48  1  0  0  0
 12 13  1  0  0  0
 12 49  1  0  0  0
 12 50  1  0  0  0
 13 14  1  0  0  0
 13 51  1  0  0  0
 13 52  1  0  0  0
 14 15  1  0  0  0
 14 30  1  0  0  0
 15 16  1  0  0  0
 15 53  1  0  0  0
 15 54  1  0  0  0
 16 17  1  0  0  0
 16 55  1  0  0  0
 16 56  1  0  0  0
 17 18  1  0  0  0
 18 19  1  0  0  0
 18 25  1  0  0  0
 18 20  1  0  0  0
 20 21  1  0  0  0
 20 57  1  0  0  0
 20 58  1  0  0  0
 21 22  1  0  0  0
 21 26  1  0  0  0
 21 23  1  0  0  0
 23 24  1  0  0  0
 23 59  1  0  0  0
 23 60  1  0  0  0
 24 25  1  0  0  0
 24 61  1  0  0  0
 24 62  1  0  0  0
 25 26  1  0  0  0
 25 29  1  0  0  0
 26 27  1  0  0  0
 26 28  1  0  0  0
 27 63  1  0  0  0
 27 64  1  0  0  0
 27 65  1  0  0  0
 28 66  1  0  0  0
 28 67  1  0  0  0
 28 68  1  0  0  0
 29 69  1  0  0  0
 29 70  1  0  0  0
 29 71  1  0  0  0
 30 31  2  0  0  0
 30 32  1  0  0  0
 32 33  1  0  0  0
 32 72  1  0  0  0
 33 38  2  0  0  0
 33 34  1  0  0  0
 34 35  2  0  0  0
 34 73  1  0  0  0
 35 36  1  0  0  0
 35 74  1  0  0  0
 36 37  2  0  0  0
 36 75  1  0  0  0
 37 38  1  0  0  0
 37 76  1  0  0  0
 38 39  1  0  0  0
 39 77  1  0  0  0
 39 78  1  0  0  0
 39 79  1  0  0  0
M  END
> <i_i_glide_confnum>
323

> <i_i_glide_lignum>
2879

> <i_i_glide_posenum>
331

> <i_i_glide_rotatable_bonds>
13

> <i_m_Source_File_Index>
4975

> <b_m_subgroup_collapsed>
0

> <r_i_docking_score>
-4.30983

> <r_i_glide_ecoul>
-3.22575

> <r_i_glide_eff_state_penalty>
0

> <r_i_glide_einternal>
6.85529

> <r_i_glide_emodel>
-57.3774

> <r_i_glide_energy>
-46.8292

> <r_i_glide_erotb>
1.03614

> <r_i_glide_esite>
-0.162826

> <r_i_glide_evdw>
-43.6035

> <r_i_glide_gscore>
-4.30983

> <r_i_glide_hbond>
-0.00317369

> <r_i_glide_ligand_efficiency>
-0.116482

> <r_i_glide_ligand_efficiency_ln>
-0.934702

> <r_i_glide_ligand_efficiency_sa>
-0.388144

> <r_i_glide_lipo>
-2.1719

> <r_i_glide_metal>
0

> <r_i_glide_rewards>
-0.344039

> <s_i_glide_gridfile>
wee1_glide-grid

> <s_m_Source_File>
wee1_decoys_glide_SP.sdf

> <s_m_Source_Path>
/Users/zhangxujun/Desktop

> <s_m_entry_id>
5250

> <s_m_entry_name>
wee1_decoys_glide_SP.4975

> <s_m_subgroup_title>
wee1_decoys_glide_SP

> <s_m_subgroupid>
wee1_decoys_glide_SP


$$$$
