@<TRIPOS>MOLECULE
ZINC16572283_4480
66   70    1
SMALL
USER_CHARGES


@<TRIPOS>ATOM
      1 C1          6.4956   53.6492   15.3500 C.3       1 UNK         0.0000 
      2 C2          6.0346   53.5541   16.8134 C.3       1 UNK         0.0000 
      3 C3          4.7139   54.3220   17.0982 C.3       1 UNK         0.0000 
      4 H4          4.0354   54.0571   16.2847 H         1 UNK         0.0000 
      5 C5          4.8954   55.8501   16.9788 C.3       1 UNK         0.0000 
      6 C6          3.9625   53.8943   18.4034 C.3       1 UNK         0.0000 
      7 H7          3.0599   54.5096   18.4601 H         1 UNK         0.0000 
      8 C8          4.7507   54.1784   19.7187 C.2       1 UNK         0.0000 
      9 O9          5.8925   54.6432   19.6891 O.2       1 UNK         0.0000 
     10 N10         4.0791   53.8873   20.8526 N.am      1 UNK         0.0000 
     11 C11         4.5320   54.0465   22.1486 C.2       1 UNK         0.0000 
     12 N12         5.7525   54.3119   22.5642 N.2       1 UNK         0.0000 
     13 N13         5.8309   54.3725   23.9517 N.2       1 UNK         0.0000 
     14 C14         4.6755   54.1537   24.5452 C.2       1 UNK         0.0000 
     15 S15         3.3689   53.8696   23.4178 S.3       1 UNK         0.0000 
     16 C16         4.4789   54.0978   26.0279 C.ar      1 UNK         0.0000 
     17 C17         3.1970   53.9551   26.5733 C.ar      1 UNK         0.0000 
     18 C18         3.0235   53.8510   27.9475 C.ar      1 UNK         0.0000 
     19 C19         4.1329   53.8842   28.7865 C.ar      1 UNK         0.0000 
     20 C20         5.4134   54.0504   28.2640 C.ar      1 UNK         0.0000 
     21 C21         5.5849   54.1556   26.8868 C.ar      1 UNK         0.0000 
     22 Cl22        3.9045   53.6967   30.4816 Cl        1 UNK         0.0000 
     23 N23         3.5193   52.4968   18.2930 N.am      1 UNK         0.0000 
     24 C24         2.4867   51.9246   18.9220 C.2       1 UNK         0.0000 
     25 O25         1.7860   52.4925   19.7621 O.2       1 UNK         0.0000 
     26 N26         2.3040   50.6677   18.4907 N.am      1 UNK         0.0000 
     27 C27         1.1609   49.7875   18.7577 C.3       1 UNK         0.0000 
     28 C28        -0.2020   50.4233   18.3215 C.3       1 UNK         0.0000 
     29 C29        -1.3828   49.4478   18.5634 C.3       1 UNK         0.0000 
     30 C30        -1.4490   49.0891   20.0699 C.3       1 UNK         0.0000 
     31 C31        -0.1258   48.4114   20.5067 C.3       1 UNK         0.0000 
     32 C32         1.0547   49.3888   20.2668 C.3       1 UNK         0.0000 
     33 C33         0.1026   47.1263   19.6704 C.3       1 UNK         0.0000 
     34 C34         0.1695   47.4901   18.1664 C.3       1 UNK         0.0000 
     35 C35        -1.1572   48.1605   17.7319 C.3       1 UNK         0.0000 
     36 C36         1.3439   48.4751   17.9359 C.3       1 UNK         0.0000 
     37 H37         7.2697   52.9102   15.1411 H         1 UNK         0.0000 
     38 H38         5.6732   53.4747   14.6528 H         1 UNK         0.0000 
     39 H39         6.9174   54.6331   15.1324 H         1 UNK         0.0000 
     40 H40         6.8356   53.9273   17.4524 H         1 UNK         0.0000 
     41 H41         5.9214   52.4971   17.0637 H         1 UNK         0.0000 
     42 H42         5.6296   56.2318   17.6889 H         1 UNK         0.0000 
     43 H43         5.2302   56.1318   15.9800 H         1 UNK         0.0000 
     44 H44         3.9533   56.3709   17.1610 H         1 UNK         0.0000 
     45 H45         3.1317   53.5437   20.7381 H         1 UNK         0.0000 
     46 H46         2.3220   53.9080   25.9446 H         1 UNK         0.0000 
     47 H47         2.0323   53.7245   28.3584 H         1 UNK         0.0000 
     48 H48         6.2715   54.0897   28.9186 H         1 UNK         0.0000 
     49 H49         6.5857   54.2558   26.4965 H         1 UNK         0.0000 
     50 H50         4.1829   51.8716   17.8509 H         1 UNK         0.0000 
     51 H51         3.0336   50.2584   17.9186 H         1 UNK         0.0000 
     52 H52        -0.1617   50.7045   17.2679 H         1 UNK         0.0000 
     53 H53        -0.3867   51.3495   18.8672 H         1 UNK         0.0000 
     54 H54        -2.3150   49.9232   18.2576 H         1 UNK         0.0000 
     55 H55        -2.2943   48.4256   20.2639 H         1 UNK         0.0000 
     56 H56        -1.6277   49.9878   20.6652 H         1 UNK         0.0000 
     57 H57        -0.1780   48.1589   21.5662 H         1 UNK         0.0000 
     58 H58         0.9194   50.2756   20.8884 H         1 UNK         0.0000 
     59 H59         1.9905   48.9346   20.6024 H         1 UNK         0.0000 
     60 H60        -0.6967   46.4061   19.8560 H         1 UNK         0.0000 
     61 H61         1.0291   46.6424   19.9724 H         1 UNK         0.0000 
     62 H62         0.3330   46.5860   17.5785 H         1 UNK         0.0000 
     63 H63        -1.1297   48.3992   16.6687 H         1 UNK         0.0000 
     64 H64        -1.9940   47.4717   17.8667 H         1 UNK         0.0000 
     65 H65         2.2890   47.9948   18.1994 H         1 UNK         0.0000 
     66 H66         1.4246   48.7090   16.8725 H         1 UNK         0.0000 
@<TRIPOS>BOND
     1    1    2 1    
     2    1   37 1    
     3    1   38 1    
     4    1   39 1    
     5    2    3 1    
     6    2   40 1    
     7    2   41 1    
     8    3    4 1    
     9    3    5 1    
    10    3    6 1    
    11    5   42 1    
    12    5   43 1    
    13    5   44 1    
    14    6    7 1    
    15    6    8 1    
    16    6   23 1    
    17    8    9 2    
    18    8   10 am   BACKBONE|DICT|INTERRES
    19   10   11 am   BACKBONE|DICT|INTERRES
    20   10   45 1    
    21   11   15 1    
    22   11   12 2    
    23   12   13 1    
    24   13   14 2    
    25   14   15 1    
    26   14   16 1    
    27   16   21 ar   
    28   16   17 ar   
    29   17   18 ar   
    30   17   46 1    
    31   18   19 ar   
    32   18   47 1    
    33   19   20 ar   
    34   19   22 1    
    35   20   21 ar   
    36   20   48 1    
    37   21   49 1    
    38   23   24 am   BACKBONE|DICT|INTERRES
    39   23   50 1    
    40   24   25 2    
    41   24   26 am   BACKBONE|DICT|INTERRES
    42   26   27 1    
    43   26   51 1    
    44   27   32 1    
    45   27   36 1    
    46   27   28 1    
    47   28   29 1    
    48   28   52 1    
    49   28   53 1    
    50   29   35 1    
    51   29   30 1    
    52   29   54 1    
    53   30   31 1    
    54   30   55 1    
    55   30   56 1    
    56   31   32 1    
    57   31   33 1    
    58   31   57 1    
    59   32   58 1    
    60   32   59 1    
    61   33   34 1    
    62   33   60 1    
    63   33   61 1    
    64   34   35 1    
    65   34   36 1    
    66   34   62 1    
    67   35   63 1    
    68   35   64 1    
    69   36   65 1    
    70   36   66 1    
@<TRIPOS>SUBSTRUCTURE
     1 UNK         1 GROUP             0       ****    0 ROOT    
