@<TRIPOS>MOLECULE
ZINC20744943_6181
28   30    1
SMALL
USER_CHARGES


@<TRIPOS>ATOM
      1 C1          5.8561   55.3325   19.6336 C.ar      1 UNK         0.0000 
      2 C2          4.9330   54.5888   20.3646 C.ar      1 UNK         0.0000 
      3 C3          5.1468   54.3020   21.7225 C.ar      1 UNK         0.0000 
      4 C4          6.3048   54.8156   22.3448 C.ar      1 UNK         0.0000 
      5 C5          7.2191   55.5692   21.6074 C.ar      1 UNK         0.0000 
      6 C6          7.0025   55.8162   20.2548 C.ar      1 UNK         0.0000 
      7 F7          7.9044   56.5277   19.5469 F         1 UNK         0.0000 
      8 Cl8         6.6581   54.5354   24.0183 Cl        1 UNK         0.0000 
      9 C9          4.1400   53.4304   22.4931 C.3       1 UNK         0.0000 
     10 H10         4.7472   52.8970   23.2194 H         1 UNK         0.0000 
     11 C11         3.4640   52.3423   21.6483 C.ar      1 UNK         0.0000 
     12 C12         4.0690   51.5838   20.6518 C.ar      1 UNK         0.0000 
     13 N13         3.1043   50.8138   20.0776 N.pl3     1 UNK         0.0000 
     14 H14         3.2498   50.2169   19.2695 H         1 UNK         0.0000 
     15 N15         1.9161   50.9848   20.6466 N.2       1 UNK         0.0000 
     16 C16         2.1211   51.8656   21.6025 C.ar      1 UNK         0.0000 
     17 N17         1.0008   52.2304   22.3190 N.am      1 UNK         0.0000 
     18 C18         0.8225   52.8184   23.5148 C.2       1 UNK         0.0000 
     19 O19        -0.2919   53.1007   23.9482 O.2       1 UNK         0.0000 
     20 C20         2.0973   53.1604   24.2841 C.3       1 UNK         0.0000 
     21 S21         3.0483   54.4859   23.4989 S.3       1 UNK         0.0000 
     22 H22         5.6786   55.5367   18.5873 H         1 UNK         0.0000 
     23 H23         4.0408   54.2403   19.8639 H         1 UNK         0.0000 
     24 H24         8.1125   55.9514   22.0803 H         1 UNK         0.0000 
     25 H25         5.0752   51.5760   20.2560 H         1 UNK         0.0000 
     26 H26         0.1331   51.9761   21.8747 H         1 UNK         0.0000 
     27 H27         1.8088   53.5031   25.2783 H         1 UNK         0.0000 
     28 H28         2.7006   52.2686   24.4426 H         1 UNK         0.0000 
@<TRIPOS>BOND
     1    1    6 ar   
     2    1    2 ar   
     3    1   22 1    
     4    2    3 ar   
     5    2   23 1    
     6    3    4 ar   
     7    3    9 1    
     8    4    5 ar   
     9    4    8 1    
    10    5    6 ar   
    11    5   24 1    
    12    6    7 1    
    13    9   10 1    
    14    9   21 1    
    15    9   11 1    
    16   11   16 ar   
    17   11   12 ar   
    18   12   13 ar   
    19   12   25 1    
    20   13   14 1    
    21   13   15 ar   
    22   15   16 ar   
    23   16   17 1    
    24   17   18 am   BACKBONE|DICT|INTERRES
    25   17   26 1    
    26   18   19 2    
    27   18   20 1    
    28   20   21 1    
    29   20   27 1    
    30   20   28 1    
@<TRIPOS>SUBSTRUCTURE
     1 UNK         1 GROUP             0       ****    0 ROOT    
