ZINC04199842_5623
                    3D
 Schrodinger Suite 2024-2.
 60 62  0  0  1  0            999 V2000
   -1.1720   53.0824   23.9331 C   0  0  0  0  0  0
   -1.1880   52.4954   25.3315 C   0  0  0  0  0  0
   -0.1897   52.4298   26.3304 C   0  0  0  0  0  0
   -0.6868   51.8934   27.5716 C   0  0  0  0  0  0
   -2.0388   51.4951   27.4614 C   0  0  0  0  0  0
   -2.6727   51.8155   25.8792 S   0  0  0  0  0  0
   -2.8213   50.8997   28.4671 N   0  0  0  0  0  0
   -4.0888   50.4207   28.3959 C   0  0  0  0  0  0
   -4.7789   50.4260   27.3752 O   0  0  0  0  0  0
   -4.6594   49.7858   29.6947 C   0  0  2  0  0  0
   -3.7695   49.3910   30.1936 H   0  0  0  0  0  0
   -5.5730   48.5525   29.4221 C   0  0  0  0  0  0
   -6.3560   48.1514   30.6697 C   0  0  0  0  0  0
   -6.3946   48.8587   31.8165 C   0  0  0  0  0  0
   -5.6949   50.1971   32.0319 C   0  0  0  0  0  0
   -5.2635   50.8432   30.6844 C   0  0  2  0  0  0
   -4.4959   51.5749   30.9121 H   0  0  0  0  0  0
   -6.4330   51.6966   30.1044 C   0  0  0  0  0  0
   -7.2956   51.1447   29.3883 O   0  0  0  0  0  0
    0.1053   51.7652   28.8031 C   0  0  0  0  0  0
    1.2453   51.2967   28.8492 O   0  0  0  0  0  0
   -0.5222   52.3812   29.8245 O   0  0  0  0  0  0
    0.1335   52.6167   31.0626 C   0  0  0  0  0  0
    1.2168   52.9618   26.0804 C   0  0  0  0  0  0
    1.8143   52.8492   24.8191 C   0  0  0  0  0  0
    3.1046   53.3162   24.5856 C   0  0  0  0  0  0
    3.8754   53.8526   25.6286 C   0  0  0  0  0  0
    3.2570   54.0297   26.8718 C   0  0  0  0  0  0
    1.9452   53.6189   27.0824 C   0  0  0  0  0  0
    5.3935   54.1638   25.4768 C   0  0  0  0  0  0
    6.2084   53.3046   26.4857 C   0  0  0  0  0  0
    5.6895   55.6129   25.8558 C   0  0  0  0  0  0
    5.9269   53.9536   24.0327 C   0  0  0  0  0  0
   -0.9631   52.3234   23.1783 H   0  0  0  0  0  0
   -2.1308   53.5331   23.6741 H   0  0  0  0  0  0
   -0.4341   53.8756   23.8207 H   0  0  0  0  0  0
   -2.3338   50.7178   29.3335 H   0  0  0  0  0  0
   -6.3337   48.8009   28.6808 H   0  0  0  0  0  0
   -5.0022   47.7263   28.9965 H   0  0  0  0  0  0
   -6.9133   47.2261   30.6427 H   0  0  0  0  0  0
   -6.9706   48.4483   32.6326 H   0  0  0  0  0  0
   -4.8166   50.0256   32.6552 H   0  0  0  0  0  0
   -6.3340   50.8669   32.6105 H   0  0  0  0  0  0
   -0.4850   53.2657   31.6827 H   0  0  0  0  0  0
    0.3041   51.6962   31.6156 H   0  0  0  0  0  0
    1.0923   53.1151   30.9140 H   0  0  0  0  0  0
    1.3041   52.3521   24.0089 H   0  0  0  0  0  0
    3.5174   53.1729   23.5995 H   0  0  0  0  0  0
    3.7996   54.4590   27.7000 H   0  0  0  0  0  0
    1.5154   53.8092   28.0521 H   0  0  0  0  0  0
    7.1139   52.8969   26.0449 H   0  0  0  0  0  0
    5.6067   52.4964   26.8816 H   0  0  0  0  0  0
    6.5364   53.8492   27.3722 H   0  0  0  0  0  0
    5.1045   56.3269   25.2850 H   0  0  0  0  0  0
    5.4605   55.6969   26.9158 H   0  0  0  0  0  0
    6.7416   55.8716   25.7285 H   0  0  0  0  0  0
    5.4193   54.6062   23.3211 H   0  0  0  0  0  0
    6.9927   54.1776   23.9626 H   0  0  0  0  0  0
    5.7996   52.9302   23.6824 H   0  0  0  0  0  0
   -6.4956   52.8912   30.4818 O   0  5  0  0  0  0
  1  2  1  0  0  0
  1 34  1  0  0  0
  1 35  1  0  0  0
  1 36  1  0  0  0
  2  6  1  0  0  0
  2  3  2  0  0  0
  3  4  1  0  0  0
  3 24  1  0  0  0
  4  5  2  0  0  0
  4 20  1  0  0  0
  5  6  1  0  0  0
  5  7  1  0  0  0
  7  8  1  0  0  0
  7 37  1  0  0  0
  8  9  2  0  0  0
  8 10  1  0  0  0
 10 11  1  0  0  0
 10 16  1  0  0  0
 10 12  1  0  0  0
 12 13  1  0  0  0
 12 38  1  0  0  0
 12 39  1  0  0  0
 13 14  2  0  0  0
 13 40  1  0  0  0
 14 15  1  0  0  0
 14 41  1  0  0  0
 15 16  1  0  0  0
 15 42  1  0  0  0
 15 43  1  0  0  0
 16 17  1  0  0  0
 16 18  1  0  0  0
 18 19  2  0  0  0
 18 60  1  0  0  0
 20 21  2  0  0  0
 20 22  1  0  0  0
 22 23  1  0  0  0
 23 44  1  0  0  0
 23 45  1  0  0  0
 23 46  1  0  0  0
 24 29  2  0  0  0
 24 25  1  0  0  0
 25 26  2  0  0  0
 25 47  1  0  0  0
 26 27  1  0  0  0
 26 48  1  0  0  0
 27 28  2  0  0  0
 27 30  1  0  0  0
 28 29  1  0  0  0
 28 49  1  0  0  0
 29 50  1  0  0  0
 30 31  1  0  0  0
 30 32  1  0  0  0
 30 33  1  0  0  0
 31 51  1  0  0  0
 31 52  1  0  0  0
 31 53  1  0  0  0
 32 54  1  0  0  0
 32 55  1  0  0  0
 32 56  1  0  0  0
 33 57  1  0  0  0
 33 58  1  0  0  0
 33 59  1  0  0  0
M  CHG  1  60  -1
M  END
> <i_i_glide_confnum>
154

> <i_i_glide_lignum>
5624

> <i_i_glide_posenum>
382

> <i_i_glide_rotatable_bonds>
8

> <i_m_Source_File_Index>
2585

> <b_m_subgroup_collapsed>
0

> <r_i_docking_score>
-4.82953

> <r_i_glide_ecoul>
-5.7107

> <r_i_glide_eff_state_penalty>
0

> <r_i_glide_einternal>
8.55035

> <r_i_glide_emodel>
-47.6059

> <r_i_glide_energy>
-37.6029

> <r_i_glide_erotb>
0.485956

> <r_i_glide_esite>
-0.217118

> <r_i_glide_evdw>
-31.8922

> <r_i_glide_gscore>
-4.82953

> <r_i_glide_hbond>
-0.2

> <r_i_glide_ligand_efficiency>
-0.150923

> <r_i_glide_ligand_efficiency_ln>
-1.08146

> <r_i_glide_ligand_efficiency_sa>
-0.479151

> <r_i_glide_lipo>
-2.13742

> <r_i_glide_metal>
0

> <r_i_glide_rewards>
-0.30974

> <s_i_glide_gridfile>
wee1_glide-grid

> <s_m_Source_File>
wee1_decoys_glide_SP.sdf

> <s_m_Source_Path>
/Users/zhangxujun/Desktop

> <s_m_entry_id>
2860

> <s_m_entry_name>
wee1_decoys_glide_SP.2585

> <s_m_subgroup_title>
wee1_decoys_glide_SP

> <s_m_subgroupid>
wee1_decoys_glide_SP


$$$$
