ZINC66789437_1406
                    3D
 Schrodinger Suite 2024-2.
 51 55  0  0  1  0            999 V2000
    5.5021   54.4546   20.8342 C   0  0  0  0  0  0
    5.8980   54.8069   19.5425 C   0  0  0  0  0  0
    7.0294   55.6099   19.3749 C   0  0  0  0  0  0
    7.7534   56.0506   20.4412 N   0  0  0  0  0  0
    7.3637   55.6966   21.6892 C   0  0  0  0  0  0
    6.2401   54.8960   21.9372 C   0  0  0  0  0  0
    5.7904   54.4967   23.2067 N   0  0  0  0  0  0
    6.1362   54.9676   24.4260 C   0  0  0  0  0  0
    7.1023   55.6966   24.6564 O   0  0  0  0  0  0
    5.2165   54.5804   25.5566 C   0  0  0  0  0  0
    5.6354   54.7600   26.8839 C   0  0  0  0  0  0
    4.7368   54.4371   27.9064 C   0  0  0  0  0  0
    4.7053   54.4985   29.3229 C   0  0  0  0  0  0
    3.5939   54.0050   29.8018 N   0  0  0  0  0  0
    2.8327   53.6434   28.7494 N   0  0  0  0  0  0
    3.4761   53.9151   27.5510 C   0  0  0  0  0  0
    3.0372   53.7282   26.3017 N   0  0  0  0  0  0
    3.9142   54.0947   25.3321 C   0  0  0  0  0  0
    1.5380   53.0039   28.9938 C   0  0  0  0  0  0
    0.3717   53.6951   28.2684 C   0  0  0  0  0  0
   -0.2745   52.6174   27.3843 C   0  0  0  0  0  0
    0.0938   51.2970   28.0461 C   0  0  0  0  0  0
    1.5214   51.5447   28.5229 C   0  0  0  0  0  0
    7.3903   55.9225   18.0543 N   0  0  0  0  0  0
    8.3297   56.7868   17.6180 C   0  0  0  0  0  0
    9.0216   57.4982   18.3501 O   0  0  0  0  0  0
    8.4838   56.8495   16.0860 C   0  0  0  0  0  0
    8.8106   58.2102   15.4983 C   0  0  0  0  0  0
    9.8797   57.1354   15.5631 C   0  0  0  0  0  0
    4.6243   53.8371   20.9615 H   0  0  0  0  0  0
    5.3278   54.4562   18.6933 H   0  0  0  0  0  0
    7.9864   56.0801   22.4812 H   0  0  0  0  0  0
    5.0139   53.8571   23.1895 H   0  0  0  0  0  0
    6.6136   55.1543   27.1237 H   0  0  0  0  0  0
    5.4745   54.8967   29.9703 H   0  0  0  0  0  0
    3.5220   53.9656   24.3341 H   0  0  0  0  0  0
    1.3481   53.0625   30.0706 H   0  0  0  0  0  0
   -0.3528   54.0663   28.9953 H   0  0  0  0  0  0
    0.7026   54.5556   27.6829 H   0  0  0  0  0  0
   -1.3507   52.7462   27.2810 H   0  0  0  0  0  0
    0.1522   52.6560   26.3804 H   0  0  0  0  0  0
   -0.5646   51.0930   28.8930 H   0  0  0  0  0  0
    0.0204   50.4484   27.3631 H   0  0  0  0  0  0
    2.1939   51.3826   27.6822 H   0  0  0  0  0  0
    1.8209   50.8762   29.3187 H   0  0  0  0  0  0
    6.8636   55.4389   17.3442 H   0  0  0  0  0  0
    7.8436   56.1745   15.5149 H   0  0  0  0  0  0
    8.8850   59.0777   16.1575 H   0  0  0  0  0  0
    8.3746   58.4693   14.5333 H   0  0  0  0  0  0
   10.1930   56.6443   14.6412 H   0  0  0  0  0  0
   10.7074   57.2507   16.2642 H   0  0  0  0  0  0
  1  6  2  0  0  0
  1  2  1  0  0  0
  1 30  1  0  0  0
  2  3  2  0  0  0
  2 31  1  0  0  0
  3  4  1  0  0  0
  3 24  1  0  0  0
  4  5  2  0  0  0
  5  6  1  0  0  0
  5 32  1  0  0  0
  6  7  1  0  0  0
  7  8  1  0  0  0
  7 33  1  0  0  0
  8  9  2  0  0  0
  8 10  1  0  0  0
 10 18  2  0  0  0
 10 11  1  0  0  0
 11 12  2  0  0  0
 11 34  1  0  0  0
 12 16  1  0  0  0
 12 13  1  0  0  0
 13 14  2  0  0  0
 13 35  1  0  0  0
 14 15  1  0  0  0
 15 16  1  0  0  0
 15 19  1  0  0  0
 16 17  2  0  0  0
 17 18  1  0  0  0
 18 36  1  0  0  0
 19 23  1  0  0  0
 19 20  1  0  0  0
 19 37  1  0  0  0
 20 21  1  0  0  0
 20 38  1  0  0  0
 20 39  1  0  0  0
 21 22  1  0  0  0
 21 40  1  0  0  0
 21 41  1  0  0  0
 22 23  1  0  0  0
 22 42  1  0  0  0
 22 43  1  0  0  0
 23 44  1  0  0  0
 23 45  1  0  0  0
 24 25  1  0  0  0
 24 46  1  0  0  0
 25 26  2  0  0  0
 25 27  1  0  0  0
 27 29  1  0  0  0
 27 28  1  0  0  0
 27 47  1  0  0  0
 28 29  1  0  0  0
 28 48  1  0  0  0
 28 49  1  0  0  0
 29 50  1  0  0  0
 29 51  1  0  0  0
M  END
> <i_i_glide_confnum>
363

> <i_i_glide_lignum>
1407

> <i_i_glide_posenum>
52

> <i_i_glide_rotatable_bonds>
7

> <i_m_Source_File_Index>
1403

> <b_m_subgroup_collapsed>
0

> <r_i_docking_score>
-6.46026

> <r_i_glide_ecoul>
-3.35908

> <r_i_glide_eff_state_penalty>
0

> <r_i_glide_einternal>
2.80308

> <r_i_glide_emodel>
-62.4077

> <r_i_glide_energy>
-45.2231

> <r_i_glide_erotb>
0.895627

> <r_i_glide_esite>
0

> <r_i_glide_evdw>
-41.864

> <r_i_glide_gscore>
-6.46026

> <r_i_glide_hbond>
-0.510939

> <r_i_glide_ligand_efficiency>
-0.222768

> <r_i_glide_ligand_efficiency_ln>
-1.47924

> <r_i_glide_ligand_efficiency_sa>
-0.684413

> <r_i_glide_lipo>
-2.44576

> <r_i_glide_metal>
0

> <r_i_glide_rewards>
-1.80213

> <s_i_glide_gridfile>
wee1_glide-grid

> <s_m_Source_File>
wee1_decoys_glide_SP.sdf

> <s_m_Source_Path>
/Users/zhangxujun/Desktop

> <s_m_entry_id>
1678

> <s_m_entry_name>
wee1_decoys_glide_SP.1403

> <s_m_subgroup_title>
wee1_decoys_glide_SP

> <s_m_subgroupid>
wee1_decoys_glide_SP


$$$$
