@<TRIPOS>MOLECULE
ZINC02501741_2387
50   53    1
SMALL
USER_CHARGES


@<TRIPOS>ATOM
      1 C1          6.5847   54.7177   27.2085 C.3       1 UNK         0.0000 
      2 C2          5.2479   54.1482   27.5985 C.2       1 UNK         0.0000 
      3 C3          3.9859   54.4421   27.1272 C.2       1 UNK         0.0000 
      4 C4          2.9567   53.5728   27.5335 C.2       1 UNK         0.0000 
      5 C5          3.4170   52.7241   28.5437 C.2       1 UNK         0.0000 
      6 S6          5.1044   52.9376   28.8056 S.3       1 UNK         0.0000 
      7 C7          2.7159   51.6966   29.3825 C.3       1 UNK         0.0000 
      8 C8          1.5311   53.6314   26.9680 C.3       1 UNK         0.0000 
      9 H9          1.3485   54.6955   26.8817 H         1 UNK         0.0000 
     10 C10         0.4413   53.1709   27.9407 C.2       1 UNK         0.0000 
     11 C11        -0.4315   52.1879   27.6305 C.2       1 UNK         0.0000 
     12 N12        -0.4946   51.6174   26.3473 N.pl3     1 UNK         0.0000 
     13 C13         0.4019   52.0093   25.3313 C.2       1 UNK         0.0000 
     14 C14         1.3456   52.9805   25.5593 C.2       1 UNK         0.0000 
     15 C15         2.1402   53.5419   24.4250 C.2       1 UNK         0.0000 
     16 O16         2.7252   54.6162   24.4763 O.2       1 UNK         0.0000 
     17 C17         2.0537   52.8301   23.0747 C.3       1 UNK         0.0000 
     18 C18         0.6136   52.4062   22.8235 C.3       1 UNK         0.0000 
     19 C19         0.1783   51.4252   23.9099 C.3       1 UNK         0.0000 
     20 C20        -1.5728   50.7508   26.0019 C.ar      1 UNK         0.0000 
     21 C21        -1.3063   49.4111   25.6817 C.ar      1 UNK         0.0000 
     22 C22        -2.3271   48.5393   25.2806 C.ar      1 UNK         0.0000 
     23 C23        -3.6389   49.0206   25.2174 C.ar      1 UNK         0.0000 
     24 C24        -3.9152   50.3559   25.4973 C.ar      1 UNK         0.0000 
     25 C25        -2.8911   51.2298   25.8653 C.ar      1 UNK         0.0000 
     26 Cl26       -3.2894   52.8993   26.0994 Cl        1 UNK         0.0000 
     27 N27        -2.0160   47.1413   24.9168 N.pl3     1 UNK         0.0000 
     28 O28        -0.8957   46.8967   24.4817 O.co2     1 UNK         0.0000 
     29 O29        -2.9002   46.2922   25.0144 O.co2     1 UNK         0.0000 
     30 N30        -1.2965   51.6831   28.5769 N.pl3     1 UNK         0.0000 
     31 C31         0.4228   53.7717   29.2401 C.1       1 UNK         0.0000 
     32 N32         0.4185   54.2480   30.2953 N.1       1 UNK         0.0000 
     33 H33         6.4934   55.6610   26.6718 H         1 UNK         0.0000 
     34 H34         7.1267   54.0264   26.5653 H         1 UNK         0.0000 
     35 H35         7.2080   54.8951   28.0812 H         1 UNK         0.0000 
     36 H36         3.8397   55.2439   26.4215 H         1 UNK         0.0000 
     37 H37         1.9155   51.1814   28.8534 H         1 UNK         0.0000 
     38 H38         3.4162   50.9174   29.6804 H         1 UNK         0.0000 
     39 H39         2.3061   52.1177   30.2999 H         1 UNK         0.0000 
     40 H40         2.7041   51.9562   23.1122 H         1 UNK         0.0000 
     41 H41         2.4397   53.4812   22.2894 H         1 UNK         0.0000 
     42 H42         0.5039   51.9673   21.8306 H         1 UNK         0.0000 
     43 H43        -0.0358   53.2819   22.8632 H         1 UNK         0.0000 
     44 H44         0.6153   50.4307   23.8035 H         1 UNK         0.0000 
     45 H45        -0.8833   51.3212   23.6860 H         1 UNK         0.0000 
     46 H46        -0.2932   49.0434   25.7679 H         1 UNK         0.0000 
     47 H47        -4.4479   48.3652   24.9254 H         1 UNK         0.0000 
     48 H48        -4.9282   50.7211   25.4107 H         1 UNK         0.0000 
     49 H49        -1.2757   52.0440   29.5192 H         1 UNK         0.0000 
     50 H50        -1.6396   50.7329   28.4826 H         1 UNK         0.0000 
@<TRIPOS>BOND
     1    1    2 1    
     2    1   33 1    
     3    1   34 1    
     4    1   35 1    
     5    2    6 1    
     6    2    3 2    
     7    3    4 1    
     8    3   36 1    
     9    4    5 2    
    10    4    8 1    
    11    5    6 1    
    12    5    7 1    
    13    7   37 1    
    14    7   38 1    
    15    7   39 1    
    16    8    9 1    
    17    8   14 1    
    18    8   10 1    
    19   10   11 2    
    20   10   31 1    
    21   11   12 1    
    22   11   30 1    
    23   12   13 1    
    24   12   20 1    
    25   13   19 1    
    26   13   14 2    
    27   14   15 1    
    28   15   16 2    
    29   15   17 1    
    30   17   18 1    
    31   17   40 1    
    32   17   41 1    
    33   18   19 1    
    34   18   42 1    
    35   18   43 1    
    36   19   44 1    
    37   19   45 1    
    38   20   25 ar   
    39   20   21 ar   
    40   21   22 ar   
    41   21   46 1    
    42   22   23 ar   
    43   22   27 1    
    44   23   24 ar   
    45   23   47 1    
    46   24   25 ar   
    47   24   48 1    
    48   25   26 1    
    49   27   28 2    
    50   27   29 1    
    51   30   49 1    
    52   30   50 1    
    53   31   32 3    
@<TRIPOS>SUBSTRUCTURE
     1 UNK         1 GROUP             0       ****    0 ROOT    
