@<TRIPOS>MOLECULE
ZINC34899896_940
59   61    1
SMALL
USER_CHARGES


@<TRIPOS>ATOM
      1 C1          3.2879   54.4971   28.9440 C.ar      1 UNK         0.0000 
      2 C2          4.6714   54.4964   29.0841 C.ar      1 UNK         0.0000 
      3 C3          5.4862   54.4966   27.9534 C.ar      1 UNK         0.0000 
      4 C4          4.9189   54.4972   26.6701 C.ar      1 UNK         0.0000 
      5 C5          3.5189   54.4946   26.5487 C.ar      1 UNK         0.0000 
      6 C6          2.7099   54.4965   27.6814 C.ar      1 UNK         0.0000 
      7 C7          5.8134   54.5395   25.4498 C.2       1 UNK         0.0000 
      8 O8          6.9753   54.9447   25.5280 O.2       1 UNK         0.0000 
      9 N9          5.2623   54.0970   24.3052 N.am      1 UNK         0.0000 
     10 C10         5.9342   53.9705   23.0127 C.3       1 UNK         0.0000 
     11 C11         5.0466   54.3782   21.8098 C.3       1 UNK         0.0000 
     12 N12         3.9139   53.4951   21.5212 N.am      1 UNK         0.0000 
     13 C13         4.0169   52.2347   21.0667 C.2       1 UNK         0.0000 
     14 O14         5.1041   51.6967   20.8834 O.2       1 UNK         0.0000 
     15 C15         2.7248   51.4190   20.8502 C.3       1 UNK         0.0000 
     16 C16         2.2415   50.8428   22.2066 C.3       1 UNK         0.0000 
     17 C17         0.8991   50.0918   22.0381 C.3       1 UNK         0.0000 
     18 N18        -0.0607   51.0152   21.3932 N.am      1 UNK         0.0000 
     19 C19         0.3180   51.4407   20.0326 C.3       1 UNK         0.0000 
     20 C20         1.6089   52.2757   20.1920 C.3       1 UNK         0.0000 
     21 C21        -1.2281   51.4364   21.9543 C.2       1 UNK         0.0000 
     22 O22        -2.0728   52.0966   21.3442 O.2       1 UNK         0.0000 
     23 C23        -1.4840   51.1115   23.4016 C.ar      1 UNK         0.0000 
     24 C24        -2.5794   50.3242   23.7693 C.ar      1 UNK         0.0000 
     25 C25        -2.8078   50.0037   25.1137 C.ar      1 UNK         0.0000 
     26 C26        -1.9344   50.4960   26.0925 C.ar      1 UNK         0.0000 
     27 C27        -0.8526   51.3123   25.7432 C.ar      1 UNK         0.0000 
     28 C28        -0.6399   51.6182   24.3951 C.ar      1 UNK         0.0000 
     29 C29         0.0890   51.8485   26.8193 C.3       1 UNK         0.0000 
     30 F30         1.2186   52.3103   26.2836 F         1 UNK         0.0000 
     31 F31        -0.4996   52.8458   27.4785 F         1 UNK         0.0000 
     32 F32         0.4112   50.8968   27.6902 F         1 UNK         0.0000 
     33 C33        -3.9946   49.1228   25.5049 C.3       1 UNK         0.0000 
     34 F34        -5.0215   49.3062   24.6721 F         1 UNK         0.0000 
     35 F35        -3.6266   47.8431   25.4432 F         1 UNK         0.0000 
     36 F36        -4.4181   49.3872   26.7421 F         1 UNK         0.0000 
     37 H37         2.6531   54.5089   29.8169 H         1 UNK         0.0000 
     38 H38         5.1044   54.5200   30.0712 H         1 UNK         0.0000 
     39 H39         6.5596   54.5119   28.0856 H         1 UNK         0.0000 
     40 H40         3.0371   54.5063   25.5817 H         1 UNK         0.0000 
     41 H41         1.6347   54.5075   27.5816 H         1 UNK         0.0000 
     42 H42         4.3535   53.6653   24.3690 H         1 UNK         0.0000 
     43 H43         6.9331   54.4080   22.9472 H         1 UNK         0.0000 
     44 H44         6.1183   52.8972   22.9466 H         1 UNK         0.0000 
     45 H45         4.5320   55.2963   22.0815 H         1 UNK         0.0000 
     46 H46         5.6343   54.6567   20.9334 H         1 UNK         0.0000 
     47 H47         2.9912   53.9008   21.5834 H         1 UNK         0.0000 
     48 H48         2.9977   50.6360   20.1385 H         1 UNK         0.0000 
     49 H49         2.9498   50.1086   22.5950 H         1 UNK         0.0000 
     50 H50         2.0645   51.6298   22.9411 H         1 UNK         0.0000 
     51 H51         1.0403   49.2556   21.3515 H         1 UNK         0.0000 
     52 H52         0.5337   49.6387   22.9605 H         1 UNK         0.0000 
     53 H53         0.5153   50.5459   19.4402 H         1 UNK         0.0000 
     54 H54        -0.4737   51.9742   19.5035 H         1 UNK         0.0000 
     55 H55         1.3235   53.1235   20.8171 H         1 UNK         0.0000 
     56 H56         1.8986   52.6027   19.1921 H         1 UNK         0.0000 
     57 H57        -3.2467   49.9427   23.0075 H         1 UNK         0.0000 
     58 H58        -2.0922   50.2336   27.1319 H         1 UNK         0.0000 
     59 H59         0.1879   52.2542   24.1150 H         1 UNK         0.0000 
@<TRIPOS>BOND
     1    1    6 ar   
     2    1    2 ar   
     3    1   37 1    
     4    2    3 ar   
     5    2   38 1    
     6    3    4 ar   
     7    3   39 1    
     8    4    5 ar   
     9    4    7 1    
    10    5    6 ar   
    11    5   40 1    
    12    6   41 1    
    13    7    8 2    
    14    7    9 am   BACKBONE|DICT|INTERRES
    15    9   10 1    
    16    9   42 1    
    17   10   11 1    
    18   10   43 1    
    19   10   44 1    
    20   11   12 1    
    21   11   45 1    
    22   11   46 1    
    23   12   13 am   BACKBONE|DICT|INTERRES
    24   12   47 1    
    25   13   14 2    
    26   13   15 1    
    27   15   20 1    
    28   15   16 1    
    29   15   48 1    
    30   16   17 1    
    31   16   49 1    
    32   16   50 1    
    33   17   18 1    
    34   17   51 1    
    35   17   52 1    
    36   18   19 1    
    37   18   21 am   BACKBONE|DICT|INTERRES
    38   19   20 1    
    39   19   53 1    
    40   19   54 1    
    41   20   55 1    
    42   20   56 1    
    43   21   22 2    
    44   21   23 1    
    45   23   28 ar   
    46   23   24 ar   
    47   24   25 ar   
    48   24   57 1    
    49   25   26 ar   
    50   25   33 1    
    51   26   27 ar   
    52   26   58 1    
    53   27   28 ar   
    54   27   29 1    
    55   28   59 1    
    56   29   30 1    
    57   29   31 1    
    58   29   32 1    
    59   33   34 1    
    60   33   35 1    
    61   33   36 1    
@<TRIPOS>SUBSTRUCTURE
     1 UNK         1 GROUP             0       ****    0 ROOT    
