@<TRIPOS>MOLECULE
ZINC00691652_3907
45   48    1
SMALL
USER_CHARGES


@<TRIPOS>ATOM
      1 C1          7.3169   54.7508   17.4499 C.ar      1 UNK         0.0000 
      2 C2          6.9755   54.8970   18.7962 C.ar      1 UNK         0.0000 
      3 C3          5.7384   54.3936   19.2399 C.ar      1 UNK         0.0000 
      4 N4          4.8713   53.7800   18.3940 N.ar      1 UNK         0.0000 
      5 C5          5.2231   53.6398   17.0910 C.ar      1 UNK         0.0000 
      6 C6          6.4335   54.1091   16.5817 C.ar      1 UNK         0.0000 
      7 Cl7         6.8309   53.8975   14.9154 Cl        1 UNK         0.0000 
      8 N8          5.2862   54.4234   20.5666 N.am      1 UNK         0.0000 
      9 C9          5.9023   54.8709   21.6815 C.2       1 UNK         0.0000 
     10 O10         6.9706   55.4856   21.6999 O.2       1 UNK         0.0000 
     11 C11         5.2467   54.4746   22.9206 C.2       1 UNK         0.0000 
     12 C12         5.7887   54.4613   24.2066 C.2       1 UNK         0.0000 
     13 C13         4.8569   54.0973   25.2194 C.ar      1 UNK         0.0000 
     14 C14         5.0349   53.9022   26.5986 C.ar      1 UNK         0.0000 
     15 C15         3.9564   53.4637   27.3637 C.ar      1 UNK         0.0000 
     16 C16         2.7048   53.2967   26.7472 C.ar      1 UNK         0.0000 
     17 N17         2.4913   53.5197   25.4192 N.ar      1 UNK         0.0000 
     18 C18         3.5544   53.8829   24.6965 C.ar      1 UNK         0.0000 
     19 S19         3.5138   54.0986   22.9557 S.3       1 UNK         0.0000 
     20 C20         1.4701   52.8195   27.5180 C.3       1 UNK         0.0000 
     21 C21         0.7518   53.9217   28.3269 C.3       1 UNK         0.0000 
     22 C22         1.4136   54.3932   29.6362 C.3       1 UNK         0.0000 
     23 C23         2.6807   55.2477   29.4277 C.3       1 UNK         0.0000 
     24 C24         4.0108   54.4968   29.6686 C.3       1 UNK         0.0000 
     25 C25         4.1860   53.2155   28.8449 C.3       1 UNK         0.0000 
     26 N26         7.1042   54.6912   24.5005 N.pl3     1 UNK         0.0000 
     27 H27         8.2648   55.1210   17.0875 H         1 UNK         0.0000 
     28 H28         7.6816   55.3777   19.4537 H         1 UNK         0.0000 
     29 H29         4.5188   53.1201   16.4577 H         1 UNK         0.0000 
     30 H30         4.3939   53.9716   20.6985 H         1 UNK         0.0000 
     31 H31         6.0030   54.0458   27.0537 H         1 UNK         0.0000 
     32 H32         0.7543   52.4099   26.8018 H         1 UNK         0.0000 
     33 H33         1.7132   51.9684   28.1533 H         1 UNK         0.0000 
     34 H34        -0.2521   53.5671   28.5653 H         1 UNK         0.0000 
     35 H35         0.6213   54.7904   27.6847 H         1 UNK         0.0000 
     36 H36         1.6071   53.5454   30.2950 H         1 UNK         0.0000 
     37 H37         0.6825   55.0023   30.1710 H         1 UNK         0.0000 
     38 H38         2.6303   56.1153   30.0828 H         1 UNK         0.0000 
     39 H39         2.6822   55.6867   28.4289 H         1 UNK         0.0000 
     40 H40         4.1227   54.2392   30.7197 H         1 UNK         0.0000 
     41 H41         4.8372   55.1754   29.4487 H         1 UNK         0.0000 
     42 H42         3.5354   52.4277   29.2188 H         1 UNK         0.0000 
     43 H43         5.1947   52.8253   28.9900 H         1 UNK         0.0000 
     44 H44         7.7722   54.9397   23.7739 H         1 UNK         0.0000 
     45 H45         7.4818   54.4972   25.4136 H         1 UNK         0.0000 
@<TRIPOS>BOND
     1    1    6 ar   
     2    1    2 ar   
     3    1   27 1    
     4    2    3 ar   
     5    2   28 1    
     6    3    4 ar   
     7    3    8 1    
     8    4    5 ar   
     9    5    6 ar   
    10    5   29 1    
    11    6    7 1    
    12    8    9 am   BACKBONE|DICT|INTERRES
    13    8   30 1    
    14    9   10 2    
    15    9   11 1    
    16   11   19 1    
    17   11   12 2    
    18   12   13 1    
    19   12   26 1    
    20   13   18 ar   
    21   13   14 ar   
    22   14   15 ar   
    23   14   31 1    
    24   15   25 1    
    25   15   16 ar   
    26   16   17 ar   
    27   16   20 1    
    28   17   18 ar   
    29   18   19 1    
    30   20   21 1    
    31   20   32 1    
    32   20   33 1    
    33   21   22 1    
    34   21   34 1    
    35   21   35 1    
    36   22   23 1    
    37   22   36 1    
    38   22   37 1    
    39   23   24 1    
    40   23   38 1    
    41   23   39 1    
    42   24   25 1    
    43   24   40 1    
    44   24   41 1    
    45   25   42 1    
    46   25   43 1    
    47   26   44 1    
    48   26   45 1    
@<TRIPOS>SUBSTRUCTURE
     1 UNK         1 GROUP             0       ****    0 ROOT    
