ZINC38547556_2200
                    3D
 Schrodinger Suite 2024-2.
 58 61  0  0  1  0            999 V2000
    1.8194   48.4950   20.8434 C   0  0  0  0  0  0
    2.1899   49.9347   20.6095 C   0  0  0  0  0  0
    2.7009   50.3952   19.3951 C   0  0  0  0  0  0
    3.0330   51.7442   19.2621 C   0  0  0  0  0  0
    2.8412   52.6090   20.3404 C   0  0  0  0  0  0
    2.3279   52.1135   21.5418 C   0  0  0  0  0  0
    2.0244   50.8023   21.6259 N   0  3  0  0  0  0
    2.1771   52.9707   22.6606 N   0  0  0  0  0  0
    1.8719   52.4875   24.0199 C   0  0  2  0  0  0
    2.3930   51.5357   24.0526 H   0  0  0  0  0  0
    0.3745   52.1562   24.1580 C   0  0  0  0  0  0
   -0.5738   53.1607   23.9517 C   0  0  0  0  0  0
   -1.9367   52.8968   24.0811 C   0  0  0  0  0  0
   -2.3681   51.6256   24.4384 C   0  0  0  0  0  0
   -1.4363   50.6183   24.6659 C   0  0  0  0  0  0
   -0.0618   50.8700   24.5287 C   0  0  0  0  0  0
    0.8887   49.9030   24.7609 O   0  0  0  0  0  0
    0.5877   48.8974   25.7234 C   0  0  0  0  0  0
    2.5463   53.2965   25.1601 C   0  0  0  0  0  0
    3.8024   53.9746   25.0424 C   0  0  0  0  0  0
    4.2695   54.5035   26.2513 C   0  0  0  0  0  0
    3.0803   54.3633   27.4936 S   0  0  0  0  0  0
    2.0811   53.3647   26.4840 C   0  0  0  0  0  0
    0.8965   52.7850   26.9307 N   0  0  0  0  0  0
    0.4080   52.4550   28.1446 C   0  0  0  0  0  0
   -0.7682   52.1093   28.2299 O   0  0  0  0  0  0
    1.2277   52.4451   29.3307 C   0  0  0  0  0  0
    2.5531   52.0832   29.5728 C   0  0  0  0  0  0
    2.7389   52.0997   30.9578 C   0  0  0  0  0  0
    1.5035   52.4153   31.5044 C   0  0  0  0  0  0
    0.5919   52.6109   30.5224 O   0  0  0  0  0  0
    5.6186   55.1275   26.5441 C   0  0  0  0  0  0
    4.6714   54.0153   23.7929 C   0  0  0  0  0  0
    2.0548   47.8801   19.9734 H   0  0  0  0  0  0
    2.3719   48.0988   21.6948 H   0  0  0  0  0  0
    0.7504   48.4091   21.0426 H   0  0  0  0  0  0
    2.8681   49.7223   18.5632 H   0  0  0  0  0  0
    3.4488   52.1018   18.3294 H   0  0  0  0  0  0
    3.1045   53.6529   20.2382 H   0  0  0  0  0  0
    2.3985   53.9488   22.5513 H   0  0  0  0  0  0
   -0.2473   54.1549   23.6841 H   0  0  0  0  0  0
   -2.6570   53.6843   23.9076 H   0  0  0  0  0  0
   -3.4234   51.4225   24.5450 H   0  0  0  0  0  0
   -1.7925   49.6412   24.9511 H   0  0  0  0  0  0
    1.5218   48.4945   26.1004 H   0  0  0  0  0  0
    0.0512   49.2906   26.5884 H   0  0  0  0  0  0
    0.0080   48.0867   25.2841 H   0  0  0  0  0  0
    0.3315   52.4216   26.1769 H   0  0  0  0  0  0
    3.2959   51.8187   28.8324 H   0  0  0  0  0  0
    3.6492   51.8898   31.4971 H   0  0  0  0  0  0
    1.1300   52.5064   32.5150 H   0  0  0  0  0  0
    5.8498   55.9296   25.8443 H   0  0  0  0  0  0
    5.6931   55.5273   27.5545 H   0  0  0  0  0  0
    6.4152   54.3914   26.4458 H   0  0  0  0  0  0
    4.6824   53.0620   23.2667 H   0  0  0  0  0  0
    4.3206   54.7626   23.0825 H   0  0  0  0  0  0
    5.7199   54.2232   24.0022 H   0  0  0  0  0  0
    1.6522   50.4603   22.5005 H   0  0  0  0  0  0
  1  2  1  0  0  0
  1 34  1  0  0  0
  1 35  1  0  0  0
  1 36  1  0  0  0
  2  7  2  0  0  0
  2  3  1  0  0  0
  3  4  2  0  0  0
  3 37  1  0  0  0
  4  5  1  0  0  0
  4 38  1  0  0  0
  5  6  2  0  0  0
  5 39  1  0  0  0
  6  7  1  0  0  0
  6  8  1  0  0  0
  7 58  1  0  0  0
  8  9  1  0  0  0
  8 40  1  0  0  0
  9 10  1  0  0  0
  9 11  1  0  0  0
  9 19  1  0  0  0
 11 16  2  0  0  0
 11 12  1  0  0  0
 12 13  2  0  0  0
 12 41  1  0  0  0
 13 14  1  0  0  0
 13 42  1  0  0  0
 14 15  2  0  0  0
 14 43  1  0  0  0
 15 16  1  0  0  0
 15 44  1  0  0  0
 16 17  1  0  0  0
 17 18  1  0  0  0
 18 45  1  0  0  0
 18 46  1  0  0  0
 18 47  1  0  0  0
 19 23  2  0  0  0
 19 20  1  0  0  0
 20 21  2  0  0  0
 20 33  1  0  0  0
 21 22  1  0  0  0
 21 32  1  0  0  0
 22 23  1  0  0  0
 23 24  1  0  0  0
 24 25  1  0  0  0
 24 48  1  0  0  0
 25 26  2  0  0  0
 25 27  1  0  0  0
 27 31  1  0  0  0
 27 28  2  0  0  0
 28 29  1  0  0  0
 28 49  1  0  0  0
 29 30  2  0  0  0
 29 50  1  0  0  0
 30 31  1  0  0  0
 30 51  1  0  0  0
 32 52  1  0  0  0
 32 53  1  0  0  0
 32 54  1  0  0  0
 33 55  1  0  0  0
 33 56  1  0  0  0
 33 57  1  0  0  0
M  CHG  1   7   1
M  END
> <i_i_glide_confnum>
13

> <i_i_glide_lignum>
2201

> <i_i_glide_posenum>
74

> <i_i_glide_rotatable_bonds>
8

> <i_m_Source_File_Index>
1209

> <b_m_subgroup_collapsed>
0

> <r_i_docking_score>
-3.40798

> <r_i_glide_ecoul>
-5.38723

> <r_i_glide_eff_state_penalty>
0

> <r_i_glide_einternal>
23.4933

> <r_i_glide_emodel>
-37.4443

> <r_i_glide_energy>
-44.4094

> <r_i_glide_erotb>
0.696984

> <r_i_glide_esite>
0

> <r_i_glide_evdw>
-39.0221

> <r_i_glide_gscore>
-3.40798

> <r_i_glide_hbond>
0

> <r_i_glide_ligand_efficiency>
-0.106499

> <r_i_glide_ligand_efficiency_ln>
-0.763139

> <r_i_glide_ligand_efficiency_sa>
-0.338114

> <r_i_glide_lipo>
-2.2875

> <r_i_glide_metal>
0

> <r_i_glide_rewards>
0.941728

> <s_i_glide_gridfile>
wee1_glide-grid

> <s_m_Source_File>
wee1_decoys_glide_SP.sdf

> <s_m_Source_Path>
/Users/zhangxujun/Desktop

> <s_m_entry_id>
1484

> <s_m_entry_name>
wee1_decoys_glide_SP.1209

> <s_m_subgroup_title>
wee1_decoys_glide_SP

> <s_m_subgroupid>
wee1_decoys_glide_SP


$$$$
