@<TRIPOS>MOLECULE
ZINC43757652_4152
71   74    1
SMALL
USER_CHARGES


@<TRIPOS>ATOM
      1 C1         -2.8487   52.7393   24.1256 C.3       1 UNK         0.0000 
      2 C2         -1.4981   51.9857   24.1434 C.3       1 UNK         0.0000 
      3 H3         -1.4202   51.6291   25.1738 H         1 UNK         0.0000 
      4 C4         -0.2669   52.9119   23.9480 C.3       1 UNK         0.0000 
      5 C5          0.4514   52.3650   22.7127 C.3       1 UNK         0.0000 
      6 H6         -0.1765   52.7145   21.8975 H         1 UNK         0.0000 
      7 C7          1.8799   52.8582   22.2945 C.3       1 UNK         0.0000 
      8 H8          1.6718   53.6971   21.6360 H         1 UNK         0.0000 
      9 C9          2.7845   53.5420   23.3529 C.3       1 UNK         0.0000 
     10 C10         4.2759   53.7058   22.9355 C.3       1 UNK         0.0000 
     11 H11         4.8885   52.8967   23.2832 H         1 UNK         0.0000 
     12 C12         4.4349   53.7814   21.4060 C.2       1 UNK         0.0000 
     13 C13         5.0289   54.8215   20.7661 C.2       1 UNK         0.0000 
     14 C14         5.1036   54.9807   19.3130 C.2       1 UNK         0.0000 
     15 O15         5.7644   55.8611   18.7695 O.2       1 UNK         0.0000 
     16 C16         4.2729   54.0268   18.5845 C.2       1 UNK         0.0000 
     17 C17         3.7030   52.9456   19.1574 C.2       1 UNK         0.0000 
     18 C18         3.9105   52.5330   20.6231 C.3       1 UNK         0.0000 
     19 C19         2.6423   51.8858   21.3395 C.3       1 UNK         0.0000 
     20 C20         1.6318   51.0556   20.4803 C.3       1 UNK         0.0000 
     21 H21         2.1856   50.3948   19.8103 H         1 UNK         0.0000 
     22 C22         0.6879   50.1718   21.3841 C.3       1 UNK         0.0000 
     23 C23         0.2291   50.8229   22.7616 C.3       1 UNK         0.0000 
     24 C24        -1.3013   50.7208   23.2041 C.3       1 UNK         0.0000 
     25 C25        -2.3473   50.6450   22.0207 C.2       1 UNK         0.0000 
     26 O26        -3.1994   49.7485   21.9718 O.2       1 UNK         0.0000 
     27 C27        -2.3188   51.6984   20.8933 C.3       1 UNK         0.0000 
     28 O28        -3.2943   51.4658   19.8672 O.3       1 UNK         0.0000 
     29 C29        -3.1086   50.5244   18.8959 C.2       1 UNK         0.0000 
     30 O30        -2.0677   49.8795   18.7405 O.2       1 UNK         0.0000 
     31 C31        -4.3575   50.3040   17.9957 C.3       1 UNK         0.0000 
     32 C32        -5.3415   49.3734   18.7471 C.3       1 UNK         0.0000 
     33 C33        -3.9530   49.6158   16.6627 C.3       1 UNK         0.0000 
     34 C34        -5.0661   51.6447   17.6711 C.3       1 UNK         0.0000 
     35 O35        -1.5687   49.5524   23.9861 O.3       1 UNK         0.0000 
     36 C36         1.0983   50.2167   23.9302 C.3       1 UNK         0.0000 
     37 O37         0.8657   51.9108   19.6431 O.3       1 UNK         0.0000 
     38 F38         3.1519   50.9272   22.1033 F         1 UNK         0.0000 
     39 C39         5.0860   51.5287   20.5666 C.3       1 UNK         0.0000 
     40 F40         4.7863   54.7791   23.5334 F         1 UNK         0.0000 
     41 H41        -2.9778   53.3545   23.2378 H         1 UNK         0.0000 
     42 H42        -3.6908   52.0497   24.1889 H         1 UNK         0.0000 
     43 H43        -2.9261   53.4067   24.9821 H         1 UNK         0.0000 
     44 H44        -0.4796   53.9811   23.9179 H         1 UNK         0.0000 
     45 H45         0.3948   52.7891   24.8071 H         1 UNK         0.0000 
     46 H46         2.3445   54.4906   23.6663 H         1 UNK         0.0000 
     47 H47         2.7994   52.9174   24.2464 H         1 UNK         0.0000 
     48 H48         5.4120   55.6327   21.3638 H         1 UNK         0.0000 
     49 H49         4.1177   54.1812   17.5264 H         1 UNK         0.0000 
     50 H50         3.1810   52.2747   18.4910 H         1 UNK         0.0000 
     51 H51         1.1708   49.2179   21.5999 H         1 UNK         0.0000 
     52 H52        -0.1650   49.9359   20.7531 H         1 UNK         0.0000 
     53 H53        -1.3459   51.7161   20.4189 H         1 UNK         0.0000 
     54 H54        -2.4896   52.6829   21.3107 H         1 UNK         0.0000 
     55 H55        -6.2237   49.1588   18.1415 H         1 UNK         0.0000 
     56 H56        -5.6998   49.8210   19.6771 H         1 UNK         0.0000 
     57 H57        -4.8834   48.4125   18.9971 H         1 UNK         0.0000 
     58 H58        -3.2614   50.2301   16.0840 H         1 UNK         0.0000 
     59 H59        -3.4780   48.6460   16.8267 H         1 UNK         0.0000 
     60 H60        -4.8225   49.4352   16.0281 H         1 UNK         0.0000 
     61 H61        -4.3854   52.3680   17.2188 H         1 UNK         0.0000 
     62 H62        -5.8894   51.4978   16.9700 H         1 UNK         0.0000 
     63 H63        -5.5005   52.0965   18.5628 H         1 UNK         0.0000 
     64 H64        -1.6462   48.8007   23.3926 H         1 UNK         0.0000 
     65 H65         2.0984   50.6232   24.0171 H         1 UNK         0.0000 
     66 H66         0.6642   50.4002   24.9140 H         1 UNK         0.0000 
     67 H67         1.1894   49.1326   23.8490 H         1 UNK         0.0000 
     68 H68         1.4616   52.4547   19.1194 H         1 UNK         0.0000 
     69 H69         5.9034   51.8883   19.9421 H         1 UNK         0.0000 
     70 H70         5.5013   51.3263   21.5548 H         1 UNK         0.0000 
     71 H71         4.7438   50.5770   20.1593 H         1 UNK         0.0000 
@<TRIPOS>BOND
     1    1    2 1    
     2    1   41 1    
     3    1   42 1    
     4    1   43 1    
     5    2    3 1    
     6    2   24 1    
     7    2    4 1    
     8    4    5 1    
     9    4   44 1    
    10    4   45 1    
    11    5    6 1    
    12    5   23 1    
    13    5    7 1    
    14    7    8 1    
    15    7   19 1    
    16    7    9 1    
    17    9   10 1    
    18    9   46 1    
    19    9   47 1    
    20   10   11 1    
    21   10   12 1    
    22   10   40 1    
    23   12   18 1    
    24   12   13 2    
    25   13   14 1    
    26   13   48 1    
    27   14   15 2    
    28   14   16 1    
    29   16   17 2    
    30   16   49 1    
    31   17   18 1    
    32   17   50 1    
    33   18   19 1    
    34   18   39 1    
    35   19   20 1    
    36   19   38 1    
    37   20   21 1    
    38   20   22 1    
    39   20   37 1    
    40   22   23 1    
    41   22   51 1    
    42   22   52 1    
    43   23   24 1    
    44   23   36 1    
    45   24   25 1    
    46   24   35 1    
    47   25   26 2    
    48   25   27 1    
    49   27   28 1    
    50   27   53 1    
    51   27   54 1    
    52   28   29 1    
    53   29   30 2    
    54   29   31 1    
    55   31   32 1    
    56   31   33 1    
    57   31   34 1    
    58   32   55 1    
    59   32   56 1    
    60   32   57 1    
    61   33   58 1    
    62   33   59 1    
    63   33   60 1    
    64   34   61 1    
    65   34   62 1    
    66   34   63 1    
    67   35   64 1    
    68   36   65 1    
    69   36   66 1    
    70   36   67 1    
    71   37   68 1    
    72   39   69 1    
    73   39   70 1    
    74   39   71 1    
@<TRIPOS>SUBSTRUCTURE
     1 UNK         1 GROUP             0       ****    0 ROOT    
