ZINC35729091_4240
                    3D
 Schrodinger Suite 2024-2.
 55 58  0  0  1  0            999 V2000
    5.6336   54.5931   28.3984 C   0  0  0  0  0  0
    4.4870   54.4933   27.4940 N   0  0  0  0  0  0
    3.1892   54.1805   28.0925 C   0  0  0  0  0  0
    4.6839   54.3662   26.0913 C   0  0  0  0  0  0
    3.6057   54.0974   25.2305 C   0  0  0  0  0  0
    3.7938   53.9870   23.8548 C   0  0  0  0  0  0
    5.0673   54.1476   23.3106 C   0  0  0  0  0  0
    6.1486   54.4228   24.1468 C   0  0  0  0  0  0
    5.9588   54.5236   25.5218 C   0  0  0  0  0  0
    5.2672   54.0814   21.8415 C   0  0  0  0  0  0
    5.9025   54.9943   21.1445 N   0  0  0  0  0  0
    5.9631   54.6840   19.7920 N   0  0  0  0  0  0
    5.4000   53.5268   19.5134 C   0  0  0  0  0  0
    4.7043   52.7305   20.8931 S   0  0  0  0  0  0
    5.3246   52.9217   18.2685 N   0  0  0  0  0  0
    5.1795   53.6033   17.1095 C   0  0  0  0  0  0
    5.1043   54.8281   16.9996 O   0  0  0  0  0  0
    5.0633   52.7392   15.8378 C   0  0  2  0  0  0
    5.2363   51.6967   16.0817 H   0  0  0  0  0  0
    6.0763   53.1548   14.7535 C   0  0  0  0  0  0
    5.3805   52.8506   13.4411 C   0  0  0  0  0  0
    3.9302   53.1917   13.7510 C   0  0  0  0  0  0
    3.7449   52.8173   15.1556 N   0  0  0  0  0  0
    2.5090   52.6049   15.6878 C   0  0  0  0  0  0
    1.4840   52.9038   15.0722 O   0  0  0  0  0  0
    2.5076   52.0435   16.9203 N   0  0  0  0  0  0
    1.4632   51.8974   17.8502 C   0  0  0  0  0  0
    1.8393   51.4178   19.1075 C   0  0  0  0  0  0
    0.9033   51.3291   20.1335 C   0  0  0  0  0  0
   -0.4200   51.6898   19.8937 C   0  0  0  0  0  0
   -0.8200   52.1034   18.6261 C   0  0  0  0  0  0
    0.1199   52.2246   17.6079 C   0  0  0  0  0  0
   -1.6913   51.6277   21.3080 Br  0  0  0  0  0  0
    6.3044   55.3927   28.0816 H   0  0  0  0  0  0
    6.2014   53.6611   28.3998 H   0  0  0  0  0  0
    5.3316   54.8090   29.4243 H   0  0  0  0  0  0
    2.3981   54.7853   27.6447 H   0  0  0  0  0  0
    2.9391   53.1304   27.9291 H   0  0  0  0  0  0
    3.1759   54.3641   29.1692 H   0  0  0  0  0  0
    2.6044   53.9681   25.6078 H   0  0  0  0  0  0
    2.9452   53.7895   23.2144 H   0  0  0  0  0  0
    7.1400   54.5581   23.7364 H   0  0  0  0  0  0
    6.8235   54.7243   26.1307 H   0  0  0  0  0  0
    5.3336   51.8947   18.2347 H   0  0  0  0  0  0
    6.2938   54.2228   14.8036 H   0  0  0  0  0  0
    7.0279   52.6278   14.8479 H   0  0  0  0  0  0
    5.7848   53.4024   12.5927 H   0  0  0  0  0  0
    5.4648   51.7844   13.2239 H   0  0  0  0  0  0
    3.7523   54.2637   13.6458 H   0  0  0  0  0  0
    3.2487   52.6668   13.0798 H   0  0  0  0  0  0
    3.4045   51.7265   17.2576 H   0  0  0  0  0  0
    2.8643   51.1366   19.2997 H   0  0  0  0  0  0
    1.2054   50.9912   21.1137 H   0  0  0  0  0  0
   -1.8487   52.3696   18.4415 H   0  0  0  0  0  0
   -0.2205   52.5878   16.6510 H   0  0  0  0  0  0
  1  2  1  0  0  0
  1 34  1  0  0  0
  1 35  1  0  0  0
  1 36  1  0  0  0
  2  3  1  0  0  0
  2  4  1  0  0  0
  3 37  1  0  0  0
  3 38  1  0  0  0
  3 39  1  0  0  0
  4  9  2  0  0  0
  4  5  1  0  0  0
  5  6  2  0  0  0
  5 40  1  0  0  0
  6  7  1  0  0  0
  6 41  1  0  0  0
  7  8  2  0  0  0
  7 10  1  0  0  0
  8  9  1  0  0  0
  8 42  1  0  0  0
  9 43  1  0  0  0
 10 14  1  0  0  0
 10 11  2  0  0  0
 11 12  1  0  0  0
 12 13  2  0  0  0
 13 14  1  0  0  0
 13 15  1  0  0  0
 15 16  1  0  0  0
 15 44  1  0  0  0
 16 17  2  0  0  0
 16 18  1  0  0  0
 18 19  1  0  0  0
 18 23  1  0  0  0
 18 20  1  0  0  0
 20 21  1  0  0  0
 20 45  1  0  0  0
 20 46  1  0  0  0
 21 22  1  0  0  0
 21 47  1  0  0  0
 21 48  1  0  0  0
 22 23  1  0  0  0
 22 49  1  0  0  0
 22 50  1  0  0  0
 23 24  1  0  0  0
 24 25  2  0  0  0
 24 26  1  0  0  0
 26 27  1  0  0  0
 26 51  1  0  0  0
 27 32  2  0  0  0
 27 28  1  0  0  0
 28 29  2  0  0  0
 28 52  1  0  0  0
 29 30  1  0  0  0
 29 53  1  0  0  0
 30 31  2  0  0  0
 30 33  1  0  0  0
 31 32  1  0  0  0
 31 54  1  0  0  0
 32 55  1  0  0  0
M  END
> <i_i_glide_confnum>
145

> <i_i_glide_lignum>
4241

> <i_i_glide_posenum>
125

> <i_i_glide_rotatable_bonds>
8

> <i_m_Source_File_Index>
1295

> <b_m_subgroup_collapsed>
0

> <r_i_docking_score>
-5.22328

> <r_i_glide_ecoul>
-6.62398

> <r_i_glide_eff_state_penalty>
0

> <r_i_glide_einternal>
6.97592

> <r_i_glide_emodel>
-56.4111

> <r_i_glide_energy>
-41.9396

> <r_i_glide_erotb>
0.540655

> <r_i_glide_esite>
-0.244536

> <r_i_glide_evdw>
-35.3157

> <r_i_glide_gscore>
-5.22328

> <r_i_glide_hbond>
-0.156542

> <r_i_glide_ligand_efficiency>
-0.163227

> <r_i_glide_ligand_efficiency_ln>
-1.16963

> <r_i_glide_ligand_efficiency_sa>
-0.518215

> <r_i_glide_lipo>
-2.22831

> <r_i_glide_metal>
0

> <r_i_glide_rewards>
-0.375161

> <s_i_glide_gridfile>
wee1_glide-grid

> <s_m_Source_File>
wee1_decoys_glide_SP.sdf

> <s_m_Source_Path>
/Users/zhangxujun/Desktop

> <s_m_entry_id>
1570

> <s_m_entry_name>
wee1_decoys_glide_SP.1295

> <s_m_subgroup_title>
wee1_decoys_glide_SP

> <s_m_subgroupid>
wee1_decoys_glide_SP


$$$$
