ZINC39633674_1275
                    3D
 Schrodinger Suite 2024-2.
 74 77  0  0  1  0            999 V2000
   -0.1436   53.1492   28.5037 C   0  0  0  0  0  0
    1.1747   53.3627   27.8069 C   0  0  0  0  0  0
    1.4836   53.2965   26.4605 C   0  0  0  0  0  0
    2.8339   53.6220   26.2880 C   0  0  0  0  0  0
    3.2779   53.6634   27.6204 N   0  0  0  0  0  0
    2.2378   53.6564   28.4864 N   0  0  0  0  0  0
    4.6260   53.6096   28.2905 C   0  0  0  0  0  0
    4.9827   54.9730   28.8933 C   0  0  0  0  0  0
    5.7974   53.1521   27.4017 C   0  0  0  0  0  0
    4.5287   52.5322   29.4112 C   0  0  0  0  0  0
    3.5768   53.9241   25.0520 C   0  0  0  0  0  0
    4.6360   54.5427   25.1094 O   0  0  0  0  0  0
    3.1063   53.4869   23.8442 N   0  0  0  0  0  0
    1.7466   53.0925   23.5230 C   0  0  0  0  0  0
    1.6646   53.0310   21.9774 C   0  0  1  0  0  0
    1.3110   54.0134   21.6821 H   0  0  0  0  0  0
    3.1353   52.7681   21.5140 C   0  0  0  0  0  0
    3.9426   53.4734   22.6408 C   0  0  0  0  0  0
    3.5476   51.2660   21.4248 C   0  0  0  0  0  0
    2.9589   50.5003   20.2030 C   0  0  0  0  0  0
    3.1044   51.2962   18.8856 N   0  3  0  0  0  0
    2.8548   52.8173   18.9589 C   0  0  0  0  0  0
    3.6173   53.3717   20.1675 C   0  0  0  0  0  0
    0.5301   52.0343   21.5886 C   0  0  0  0  0  0
    0.0335   52.0968   20.4656 O   0  0  0  0  0  0
    0.0805   51.1438   22.4957 N   0  0  0  0  0  0
   -0.9759   50.1504   22.3142 C   0  0  0  0  0  0
   -0.7206   49.0065   23.3213 C   0  0  0  0  0  0
   -1.8580   47.9873   23.5194 C   0  0  0  0  0  0
   -2.8954   48.4248   24.5718 C   0  0  0  0  0  0
   -3.7897   49.6210   24.1902 C   0  0  0  0  0  0
   -3.0606   50.9031   23.7390 C   0  0  0  0  0  0
   -2.3901   50.7884   22.3537 C   0  0  0  0  0  0
   -0.9163   52.8482   27.7991 H   0  0  0  0  0  0
   -0.0826   52.3679   29.2612 H   0  0  0  0  0  0
   -0.4917   54.0537   28.9997 H   0  0  0  0  0  0
    0.7245   53.0874   25.7300 H   0  0  0  0  0  0
    5.7322   54.8964   29.6820 H   0  0  0  0  0  0
    4.1122   55.4711   29.3189 H   0  0  0  0  0  0
    5.4091   55.6169   28.1252 H   0  0  0  0  0  0
    5.5037   52.2558   26.8815 H   0  0  0  0  0  0
    6.1616   53.8967   26.7038 H   0  0  0  0  0  0
    6.6816   52.8994   27.9883 H   0  0  0  0  0  0
    3.9776   51.6548   29.0756 H   0  0  0  0  0  0
    5.5043   52.1690   29.6831 H   0  0  0  0  0  0
    4.0392   52.9003   30.3139 H   0  0  0  0  0  0
    1.6585   52.1108   23.9876 H   0  0  0  0  0  0
    1.0149   53.8217   23.8763 H   0  0  0  0  0  0
    4.0628   54.5245   22.3670 H   0  0  0  0  0  0
    4.9547   53.0816   22.7604 H   0  0  0  0  0  0
    4.6347   51.1863   21.3747 H   0  0  0  0  0  0
    3.2690   50.7444   22.3411 H   0  0  0  0  0  0
    3.5029   49.5785   20.0032 H   0  0  0  0  0  0
    1.9059   50.2440   20.2868 H   0  0  0  0  0  0
    4.0582   51.1127   18.5420 H   0  0  0  0  0  0
    3.2230   53.2234   18.0159 H   0  0  0  0  0  0
    1.7807   52.9799   19.0080 H   0  0  0  0  0  0
    3.5045   54.4561   20.1777 H   0  0  0  0  0  0
    4.6903   53.2233   20.0329 H   0  0  0  0  0  0
    0.5579   51.0925   23.3822 H   0  0  0  0  0  0
   -0.8364   49.7343   21.3122 H   0  0  0  0  0  0
    0.1658   48.4780   22.9722 H   0  0  0  0  0  0
   -0.4183   49.4032   24.2931 H   0  0  0  0  0  0
   -2.3450   47.7636   22.5689 H   0  0  0  0  0  0
   -1.4188   47.0466   23.8559 H   0  0  0  0  0  0
   -3.5436   47.5769   24.7955 H   0  0  0  0  0  0
   -2.3827   48.6463   25.5102 H   0  0  0  0  0  0
   -4.4897   49.3135   23.4118 H   0  0  0  0  0  0
   -4.4117   49.8657   25.0521 H   0  0  0  0  0  0
   -3.7978   51.7078   23.6973 H   0  0  0  0  0  0
   -2.3339   51.2160   24.4905 H   0  0  0  0  0  0
   -2.3525   51.7819   21.9067 H   0  0  0  0  0  0
   -3.0497   50.2194   21.6966 H   0  0  0  0  0  0
    2.5184   50.8815   18.1727 H   0  0  0  0  0  0
  1  2  1  0  0  0
  1 34  1  0  0  0
  1 35  1  0  0  0
  1 36  1  0  0  0
  2  6  2  0  0  0
  2  3  1  0  0  0
  3  4  2  0  0  0
  3 37  1  0  0  0
  4  5  1  0  0  0
  4 11  1  0  0  0
  5  6  1  0  0  0
  5  7  1  0  0  0
  7  8  1  0  0  0
  7  9  1  0  0  0
  7 10  1  0  0  0
  8 38  1  0  0  0
  8 39  1  0  0  0
  8 40  1  0  0  0
  9 41  1  0  0  0
  9 42  1  0  0  0
  9 43  1  0  0  0
 10 44  1  0  0  0
 10 45  1  0  0  0
 10 46  1  0  0  0
 11 12  2  0  0  0
 11 13  1  0  0  0
 13 18  1  0  0  0
 13 14  1  0  0  0
 14 15  1  0  0  0
 14 47  1  0  0  0
 14 48  1  0  0  0
 15 16  1  0  0  0
 15 17  1  0  0  0
 15 24  1  0  0  0
 17 23  1  0  0  0
 17 18  1  0  0  0
 17 19  1  0  0  0
 18 49  1  0  0  0
 18 50  1  0  0  0
 19 20  1  0  0  0
 19 51  1  0  0  0
 19 52  1  0  0  0
 20 21  1  0  0  0
 20 53  1  0  0  0
 20 54  1  0  0  0
 21 22  1  0  0  0
 21 55  1  0  0  0
 21 74  1  0  0  0
 22 23  1  0  0  0
 22 56  1  0  0  0
 22 57  1  0  0  0
 23 58  1  0  0  0
 23 59  1  0  0  0
 24 25  2  0  0  0
 24 26  1  0  0  0
 26 27  1  0  0  0
 26 60  1  0  0  0
 27 33  1  0  0  0
 27 28  1  0  0  0
 27 61  1  0  0  0
 28 29  1  0  0  0
 28 62  1  0  0  0
 28 63  1  0  0  0
 29 30  1  0  0  0
 29 64  1  0  0  0
 29 65  1  0  0  0
 30 31  1  0  0  0
 30 66  1  0  0  0
 30 67  1  0  0  0
 31 32  1  0  0  0
 31 68  1  0  0  0
 31 69  1  0  0  0
 32 33  1  0  0  0
 32 70  1  0  0  0
 32 71  1  0  0  0
 33 72  1  0  0  0
 33 73  1  0  0  0
M  CHG  1  21   1
M  END
> <i_i_glide_confnum>
792

> <i_i_glide_lignum>
1276

> <i_i_glide_posenum>
114

> <i_i_glide_rotatable_bonds>
6

> <i_m_Source_File_Index>
2045

> <b_m_subgroup_collapsed>
0

> <r_i_docking_score>
-4.85322

> <r_i_glide_ecoul>
-6.07755

> <r_i_glide_eff_state_penalty>
0

> <r_i_glide_einternal>
9.50264

> <r_i_glide_emodel>
-37.964

> <r_i_glide_energy>
-31.9967

> <r_i_glide_erotb>
0.50586

> <r_i_glide_esite>
-0.1

> <r_i_glide_evdw>
-25.9191

> <r_i_glide_gscore>
-4.85322

> <r_i_glide_hbond>
-0.2

> <r_i_glide_ligand_efficiency>
-0.151663

> <r_i_glide_ligand_efficiency_ln>
-1.08677

> <r_i_glide_ligand_efficiency_sa>
-0.481501

> <r_i_glide_lipo>
-1.67294

> <r_i_glide_metal>
0

> <r_i_glide_rewards>
-1.17856

> <s_i_glide_gridfile>
wee1_glide-grid

> <s_m_Source_File>
wee1_decoys_glide_SP.sdf

> <s_m_Source_Path>
/Users/zhangxujun/Desktop

> <s_m_entry_id>
2320

> <s_m_entry_name>
wee1_decoys_glide_SP.2045

> <s_m_subgroup_title>
wee1_decoys_glide_SP

> <s_m_subgroupid>
wee1_decoys_glide_SP


$$$$
