ZINC39686649_133
                    3D
 Schrodinger Suite 2024-2.
 72 75  0  0  1  0            999 V2000
    6.9088   54.5477   26.0766 C   0  0  0  0  0  0
    5.4851   54.3354   26.5592 C   0  0  0  0  0  0
    5.2435   54.2511   27.9333 C   0  0  0  0  0  0
    3.9518   54.0415   28.4119 C   0  0  0  0  0  0
    2.8782   53.9011   27.5244 C   0  0  0  0  0  0
    3.1224   54.0114   26.1485 C   0  0  0  0  0  0
    4.4147   54.2106   25.6574 C   0  0  0  0  0  0
    4.6104   54.2984   24.1492 C   0  0  0  0  0  0
    1.4757   53.7348   28.0580 C   0  0  0  0  0  0
    1.1132   54.4622   28.9863 O   0  0  0  0  0  0
    0.6448   52.8243   27.4807 N   0  0  0  0  0  0
   -0.7552   52.7195   27.8912 C   0  0  0  0  0  0
   -1.1568   51.2952   27.4746 C   0  0  2  0  0  0
   -0.9073   50.6121   28.2878 H   0  0  0  0  0  0
   -0.2715   50.9830   26.2336 C   0  0  0  0  0  0
    1.0422   51.7002   26.6228 C   0  0  0  0  0  0
   -0.8390   51.5707   24.8977 C   0  0  0  0  0  0
    0.0661   51.2892   23.6835 C   0  0  0  0  0  0
    0.1823   49.7587   23.5260 N   0  3  0  0  0  0
    0.7050   49.0450   24.7891 C   0  0  0  0  0  0
   -0.1464   49.4544   26.0040 C   0  0  0  0  0  0
   -2.6880   51.2246   27.2258 C   0  0  0  0  0  0
   -3.3019   52.1651   26.7178 O   0  0  0  0  0  0
   -3.2957   50.0972   27.6301 N   0  0  0  0  0  0
   -4.6907   49.7305   27.3894 C   0  0  2  0  0  0
   -5.2927   50.6025   27.6613 H   0  0  0  0  0  0
   -5.1588   48.6385   28.3713 C   0  0  0  0  0  0
   -5.0155   49.4445   25.8910 C   0  0  0  0  0  0
   -4.0849   48.5223   25.0758 C   0  0  0  0  0  0
   -3.2654   47.5686   25.6971 C   0  0  0  0  0  0
   -2.3967   46.7744   24.9533 C   0  0  0  0  0  0
   -2.3496   46.9031   23.5700 C   0  0  0  0  0  0
   -3.1738   47.8277   22.9331 C   0  0  0  0  0  0
   -4.0491   48.6445   23.6725 C   0  0  0  0  0  0
   -4.8794   49.5865   23.0893 O   0  0  0  0  0  0
   -4.8762   49.7590   21.6761 C   0  0  0  0  0  0
    7.6258   54.4599   26.8935 H   0  0  0  0  0  0
    7.1562   53.7952   25.3274 H   0  0  0  0  0  0
    7.0136   55.5292   25.6143 H   0  0  0  0  0  0
    6.0556   54.3543   28.6394 H   0  0  0  0  0  0
    3.7936   53.9911   29.4800 H   0  0  0  0  0  0
    2.3009   53.9606   25.4477 H   0  0  0  0  0  0
    4.7399   53.3042   23.7229 H   0  0  0  0  0  0
    3.7474   54.7657   23.6727 H   0  0  0  0  0  0
    5.4745   54.9014   23.8763 H   0  0  0  0  0  0
   -1.2960   53.4446   27.2823 H   0  0  0  0  0  0
   -0.8958   52.8506   28.9659 H   0  0  0  0  0  0
    1.5967   51.0281   27.2807 H   0  0  0  0  0  0
    1.7011   51.9285   25.7902 H   0  0  0  0  0  0
   -1.8377   51.1844   24.6861 H   0  0  0  0  0  0
   -0.9688   52.6504   24.9946 H   0  0  0  0  0  0
   -0.3710   51.6573   22.7540 H   0  0  0  0  0  0
    1.0784   51.6833   23.7741 H   0  0  0  0  0  0
   -0.7330   49.3869   23.3101 H   0  0  0  0  0  0
    0.6356   47.9743   24.5924 H   0  0  0  0  0  0
    1.7579   49.2966   24.8817 H   0  0  0  0  0  0
    0.2842   48.9754   26.8818 H   0  0  0  0  0  0
   -1.1377   49.0198   25.9230 H   0  0  0  0  0  0
   -2.7061   49.3896   28.0811 H   0  0  0  0  0  0
   -6.1426   48.2583   28.0934 H   0  0  0  0  0  0
   -4.4833   47.7864   28.4303 H   0  0  0  0  0  0
   -5.2643   49.0450   29.3784 H   0  0  0  0  0  0
   -4.9843   50.4176   25.3977 H   0  0  0  0  0  0
   -6.0414   49.0940   25.7786 H   0  0  0  0  0  0
   -3.2459   47.4558   26.7687 H   0  0  0  0  0  0
   -1.7453   46.0806   25.4642 H   0  0  0  0  0  0
   -1.6741   46.2913   22.9899 H   0  0  0  0  0  0
   -3.1190   47.8983   21.8575 H   0  0  0  0  0  0
   -5.5836   50.5454   21.4086 H   0  0  0  0  0  0
   -3.8931   50.0642   21.3127 H   0  0  0  0  0  0
   -5.1851   48.8482   21.1604 H   0  0  0  0  0  0
    0.7802   49.5381   22.7402 H   0  0  0  0  0  0
  1  2  1  0  0  0
  1 37  1  0  0  0
  1 38  1  0  0  0
  1 39  1  0  0  0
  2  7  2  0  0  0
  2  3  1  0  0  0
  3  4  2  0  0  0
  3 40  1  0  0  0
  4  5  1  0  0  0
  4 41  1  0  0  0
  5  6  2  0  0  0
  5  9  1  0  0  0
  6  7  1  0  0  0
  6 42  1  0  0  0
  7  8  1  0  0  0
  8 43  1  0  0  0
  8 44  1  0  0  0
  8 45  1  0  0  0
  9 10  2  0  0  0
  9 11  1  0  0  0
 11 16  1  0  0  0
 11 12  1  0  0  0
 12 13  1  0  0  0
 12 46  1  0  0  0
 12 47  1  0  0  0
 13 14  1  0  0  0
 13 15  1  0  0  0
 13 22  1  0  0  0
 15 21  1  0  0  0
 15 16  1  0  0  0
 15 17  1  0  0  0
 16 48  1  0  0  0
 16 49  1  0  0  0
 17 18  1  0  0  0
 17 50  1  0  0  0
 17 51  1  0  0  0
 18 19  1  0  0  0
 18 52  1  0  0  0
 18 53  1  0  0  0
 19 20  1  0  0  0
 19 54  1  0  0  0
 19 72  1  0  0  0
 20 21  1  0  0  0
 20 55  1  0  0  0
 20 56  1  0  0  0
 21 57  1  0  0  0
 21 58  1  0  0  0
 22 23  2  0  0  0
 22 24  1  0  0  0
 24 25  1  0  0  0
 24 59  1  0  0  0
 25 26  1  0  0  0
 25 27  1  0  0  0
 25 28  1  0  0  0
 27 60  1  0  0  0
 27 61  1  0  0  0
 27 62  1  0  0  0
 28 29  1  0  0  0
 28 63  1  0  0  0
 28 64  1  0  0  0
 29 34  2  0  0  0
 29 30  1  0  0  0
 30 31  2  0  0  0
 30 65  1  0  0  0
 31 32  1  0  0  0
 31 66  1  0  0  0
 32 33  2  0  0  0
 32 67  1  0  0  0
 33 34  1  0  0  0
 33 68  1  0  0  0
 34 35  1  0  0  0
 35 36  1  0  0  0
 36 69  1  0  0  0
 36 70  1  0  0  0
 36 71  1  0  0  0
M  CHG  1  19   1
M  END
> <i_i_glide_confnum>
138

> <i_i_glide_lignum>
134

> <i_i_glide_posenum>
172

> <i_i_glide_rotatable_bonds>
8

> <i_m_Source_File_Index>
4366

> <b_m_subgroup_collapsed>
0

> <r_i_docking_score>
-5.03373

> <r_i_glide_ecoul>
-6.67062

> <r_i_glide_eff_state_penalty>
0

> <r_i_glide_einternal>
4.83064

> <r_i_glide_emodel>
-55.4441

> <r_i_glide_energy>
-41.2752

> <r_i_glide_erotb>
0.653748

> <r_i_glide_esite>
-0.168933

> <r_i_glide_evdw>
-34.6046

> <r_i_glide_gscore>
-5.03373

> <r_i_glide_hbond>
-0.16

> <r_i_glide_ligand_efficiency>
-0.148051

> <r_i_glide_ligand_efficiency_ln>
-1.11209

> <r_i_glide_ligand_efficiency_sa>
-0.479628

> <r_i_glide_lipo>
-1.91537

> <r_i_glide_metal>
0

> <r_i_glide_rewards>
-0.71235

> <s_i_glide_gridfile>
wee1_glide-grid

> <s_m_Source_File>
wee1_decoys_glide_SP.sdf

> <s_m_Source_Path>
/Users/zhangxujun/Desktop

> <s_m_entry_id>
4641

> <s_m_entry_name>
wee1_decoys_glide_SP.4366

> <s_m_subgroup_title>
wee1_decoys_glide_SP

> <s_m_subgroupid>
wee1_decoys_glide_SP


$$$$
