@<TRIPOS>MOLECULE
ZINC39665289_640
63   66    1
SMALL
USER_CHARGES


@<TRIPOS>ATOM
      1 C1          5.7002   54.9735   24.3800 C.3       1 UNK         0.0000 
      2 C2          4.4121   54.1102   24.3982 C.3       1 UNK         0.0000 
      3 H3          4.7124   53.0885   24.5901 H         1 UNK         0.0000 
      4 C4          3.6720   54.0985   23.0273 C.3       1 UNK         0.0000 
      5 N5          2.6041   53.0944   22.8413 N.am      1 UNK         0.0000 
      6 C6          1.3591   53.1820   23.3514 C.2       1 UNK         0.0000 
      7 O7          1.0313   54.1109   24.0815 O.2       1 UNK         0.0000 
      8 C8          0.2441   52.1707   22.9501 C.3       1 UNK         0.0000 
      9 H9         -0.5115   52.7707   22.4410 H         1 UNK         0.0000 
     10 C10         0.6974   51.1031   21.9261 C.3       1 UNK         0.0000 
     11 N11        -0.3323   50.0631   22.0956 N.am      1 UNK         0.0000 
     12 C12        -1.1005   50.2509   23.3261 C.3       1 UNK         0.0000 
     13 C13        -0.3745   51.3539   24.1186 C.3       1 UNK         0.0000 
     14 C14         0.7047   50.7570   25.0649 C.3       1 UNK         0.0000 
     15 C15         0.1119   49.7644   26.0805 C.3       1 UNK         0.0000 
     16 N16        -0.9871   50.4967   26.8819 N.4       1 UNK         0.0000 
     17 C17        -2.0549   51.2220   26.0327 C.3       1 UNK         0.0000 
     18 C18        -1.3191   52.1543   25.0467 C.3       1 UNK         0.0000 
     19 C19        -0.8103   49.2328   21.1320 C.2       1 UNK         0.0000 
     20 O20        -1.8532   48.5897   21.2780 O.2       1 UNK         0.0000 
     21 C21        -0.0714   49.1022   19.8252 C.ar      1 UNK         0.0000 
     22 C22        -0.8048   49.1079   18.6280 C.ar      1 UNK         0.0000 
     23 C23        -0.1685   48.9291   17.4004 C.ar      1 UNK         0.0000 
     24 C24         1.2073   48.7200   17.3596 C.ar      1 UNK         0.0000 
     25 C25         1.9382   48.6719   18.5441 C.ar      1 UNK         0.0000 
     26 C26         1.3105   48.8515   19.7734 C.ar      1 UNK         0.0000 
     27 F27         2.0533   48.7417   20.8995 F         1 UNK         0.0000 
     28 Cl28       -1.0829   48.9650   15.9373 Cl        1 UNK         0.0000 
     29 O29         3.5038   54.5198   25.4288 O.3       1 UNK         0.0000 
     30 C30         3.7004   54.1848   26.7574 C.ar      1 UNK         0.0000 
     31 C31         4.8697   53.6002   27.2614 C.ar      1 UNK         0.0000 
     32 C32         4.9857   53.3197   28.6168 C.ar      1 UNK         0.0000 
     33 C33         3.9260   53.5888   29.4785 C.ar      1 UNK         0.0000 
     34 C34         2.7551   54.1606   28.9948 C.ar      1 UNK         0.0000 
     35 C35         2.6501   54.4597   27.6401 C.ar      1 UNK         0.0000 
     36 H36         6.2601   54.8311   23.4549 H         1 UNK         0.0000 
     37 H37         5.5043   56.0387   24.4865 H         1 UNK         0.0000 
     38 H38         6.3843   54.7171   25.1853 H         1 UNK         0.0000 
     39 H39         3.2608   55.0896   22.8294 H         1 UNK         0.0000 
     40 H40         4.3988   53.9256   22.2328 H         1 UNK         0.0000 
     41 H41         2.8089   52.3401   22.2044 H         1 UNK         0.0000 
     42 H42         0.7479   51.5447   20.9285 H         1 UNK         0.0000 
     43 H43         1.6462   50.6924   22.2742 H         1 UNK         0.0000 
     44 H44        -1.3543   49.3416   23.8689 H         1 UNK         0.0000 
     45 H45        -2.0643   50.6654   23.0218 H         1 UNK         0.0000 
     46 H46         1.4431   50.2040   24.4807 H         1 UNK         0.0000 
     47 H47         1.2617   51.5466   25.5735 H         1 UNK         0.0000 
     48 H48        -0.3463   48.8777   25.6417 H         1 UNK         0.0000 
     49 H49         0.8507   49.4277   26.8084 H         1 UNK         0.0000 
     50 H50        -1.4141   49.8021   27.5023 H         1 UNK         0.0000 
     51 H51        -2.6534   50.4479   25.5498 H         1 UNK         0.0000 
     52 H52        -2.6855   51.7672   26.7365 H         1 UNK         0.0000 
     53 H53        -0.7783   52.9351   25.5763 H         1 UNK         0.0000 
     54 H54        -2.0739   52.6641   24.4464 H         1 UNK         0.0000 
     55 H55        -1.8757   49.2583   18.6426 H         1 UNK         0.0000 
     56 H56         1.7215   48.5926   16.4171 H         1 UNK         0.0000 
     57 H57         3.0064   48.4998   18.5045 H         1 UNK         0.0000 
     58 H58         5.6989   53.3400   26.6256 H         1 UNK         0.0000 
     59 H59         5.9030   52.8967   28.9913 H         1 UNK         0.0000 
     60 H60         4.0216   53.3536   30.5278 H         1 UNK         0.0000 
     61 H61         1.9328   54.3725   29.6621 H         1 UNK         0.0000 
     62 H62         1.7325   54.8966   27.2818 H         1 UNK         0.0000 
     63 H63        -0.5425   51.1672   27.4921 H         1 UNK         0.0000 
@<TRIPOS>BOND
     1    1    2 1    
     2    1   36 1    
     3    1   37 1    
     4    1   38 1    
     5    2    3 1    
     6    2    4 1    
     7    2   29 1    
     8    4    5 1    
     9    4   39 1    
    10    4   40 1    
    11    5    6 am   BACKBONE|DICT|INTERRES
    12    5   41 1    
    13    6    7 2    
    14    6    8 1    
    15    8    9 1    
    16    8   13 1    
    17    8   10 1    
    18   10   11 1    
    19   10   42 1    
    20   10   43 1    
    21   11   12 1    
    22   11   19 am   BACKBONE|DICT|INTERRES
    23   12   13 1    
    24   12   44 1    
    25   12   45 1    
    26   13   18 1    
    27   13   14 1    
    28   14   15 1    
    29   14   46 1    
    30   14   47 1    
    31   15   16 1    
    32   15   48 1    
    33   15   49 1    
    34   16   17 1    
    35   16   50 1    
    36   16   63 1    
    37   17   18 1    
    38   17   51 1    
    39   17   52 1    
    40   18   53 1    
    41   18   54 1    
    42   19   20 2    
    43   19   21 1    
    44   21   26 ar   
    45   21   22 ar   
    46   22   23 ar   
    47   22   55 1    
    48   23   24 ar   
    49   23   28 1    
    50   24   25 ar   
    51   24   56 1    
    52   25   26 ar   
    53   25   57 1    
    54   26   27 1    
    55   29   30 1    
    56   30   35 ar   
    57   30   31 ar   
    58   31   32 ar   
    59   31   58 1    
    60   32   33 ar   
    61   32   59 1    
    62   33   34 ar   
    63   33   60 1    
    64   34   35 ar   
    65   34   61 1    
    66   35   62 1    
@<TRIPOS>SUBSTRUCTURE
     1 UNK         1 GROUP             0       ****    0 ROOT    
