@<TRIPOS>MOLECULE
ZINC02268321_608
50   53    1
SMALL
USER_CHARGES


@<TRIPOS>ATOM
      1 C1          5.3011   54.3082   23.4740 C.ar      1 UNK         0.0000 
      2 C2          4.8184   54.1020   22.1815 C.ar      1 UNK         0.0000 
      3 C3          3.5028   53.6985   21.9493 C.ar      1 UNK         0.0000 
      4 C4          2.6823   53.4773   23.0648 C.ar      1 UNK         0.0000 
      5 C5          3.1616   53.6944   24.3838 C.ar      1 UNK         0.0000 
      6 C6          4.4810   54.1241   24.5890 C.ar      1 UNK         0.0000 
      7 N7          2.2827   53.3877   25.3744 N.2       1 UNK         0.0000 
      8 C8          1.1582   52.9055   24.8991 C.2       1 UNK         0.0000 
      9 S9          1.0277   52.8894   23.1474 S.3       1 UNK         0.0000 
     10 N10         0.1560   52.3725   25.7200 N.pl3     1 UNK         0.0000 
     11 C11        -1.1515   52.1120   25.4881 C.ar      1 UNK         0.0000 
     12 O12        -1.7808   52.2905   24.4432 O.2       1 UNK         0.0000 
     13 C13        -1.6353   51.5872   26.7607 C.ar      1 UNK         0.0000 
     14 C14        -0.6391   51.6241   27.6679 C.ar      1 UNK         0.0000 
     15 N15         0.4822   52.0598   27.0123 N.pl3     1 UNK         0.0000 
     16 H16         1.0415   52.8376   27.3329 H         1 UNK         0.0000 
     17 C17        -0.5328   51.2968   29.1457 C.3       1 UNK         0.0000 
     18 S18        -0.0938   52.7086   30.2088 S.3       1 UNK         0.0000 
     19 C19         1.4978   53.3056   29.7284 C.ar      1 UNK         0.0000 
     20 C20         2.5209   52.4174   29.3883 C.ar      1 UNK         0.0000 
     21 C21         3.7584   52.9125   28.9836 C.ar      1 UNK         0.0000 
     22 C22         3.9651   54.2894   28.9278 C.ar      1 UNK         0.0000 
     23 C23         2.9472   55.1758   29.2808 C.ar      1 UNK         0.0000 
     24 C24         1.7094   54.6826   29.6817 C.ar      1 UNK         0.0000 
     25 Cl25        5.4964   54.8943   28.4140 Cl        1 UNK         0.0000 
     26 C26        -2.9467   51.1765   26.9321 C.2       1 UNK         0.0000 
     27 N27        -3.2956   50.0994   27.6282 N.pl3     1 UNK         0.0000 
     28 C28        -4.7026   49.6772   27.8531 C.3       1 UNK         0.0000 
     29 C29        -4.9219   49.3093   29.3378 C.3       1 UNK         0.0000 
     30 C30        -4.7657   50.4629   30.3489 C.3       1 UNK         0.0000 
     31 O31        -5.6937   51.4963   30.0766 O.3       1 UNK         0.0000 
     32 H32         6.3266   54.6237   23.6122 H         1 UNK         0.0000 
     33 H33         5.4783   54.2675   21.3416 H         1 UNK         0.0000 
     34 H34         3.1348   53.5465   20.9437 H         1 UNK         0.0000 
     35 H35         4.8662   54.2770   25.5863 H         1 UNK         0.0000 
     36 H36         0.1952   50.4980   29.2688 H         1 UNK         0.0000 
     37 H37        -1.4777   50.8967   29.5114 H         1 UNK         0.0000 
     38 H38         2.3589   51.3508   29.4188 H         1 UNK         0.0000 
     39 H39         4.5525   52.2326   28.7067 H         1 UNK         0.0000 
     40 H40         3.1042   56.2435   29.2476 H         1 UNK         0.0000 
     41 H41         0.9176   55.3680   29.9510 H         1 UNK         0.0000 
     42 H42        -3.7389   51.7513   26.4726 H         1 UNK         0.0000 
     43 H43        -5.3767   50.4674   27.5141 H         1 UNK         0.0000 
     44 H44        -4.8449   48.8022   27.2199 H         1 UNK         0.0000 
     45 H45        -5.9125   48.8682   29.4525 H         1 UNK         0.0000 
     46 H46        -4.2271   48.5110   29.6113 H         1 UNK         0.0000 
     47 H47        -4.8857   50.1076   31.3750 H         1 UNK         0.0000 
     48 H48        -3.7706   50.8963   30.2683 H         1 UNK         0.0000 
     49 H49        -6.5764   51.1540   30.2469 H         1 UNK         0.0000 
     50 H50        -2.5609   49.4927   28.0254 H         1 UNK         0.0000 
@<TRIPOS>BOND
     1    1    6 ar   
     2    1    2 ar   
     3    1   32 1    
     4    2    3 ar   
     5    2   33 1    
     6    3    4 ar   
     7    3   34 1    
     8    4    9 1    
     9    4    5 ar   
    10    5    6 ar   
    11    5    7 1    
    12    6   35 1    
    13    7    8 2    
    14    8    9 1    
    15    8   10 1    
    16   10   15 1    
    17   10   11 ar   
    18   11   12 2    
    19   11   13 ar   
    20   13   14 ar   
    21   13   26 1    
    22   14   15 ar   
    23   14   17 1    
    24   15   16 1    
    25   17   18 1    
    26   17   36 1    
    27   17   37 1    
    28   18   19 1    
    29   19   24 ar   
    30   19   20 ar   
    31   20   21 ar   
    32   20   38 1    
    33   21   22 ar   
    34   21   39 1    
    35   22   23 ar   
    36   22   25 1    
    37   23   24 ar   
    38   23   40 1    
    39   24   41 1    
    40   26   27 2    
    41   26   42 1    
    42   27   28 1    
    43   27   50 1    
    44   28   29 1    
    45   28   43 1    
    46   28   44 1    
    47   29   30 1    
    48   29   45 1    
    49   29   46 1    
    50   30   31 1    
    51   30   47 1    
    52   30   48 1    
    53   31   49 1    
@<TRIPOS>SUBSTRUCTURE
     1 UNK         1 GROUP             0       ****    0 ROOT    
