@<TRIPOS>MOLECULE
ZINC21595761_3534
52   55    1
SMALL
USER_CHARGES


@<TRIPOS>ATOM
      1 C1          5.1549   54.2149   20.3180 C.ar      1 UNK         0.0000 
      2 C2          4.3721   53.6090   21.2972 C.ar      1 UNK         0.0000 
      3 C3          4.7160   53.7514   22.6390 C.ar      1 UNK         0.0000 
      4 C4          5.8446   54.4969   23.0025 C.ar      1 UNK         0.0000 
      5 C5          6.6312   55.0930   22.0095 C.ar      1 UNK         0.0000 
      6 C6          6.2809   54.9584   20.6669 C.ar      1 UNK         0.0000 
      7 C7          6.1850   54.7198   24.4372 C.2       1 UNK         0.0000 
      8 C8          7.1486   55.4783   25.0843 C.2       1 UNK         0.0000 
      9 C9          6.9569   55.2865   26.4538 C.2       1 UNK         0.0000 
     10 C10         5.8517   54.4897   26.6112 C.2       1 UNK         0.0000 
     11 O11         5.3994   54.1294   25.3778 O.3       1 UNK         0.0000 
     12 C12         5.1170   54.0986   27.7862 C.2       1 UNK         0.0000 
     13 C13         4.0348   53.3101   27.7486 C.2       1 UNK         0.0000 
     14 C14         3.2036   53.0273   28.8883 C.2       1 UNK         0.0000 
     15 O15         3.4633   53.3647   30.0483 O.2       1 UNK         0.0000 
     16 N16         2.1015   52.3948   28.4489 N.am      1 UNK         0.0000 
     17 C17         0.8749   52.1064   28.9780 C.2       1 UNK         0.0000 
     18 S18         0.3046   52.5197   30.4841 S.2       1 UNK         0.0000 
     19 N19         0.0527   51.4216   28.1286 N.pl3     1 UNK         0.0000 
     20 C20         0.2398   51.2216   26.7481 C.ar      1 UNK         0.0000 
     21 C21         0.1307   49.9333   26.2289 C.ar      1 UNK         0.0000 
     22 C22         0.3607   49.7119   24.8725 C.ar      1 UNK         0.0000 
     23 C23         0.6952   50.7797   24.0336 C.ar      1 UNK         0.0000 
     24 C24         0.8053   52.0742   24.5599 C.ar      1 UNK         0.0000 
     25 C25         0.5724   52.2929   25.9088 C.ar      1 UNK         0.0000 
     26 N26         0.9549   50.4731   22.6896 N.am      1 UNK         0.0000 
     27 C27         0.9359   51.2993   21.6187 C.2       1 UNK         0.0000 
     28 O28         0.6312   52.4939   21.6533 O.2       1 UNK         0.0000 
     29 C29         1.3261   50.6896   20.3720 C.2       1 UNK         0.0000 
     30 C30         1.5622   51.3573   19.1693 C.2       1 UNK         0.0000 
     31 C31         1.9044   50.4990   18.1223 C.2       1 UNK         0.0000 
     32 C32         1.9042   49.1658   18.5008 C.2       1 UNK         0.0000 
     33 S33         1.5001   48.9570   20.1704 S.3       1 UNK         0.0000 
     34 H34         4.8859   54.1063   19.2780 H         1 UNK         0.0000 
     35 H35         3.4934   53.0455   21.0159 H         1 UNK         0.0000 
     36 H36         4.0895   53.2983   23.3946 H         1 UNK         0.0000 
     37 H37         7.5047   55.6715   22.2744 H         1 UNK         0.0000 
     38 H38         6.8796   55.4230   19.8970 H         1 UNK         0.0000 
     39 H39         7.9032   56.0918   24.6074 H         1 UNK         0.0000 
     40 H40         7.5045   55.6966   27.2814 H         1 UNK         0.0000 
     41 H41         5.4798   54.5210   28.7143 H         1 UNK         0.0000 
     42 H42         3.7339   52.8961   26.7940 H         1 UNK         0.0000 
     43 H43         2.1921   52.0859   27.4928 H         1 UNK         0.0000 
     44 H44        -0.8094   51.0590   28.5127 H         1 UNK         0.0000 
     45 H45        -0.0952   49.1004   26.8816 H         1 UNK         0.0000 
     46 H46         0.2928   48.7032   24.4908 H         1 UNK         0.0000 
     47 H47         1.0960   52.9185   23.9533 H         1 UNK         0.0000 
     48 H48         0.6941   53.2928   26.3013 H         1 UNK         0.0000 
     49 H49         1.1679   49.5051   22.5043 H         1 UNK         0.0000 
     50 H50         1.5083   52.4321   19.0560 H         1 UNK         0.0000 
     51 H51         2.1608   50.8320   17.1266 H         1 UNK         0.0000 
     52 H52         2.1697   48.3195   17.8820 H         1 UNK         0.0000 
@<TRIPOS>BOND
     1    1    6 ar   
     2    1    2 ar   
     3    1   34 1    
     4    2    3 ar   
     5    2   35 1    
     6    3    4 ar   
     7    3   36 1    
     8    4    5 ar   
     9    4    7 1    
    10    5    6 ar   
    11    5   37 1    
    12    6   38 1    
    13    7   11 1    
    14    7    8 2    
    15    8    9 1    
    16    8   39 1    
    17    9   10 2    
    18    9   40 1    
    19   10   11 1    
    20   10   12 1    
    21   12   13 2    
    22   12   41 1    
    23   13   14 1    
    24   13   42 1    
    25   14   15 2    
    26   14   16 am   BACKBONE|DICT|INTERRES
    27   16   17 am   BACKBONE|DICT|INTERRES
    28   16   43 1    
    29   17   18 2    
    30   17   19 1    
    31   19   20 1    
    32   19   44 1    
    33   20   25 ar   
    34   20   21 ar   
    35   21   22 ar   
    36   21   45 1    
    37   22   23 ar   
    38   22   46 1    
    39   23   24 ar   
    40   23   26 1    
    41   24   25 ar   
    42   24   47 1    
    43   25   48 1    
    44   26   27 am   BACKBONE|DICT|INTERRES
    45   26   49 1    
    46   27   28 2    
    47   27   29 1    
    48   29   33 1    
    49   29   30 2    
    50   30   31 1    
    51   30   50 1    
    52   31   32 2    
    53   31   51 1    
    54   32   33 1    
    55   32   52 1    
@<TRIPOS>SUBSTRUCTURE
     1 UNK         1 GROUP             0       ****    0 ROOT    
