ZINC13205340_518
                    3D
 Schrodinger Suite 2024-2.
 47 50  0  0  1  0            999 V2000
    7.1028   55.0397   24.3199 C   0  0  0  0  0  0
    5.6581   54.6242   24.4873 C   0  0  0  0  0  0
    4.9548   54.0968   23.4051 C   0  0  0  0  0  0
    3.6305   53.7072   23.5688 C   0  0  0  0  0  0
    3.0104   53.8141   24.8194 C   0  0  0  0  0  0
    3.7143   54.3694   25.8923 C   0  0  0  0  0  0
    5.0369   54.7713   25.7275 C   0  0  0  0  0  0
    1.6176   53.2884   24.9577 C   0  0  0  0  0  0
    0.7243   53.3881   23.9990 N   0  0  0  0  0  0
   -0.3798   52.6366   24.3687 N   0  0  0  0  0  0
   -0.1033   52.0970   25.5268 C   0  0  0  0  0  0
    1.1178   52.5291   26.0057 N   0  0  0  0  0  0
    1.7745   52.1127   27.2570 C   0  0  0  0  0  0
    1.4703   53.0098   28.4638 C   0  0  0  0  0  0
    2.0235   52.6785   29.5361 O   0  0  0  0  0  0
   -1.1223   50.8971   26.2922 S   0  0  0  0  0  0
   -0.2200   49.4401   25.6466 C   0  0  0  0  0  0
   -1.1368   48.4827   24.8879 C   0  0  0  0  0  0
   -1.0695   48.3879   23.6619 O   0  0  0  0  0  0
   -1.9523   47.7694   25.6818 N   0  0  0  0  0  0
   -2.9531   46.8395   25.3757 C   0  0  0  0  0  0
   -3.4637   46.1150   26.4711 C   0  0  0  0  0  0
   -4.4953   45.1824   26.3030 C   0  0  0  0  0  0
   -4.9924   45.0024   25.0174 C   0  0  0  0  0  0
   -4.5010   45.6972   23.9496 C   0  0  0  0  0  0
   -3.4793   46.6320   24.0842 C   0  0  0  0  0  0
   -5.1469   45.3057   22.8211 O   0  0  0  0  0  0
   -6.0826   44.3313   23.2087 C   0  0  0  0  0  0
   -5.9565   44.1455   24.5957 O   0  0  0  0  0  0
   -7.3159   44.7411   22.9139 F   0  0  0  0  0  0
   -5.8268   43.1860   22.5752 F   0  0  0  0  0  0
    7.2211   56.1015   24.5249 H   0  0  0  0  0  0
    7.7184   54.4973   25.0329 H   0  0  0  0  0  0
    7.4813   54.8340   23.3180 H   0  0  0  0  0  0
    5.4277   53.9870   22.4401 H   0  0  0  0  0  0
    3.0986   53.2875   22.7264 H   0  0  0  0  0  0
    3.2443   54.4883   26.8568 H   0  0  0  0  0  0
    5.5771   55.1865   26.5658 H   0  0  0  0  0  0
    1.4684   51.0946   27.4929 H   0  0  0  0  0  0
    2.8493   52.0991   27.1070 H   0  0  0  0  0  0
    0.2388   48.9103   26.4823 H   0  0  0  0  0  0
    0.5994   49.7310   24.9874 H   0  0  0  0  0  0
   -1.8060   47.9292   26.6814 H   0  0  0  0  0  0
   -3.0611   46.2770   27.4633 H   0  0  0  0  0  0
   -4.8706   44.6233   27.1482 H   0  0  0  0  0  0
   -3.1235   47.1796   23.2249 H   0  0  0  0  0  0
    0.7360   54.0123   28.3159 O   0  5  0  0  0  0
  1  2  1  0  0  0
  1 32  1  0  0  0
  1 33  1  0  0  0
  1 34  1  0  0  0
  2  7  2  0  0  0
  2  3  1  0  0  0
  3  4  2  0  0  0
  3 35  1  0  0  0
  4  5  1  0  0  0
  4 36  1  0  0  0
  5  6  2  0  0  0
  5  8  1  0  0  0
  6  7  1  0  0  0
  6 37  1  0  0  0
  7 38  1  0  0  0
  8 12  1  0  0  0
  8  9  2  0  0  0
  9 10  1  0  0  0
 10 11  2  0  0  0
 11 12  1  0  0  0
 11 16  1  0  0  0
 12 13  1  0  0  0
 13 14  1  0  0  0
 13 39  1  0  0  0
 13 40  1  0  0  0
 14 15  2  0  0  0
 14 47  1  0  0  0
 16 17  1  0  0  0
 17 18  1  0  0  0
 17 41  1  0  0  0
 17 42  1  0  0  0
 18 19  2  0  0  0
 18 20  1  0  0  0
 20 21  1  0  0  0
 20 43  1  0  0  0
 21 26  2  0  0  0
 21 22  1  0  0  0
 22 23  2  0  0  0
 22 44  1  0  0  0
 23 24  1  0  0  0
 23 45  1  0  0  0
 24 29  1  0  0  0
 24 25  2  0  0  0
 25 26  1  0  0  0
 25 27  1  0  0  0
 26 46  1  0  0  0
 27 28  1  0  0  0
 28 29  1  0  0  0
 28 30  1  0  0  0
 28 31  1  0  0  0
M  CHG  1  47  -1
M  END
> <i_i_glide_confnum>
31

> <i_i_glide_lignum>
519

> <i_i_glide_posenum>
8

> <i_i_glide_rotatable_bonds>
8

> <i_m_Source_File_Index>
1551

> <b_m_subgroup_collapsed>
0

> <r_i_docking_score>
-5.44849

> <r_i_glide_ecoul>
-8.60683

> <r_i_glide_eff_state_penalty>
0

> <r_i_glide_einternal>
1.37161

> <r_i_glide_emodel>
-60.6583

> <r_i_glide_energy>
-43.5876

> <r_i_glide_erotb>
0.567458

> <r_i_glide_esite>
-0.173653

> <r_i_glide_evdw>
-34.9808

> <r_i_glide_gscore>
-5.44849

> <r_i_glide_hbond>
-0.16

> <r_i_glide_ligand_efficiency>
-0.170265

> <r_i_glide_ligand_efficiency_ln>
-1.22006

> <r_i_glide_ligand_efficiency_sa>
-0.540558

> <r_i_glide_lipo>
-1.63457

> <r_i_glide_metal>
0

> <r_i_glide_rewards>
-1.00766

> <s_i_glide_gridfile>
wee1_glide-grid

> <s_m_Source_File>
wee1_decoys_glide_SP.sdf

> <s_m_Source_Path>
/Users/zhangxujun/Desktop

> <s_m_entry_id>
1826

> <s_m_entry_name>
wee1_decoys_glide_SP.1551

> <s_m_subgroup_title>
wee1_decoys_glide_SP

> <s_m_subgroupid>
wee1_decoys_glide_SP


$$$$
