@<TRIPOS>MOLECULE
ZINC39673137_3074
69   72    1
SMALL
USER_CHARGES


@<TRIPOS>ATOM
      1 C1          6.9632   54.0347   27.7634 C.3       1 UNK         0.0000 
      2 C2          5.9455   54.2287   26.6515 C.ar      1 UNK         0.0000 
      3 C3          6.3980   54.3599   25.3346 C.ar      1 UNK         0.0000 
      4 C4          5.4907   54.4963   24.2849 C.ar      1 UNK         0.0000 
      5 C5          4.1162   54.4973   24.5375 C.ar      1 UNK         0.0000 
      6 C6          3.6694   54.4353   25.8580 C.ar      1 UNK         0.0000 
      7 C7          4.5671   54.2852   26.9179 C.ar      1 UNK         0.0000 
      8 C8          4.0215   54.1696   28.3342 C.3       1 UNK         0.0000 
      9 C9          3.1100   54.6712   23.4016 C.3       1 UNK         0.0000 
     10 N10         2.6318   53.4208   22.8213 N.am      1 UNK         0.0000 
     11 C11         3.3626   52.5686   22.0815 C.2       1 UNK         0.0000 
     12 O12         4.5368   52.7805   21.7773 O.2       1 UNK         0.0000 
     13 C13         2.6870   51.2634   21.5897 C.3       1 UNK         0.0000 
     14 H14         3.4606   50.4966   21.6559 H         1 UNK         0.0000 
     15 C15         1.4853   50.8063   22.4424 C.3       1 UNK         0.0000 
     16 N16         0.3417   51.4486   21.7812 N.am      1 UNK         0.0000 
     17 C17         0.6701   51.8300   20.3949 C.3       1 UNK         0.0000 
     18 C18         2.1299   51.3724   20.1420 C.3       1 UNK         0.0000 
     19 C19         2.1925   49.9503   19.5020 C.3       1 UNK         0.0000 
     20 C20         1.5353   49.8819   18.1079 C.3       1 UNK         0.0000 
     21 N21         2.2502   50.8968   17.1904 N.4       1 UNK         0.0000 
     22 C22         2.2859   52.3324   17.7547 C.3       1 UNK         0.0000 
     23 C23         2.9225   52.2798   19.1518 C.3       1 UNK         0.0000 
     24 C24        -0.8966   51.6973   22.2929 C.2       1 UNK         0.0000 
     25 O25        -1.8108   52.0963   21.5654 O.2       1 UNK         0.0000 
     26 C26        -1.2000   51.5153   23.7690 C.ar      1 UNK         0.0000 
     27 C27        -2.4531   51.0200   24.1486 C.ar      1 UNK         0.0000 
     28 C28        -2.8133   50.9274   25.4908 C.ar      1 UNK         0.0000 
     29 C29        -1.9266   51.3283   26.5011 C.ar      1 UNK         0.0000 
     30 C30        -0.6645   51.8239   26.1406 C.ar      1 UNK         0.0000 
     31 C31        -0.3224   51.9318   24.7825 C.ar      1 UNK         0.0000 
     32 C32         0.3375   52.2222   27.2304 C.3       1 UNK         0.0000 
     33 F33         0.5072   51.2320   28.1024 F         1 UNK         0.0000 
     34 F34         1.5358   52.4940   26.7199 F         1 UNK         0.0000 
     35 F35        -0.0918   53.2959   27.8948 F         1 UNK         0.0000 
     36 O36        -2.2450   51.2969   27.8453 O.3       1 UNK         0.0000 
     37 C37        -3.3382   50.4969   28.2839 C.3       1 UNK         0.0000 
     38 H38         6.6411   54.4962   28.6951 H         1 UNK         0.0000 
     39 H39         7.1358   52.9728   27.9414 H         1 UNK         0.0000 
     40 H40         7.9042   54.5109   27.5076 H         1 UNK         0.0000 
     41 H41         7.4527   54.3354   25.1075 H         1 UNK         0.0000 
     42 H42         5.8602   54.5809   23.2726 H         1 UNK         0.0000 
     43 H43         2.6118   54.4958   26.0596 H         1 UNK         0.0000 
     44 H44         2.9314   54.1529   28.3608 H         1 UNK         0.0000 
     45 H45         4.3776   53.2493   28.7992 H         1 UNK         0.0000 
     46 H46         4.3652   55.0047   28.9452 H         1 UNK         0.0000 
     47 H47         2.2487   55.2204   23.7841 H         1 UNK         0.0000 
     48 H48         3.5272   55.2962   22.6100 H         1 UNK         0.0000 
     49 H49         1.6576   53.2026   22.9576 H         1 UNK         0.0000 
     50 H50         1.3848   49.7232   22.3616 H         1 UNK         0.0000 
     51 H51         1.6541   51.0169   23.4951 H         1 UNK         0.0000 
     52 H52         0.6744   52.9204   20.3738 H         1 UNK         0.0000 
     53 H53        -0.0340   51.4983   19.6326 H         1 UNK         0.0000 
     54 H54         3.2221   49.5944   19.4443 H         1 UNK         0.0000 
     55 H55         1.6780   49.2270   20.1356 H         1 UNK         0.0000 
     56 H56         1.6871   48.9072   17.6377 H         1 UNK         0.0000 
     57 H57         0.4713   50.1215   18.0939 H         1 UNK         0.0000 
     58 H58         3.2036   50.5443   17.0587 H         1 UNK         0.0000 
     59 H59         2.8796   52.9209   17.0534 H         1 UNK         0.0000 
     60 H60         1.2602   52.7043   17.7597 H         1 UNK         0.0000 
     61 H61         2.9553   53.3046   19.5238 H         1 UNK         0.0000 
     62 H62         3.9651   51.9663   19.0895 H         1 UNK         0.0000 
     63 H63        -3.1706   50.7158   23.3993 H         1 UNK         0.0000 
     64 H64        -3.7959   50.5509   25.7329 H         1 UNK         0.0000 
     65 H65         0.6189   52.3910   24.5268 H         1 UNK         0.0000 
     66 H66        -3.2872   50.3838   29.3674 H         1 UNK         0.0000 
     67 H67        -4.2927   50.9642   28.0377 H         1 UNK         0.0000 
     68 H68        -3.3061   49.4977   27.8518 H         1 UNK         0.0000 
     69 H69         1.8342   50.8862   16.2693 H         1 UNK         0.0000 
@<TRIPOS>BOND
     1    1    2 1    
     2    1   38 1    
     3    1   39 1    
     4    1   40 1    
     5    2    7 ar   
     6    2    3 ar   
     7    3    4 ar   
     8    3   41 1    
     9    4    5 ar   
    10    4   42 1    
    11    5    6 ar   
    12    5    9 1    
    13    6    7 ar   
    14    6   43 1    
    15    7    8 1    
    16    8   44 1    
    17    8   45 1    
    18    8   46 1    
    19    9   10 1    
    20    9   47 1    
    21    9   48 1    
    22   10   11 am   BACKBONE|DICT|INTERRES
    23   10   49 1    
    24   11   12 2    
    25   11   13 1    
    26   13   14 1    
    27   13   18 1    
    28   13   15 1    
    29   15   16 1    
    30   15   50 1    
    31   15   51 1    
    32   16   17 1    
    33   16   24 am   BACKBONE|DICT|INTERRES
    34   17   18 1    
    35   17   52 1    
    36   17   53 1    
    37   18   23 1    
    38   18   19 1    
    39   19   20 1    
    40   19   54 1    
    41   19   55 1    
    42   20   21 1    
    43   20   56 1    
    44   20   57 1    
    45   21   22 1    
    46   21   58 1    
    47   21   69 1    
    48   22   23 1    
    49   22   59 1    
    50   22   60 1    
    51   23   61 1    
    52   23   62 1    
    53   24   25 2    
    54   24   26 1    
    55   26   31 ar   
    56   26   27 ar   
    57   27   28 ar   
    58   27   63 1    
    59   28   29 ar   
    60   28   64 1    
    61   29   30 ar   
    62   29   36 1    
    63   30   31 ar   
    64   30   32 1    
    65   31   65 1    
    66   32   33 1    
    67   32   34 1    
    68   32   35 1    
    69   36   37 1    
    70   37   66 1    
    71   37   67 1    
    72   37   68 1    
@<TRIPOS>SUBSTRUCTURE
     1 UNK         1 GROUP             0       ****    0 ROOT    
