@<TRIPOS>MOLECULE
ZINC48888664_6166
39   41    1
SMALL
USER_CHARGES


@<TRIPOS>ATOM
      1 C1          0.4371   52.2045   30.5825 C.3       1 UNK         0.0000 
      2 C2          1.9429   52.4965   30.4115 C.3       1 UNK         0.0000 
      3 C3          1.9289   53.8597   29.6790 C.3       1 UNK         0.0000 
      4 H4          2.8609   54.4241   29.7295 H         1 UNK         0.0000 
      5 C5          0.7056   54.5444   30.2693 C.3       1 UNK         0.0000 
      6 C6         -0.2103   53.3985   29.8793 C.3       1 UNK         0.0000 
      7 H7         -1.2645   53.5075   30.0817 H         1 UNK         0.0000 
      8 C8         -0.0115   53.2967   28.3729 C.3       1 UNK         0.0000 
      9 N9          1.4228   53.5518   28.3182 N.am      1 UNK         0.0000 
     10 C10         2.1159   53.4770   27.1710 C.2       1 UNK         0.0000 
     11 O11         1.6692   52.9598   26.1458 O.2       1 UNK         0.0000 
     12 N12         3.2898   54.1140   27.2241 N.am      1 UNK         0.0000 
     13 C13         4.4009   53.8939   26.3259 C.3       1 UNK         0.0000 
     14 C14         5.7218   54.3938   26.9186 C.3       1 UNK         0.0000 
     15 C15         6.9044   54.0969   26.0027 C.3       1 UNK         0.0000 
     16 C16         6.6920   54.6060   24.5669 C.3       1 UNK         0.0000 
     17 C17         5.3923   54.0966   23.9295 C.3       1 UNK         0.0000 
     18 C18         4.1618   54.2602   24.8383 C.3       1 UNK         0.0000 
     19 O19         6.7044   56.0093   24.5814 O.3       1 UNK         0.0000 
     20 H20         0.1538   52.1476   31.6350 H         1 UNK         0.0000 
     21 H21         0.1176   51.2967   30.0817 H         1 UNK         0.0000 
     22 H22         2.4553   51.7209   29.8385 H         1 UNK         0.0000 
     23 H23         2.4327   52.5643   31.3844 H         1 UNK         0.0000 
     24 H24         0.4798   55.4952   29.7895 H         1 UNK         0.0000 
     25 H25         0.7593   54.7064   31.3480 H         1 UNK         0.0000 
     26 H26        -0.2933   52.3100   28.0014 H         1 UNK         0.0000 
     27 H27        -0.5800   54.0837   27.8823 H         1 UNK         0.0000 
     28 H28         3.4493   54.7625   27.9778 H         1 UNK         0.0000 
     29 H29         4.5396   52.8173   26.3126 H         1 UNK         0.0000 
     30 H30         5.6687   55.4708   27.0764 H         1 UNK         0.0000 
     31 H31         5.9036   53.9396   27.8944 H         1 UNK         0.0000 
     32 H32         7.0132   53.0143   25.9823 H         1 UNK         0.0000 
     33 H33         7.8094   54.4967   26.4523 H         1 UNK         0.0000 
     34 H34         7.5095   54.2711   23.9371 H         1 UNK         0.0000 
     35 H35         5.5041   53.0256   23.7629 H         1 UNK         0.0000 
     36 H36         5.2114   54.5570   22.9573 H         1 UNK         0.0000 
     37 H37         3.3468   53.6735   24.4142 H         1 UNK         0.0000 
     38 H38         3.8498   55.2967   24.7910 H         1 UNK         0.0000 
     39 H39         6.5913   56.3150   23.6784 H         1 UNK         0.0000 
@<TRIPOS>BOND
     1    1    6 1    
     2    1    2 1    
     3    1   20 1    
     4    1   21 1    
     5    2    3 1    
     6    2   22 1    
     7    2   23 1    
     8    3    4 1    
     9    3    9 1    
    10    3    5 1    
    11    5    6 1    
    12    5   24 1    
    13    5   25 1    
    14    6    7 1    
    15    6    8 1    
    16    8    9 1    
    17    8   26 1    
    18    8   27 1    
    19    9   10 am   BACKBONE|DICT|INTERRES
    20   10   11 2    
    21   10   12 am   BACKBONE|DICT|INTERRES
    22   12   13 1    
    23   12   28 1    
    24   13   18 1    
    25   13   14 1    
    26   13   29 1    
    27   14   15 1    
    28   14   30 1    
    29   14   31 1    
    30   15   16 1    
    31   15   32 1    
    32   15   33 1    
    33   16   17 1    
    34   16   19 1    
    35   16   34 1    
    36   17   18 1    
    37   17   35 1    
    38   17   36 1    
    39   18   37 1    
    40   18   38 1    
    41   19   39 1    
@<TRIPOS>SUBSTRUCTURE
     1 UNK         1 GROUP             0       ****    0 ROOT    
