@<TRIPOS>MOLECULE
ZINC65074841_4105
67   71    1
SMALL
USER_CHARGES


@<TRIPOS>ATOM
      1 C1         -0.1667   52.3821   29.7266 C.3       1 UNK         0.0000 
      2 C2         -0.0334   53.0188   28.3305 C.3       1 UNK         0.0000 
      3 C3          1.3022   53.7654   28.1741 C.3       1 UNK         0.0000 
      4 C4         -0.2838   52.0005   27.2147 C.ar      1 UNK         0.0000 
      5 C5          0.5634   50.8972   27.0588 C.ar      1 UNK         0.0000 
      6 C6          0.3047   49.9420   26.0798 C.ar      1 UNK         0.0000 
      7 C7         -0.8053   50.0893   25.2440 C.ar      1 UNK         0.0000 
      8 C8         -1.6428   51.1984   25.3774 C.ar      1 UNK         0.0000 
      9 C9         -1.3853   52.1480   26.3663 C.ar      1 UNK         0.0000 
     10 S10        -1.1576   48.8458   23.9968 S.o2      1 UNK         0.0000 
     11 O11        -0.5544   47.5875   24.4581 O.2       1 UNK         0.0000 
     12 O12        -2.5920   48.9410   23.6964 O.2       1 UNK         0.0000 
     13 N13        -0.2700   49.3815   22.5558 N.pl3     1 UNK         0.0000 
     14 C14        -0.8056   50.5086   21.7510 C.3       1 UNK         0.0000 
     15 C15         0.0882   51.7625   21.8400 C.3       1 UNK         0.0000 
     16 C16         1.5872   51.4750   21.5339 C.3       1 UNK         0.0000 
     17 C17         2.0504   50.3668   22.5077 C.3       1 UNK         0.0000 
     18 C18         1.1842   49.1044   22.4486 C.3       1 UNK         0.0000 
     19 C19         2.4834   52.7092   21.7117 C.2       1 UNK         0.0000 
     20 N20         3.5053   53.0027   20.8929 N.pl3     1 UNK         0.0000 
     21 C21         3.7971   52.3066   19.6458 C.3       1 UNK         0.0000 
     22 C22         3.0684   50.9621   19.6417 C.3       1 UNK         0.0000 
     23 N23         1.6974   51.1280   20.1056 N.3       1 UNK         0.0000 
     24 N24         2.2327   53.4665   22.7871 N.pl3     1 UNK         0.0000 
     25 C25         2.9266   54.6860   23.1836 C.3       1 UNK         0.0000 
     26 C26         4.0952   54.4475   24.1168 C.ar      1 UNK         0.0000 
     27 C27         5.4129   54.4965   23.6289 C.ar      1 UNK         0.0000 
     28 C28         6.5016   54.3934   24.5000 C.ar      1 UNK         0.0000 
     29 C29         6.2332   54.2178   25.8545 C.ar      1 UNK         0.0000 
     30 C30         4.9559   54.1349   26.3303 C.ar      1 UNK         0.0000 
     31 C31         3.8582   54.2473   25.4860 C.ar      1 UNK         0.0000 
     32 O32         4.9847   54.0096   27.6821 O.3       1 UNK         0.0000 
     33 C33         6.3321   53.7906   28.0061 C.3       1 UNK         0.0000 
     34 O34         7.1044   54.1514   26.8915 O.3       1 UNK         0.0000 
     35 H35        -1.0958   51.8179   29.8252 H         1 UNK         0.0000 
     36 H36        -0.1610   53.1386   30.5129 H         1 UNK         0.0000 
     37 H37         0.6564   51.6964   29.9342 H         1 UNK         0.0000 
     38 H38        -0.8022   53.7865   28.2560 H         1 UNK         0.0000 
     39 H39         1.2844   54.3916   27.2840 H         1 UNK         0.0000 
     40 H40         1.4903   54.4273   29.0201 H         1 UNK         0.0000 
     41 H41         2.1513   53.0853   28.0980 H         1 UNK         0.0000 
     42 H42         1.4074   50.7627   27.7160 H         1 UNK         0.0000 
     43 H43         0.9456   49.0741   25.9903 H         1 UNK         0.0000 
     44 H44        -2.5088   51.3142   24.7393 H         1 UNK         0.0000 
     45 H45        -2.0571   52.9856   26.4796 H         1 UNK         0.0000 
     46 H46        -0.9407   50.1645   20.7258 H         1 UNK         0.0000 
     47 H47        -1.8067   50.7469   22.1094 H         1 UNK         0.0000 
     48 H48        -0.2859   52.5298   21.1623 H         1 UNK         0.0000 
     49 H49        -0.0273   52.1736   22.8436 H         1 UNK         0.0000 
     50 H50         2.0232   50.7520   23.5283 H         1 UNK         0.0000 
     51 H51         3.0963   50.1086   22.3437 H         1 UNK         0.0000 
     52 H52         1.4748   48.4902   23.2916 H         1 UNK         0.0000 
     53 H53         1.3638   48.5092   21.5533 H         1 UNK         0.0000 
     54 H54         3.4396   52.9389   18.8315 H         1 UNK         0.0000 
     55 H55         4.8745   52.1769   19.5324 H         1 UNK         0.0000 
     56 H56         3.0685   50.5431   18.6316 H         1 UNK         0.0000 
     57 H57         3.5997   50.2251   20.2421 H         1 UNK         0.0000 
     58 H58         1.1806   50.2745   19.9404 H         1 UNK         0.0000 
     59 H59         1.4731   53.1597   23.3793 H         1 UNK         0.0000 
     60 H60         3.2224   55.2213   22.2808 H         1 UNK         0.0000 
     61 H61         2.1844   55.2965   23.6949 H         1 UNK         0.0000 
     62 H62         5.5988   54.6549   22.5770 H         1 UNK         0.0000 
     63 H63         7.5052   54.4634   24.1193 H         1 UNK         0.0000 
     64 H64         2.8535   54.2102   25.8631 H         1 UNK         0.0000 
     65 H65         6.4798   52.7294   28.2093 H         1 UNK         0.0000 
     66 H66         6.6207   54.3770   28.8798 H         1 UNK         0.0000 
     67 H67         4.0240   53.8435   21.0979 H         1 UNK         0.0000 
@<TRIPOS>BOND
     1    1    2 1    
     2    1   35 1    
     3    1   36 1    
     4    1   37 1    
     5    2    3 1    
     6    2    4 1    
     7    2   38 1    
     8    3   39 1    
     9    3   40 1    
    10    3   41 1    
    11    4    9 ar   
    12    4    5 ar   
    13    5    6 ar   
    14    5   42 1    
    15    6    7 ar   
    16    6   43 1    
    17    7    8 ar   
    18    7   10 1    
    19    8    9 ar   
    20    8   44 1    
    21    9   45 1    
    22   10   11 2    
    23   10   12 2    
    24   10   13 1    
    25   13   18 1    
    26   13   14 1    
    27   14   15 1    
    28   14   46 1    
    29   14   47 1    
    30   15   16 1    
    31   15   48 1    
    32   15   49 1    
    33   16   23 1    
    34   16   17 1    
    35   16   19 1    
    36   17   18 1    
    37   17   50 1    
    38   17   51 1    
    39   18   52 1    
    40   18   53 1    
    41   19   20 2    
    42   19   24 1    
    43   20   21 1    
    44   20   67 1    
    45   21   22 1    
    46   21   54 1    
    47   21   55 1    
    48   22   23 1    
    49   22   56 1    
    50   22   57 1    
    51   23   58 1    
    52   24   25 1    
    53   24   59 1    
    54   25   26 1    
    55   25   60 1    
    56   25   61 1    
    57   26   31 ar   
    58   26   27 ar   
    59   27   28 ar   
    60   27   62 1    
    61   28   29 ar   
    62   28   63 1    
    63   29   34 1    
    64   29   30 ar   
    65   30   31 ar   
    66   30   32 1    
    67   31   64 1    
    68   32   33 1    
    69   33   34 1    
    70   33   65 1    
    71   33   66 1    
@<TRIPOS>SUBSTRUCTURE
     1 UNK         1 GROUP             0       ****    0 ROOT    
