@<TRIPOS>MOLECULE
ZINC09484891_510
60   63    1
SMALL
USER_CHARGES


@<TRIPOS>ATOM
      1 C1          2.9069   53.4461   22.9804 C.3       1 UNK         0.0000 
      2 C2          4.2807   54.0136   23.3402 C.2       1 UNK         0.0000 
      3 C3          5.1100   54.4967   22.2108 C.ar      1 UNK         0.0000 
      4 C4          4.7324   54.4232   20.8618 C.ar      1 UNK         0.0000 
      5 C5          5.5606   54.9167   19.8482 C.ar      1 UNK         0.0000 
      6 C6          6.7944   55.4926   20.2118 C.ar      1 UNK         0.0000 
      7 C7          7.1995   55.5394   21.5411 C.ar      1 UNK         0.0000 
      8 C8          6.3610   55.0364   22.5292 C.ar      1 UNK         0.0000 
      9 O9          6.8046   55.1507   23.8322 O.3       1 UNK         0.0000 
     10 C10         6.1063   54.6411   24.8975 C.2       1 UNK         0.0000 
     11 O11         6.6820   54.7451   25.9814 O.2       1 UNK         0.0000 
     12 C12         4.7660   54.0559   24.6118 C.2       1 UNK         0.0000 
     13 C13         4.1420   53.2967   25.8012 C.3       1 UNK         0.0000 
     14 C14         3.2893   54.1075   26.7458 C.2       1 UNK         0.0000 
     15 O15         3.5045   55.2967   26.8428 O.2       1 UNK         0.0000 
     16 N16         2.3396   53.4651   27.4469 N.am      1 UNK         0.0000 
     17 C17         1.3706   54.0862   28.3701 C.3       1 UNK         0.0000 
     18 H18         0.8750   54.9038   27.8432 H         1 UNK         0.0000 
     19 C19         0.2828   53.0802   28.8141 C.3       1 UNK         0.0000 
     20 S20        -0.5022   52.2251   27.4132 S.3       1 UNK         0.0000 
     21 C21        -1.7804   51.3042   28.3047 C.3       1 UNK         0.0000 
     22 C22         2.0500   54.7143   29.6322 C.2       1 UNK         0.0000 
     23 O23         1.4621   55.7240   30.0800 O.co2     1 UNK         0.0000 
     24 O24         7.7059   55.9834   19.2932 O.3       1 UNK         0.0000 
     25 C25         7.1768   56.3752   18.0167 C.3       1 UNK         0.0000 
     26 C26         6.3910   57.7111   18.1898 C.3       1 UNK         0.0000 
     27 C27         6.0129   58.3488   16.8366 C.3       1 UNK         0.0000 
     28 C28         7.2510   58.5766   15.9493 C.3       1 UNK         0.0000 
     29 C29         8.0980   57.2985   15.7901 C.3       1 UNK         0.0000 
     30 C30         8.4349   56.6511   17.1527 C.3       1 UNK         0.0000 
     31 C31         6.3382   55.1843   17.4738 C.3       1 UNK         0.0000 
     32 C32         5.1355   54.8828   18.3847 C.3       1 UNK         0.0000 
     33 H33         2.3423   54.1768   22.3997 H         1 UNK         0.0000 
     34 H34         3.0118   52.5397   22.3834 H         1 UNK         0.0000 
     35 H35         2.2875   53.2116   23.8438 H         1 UNK         0.0000 
     36 H36         3.7795   54.0007   20.5776 H         1 UNK         0.0000 
     37 H37         8.1616   55.9564   21.8031 H         1 UNK         0.0000 
     38 H38         4.9223   52.8466   26.4172 H         1 UNK         0.0000 
     39 H39         3.5038   52.4968   25.4356 H         1 UNK         0.0000 
     40 H40         2.2281   52.4694   27.3277 H         1 UNK         0.0000 
     41 H41        -0.4930   53.5906   29.3881 H         1 UNK         0.0000 
     42 H42         0.7071   52.3188   29.4717 H         1 UNK         0.0000 
     43 H43        -2.1544   50.4958   27.6813 H         1 UNK         0.0000 
     44 H44        -2.6246   51.9384   28.5618 H         1 UNK         0.0000 
     45 H45        -1.3751   50.8958   29.2287 H         1 UNK         0.0000 
     46 H46         5.5045   57.5875   18.8100 H         1 UNK         0.0000 
     47 H47         7.0302   58.4331   18.7006 H         1 UNK         0.0000 
     48 H48         5.2973   57.7125   16.3147 H         1 UNK         0.0000 
     49 H49         5.5003   59.2966   17.0022 H         1 UNK         0.0000 
     50 H50         6.9429   58.9473   14.9706 H         1 UNK         0.0000 
     51 H51         7.8629   59.3655   16.3898 H         1 UNK         0.0000 
     52 H52         7.5636   56.5835   15.1637 H         1 UNK         0.0000 
     53 H53         9.0187   57.5320   15.2542 H         1 UNK         0.0000 
     54 H54         9.0760   57.3612   17.6783 H         1 UNK         0.0000 
     55 H55         9.0172   55.7397   17.0107 H         1 UNK         0.0000 
     56 H56         6.9706   54.2953   17.4393 H         1 UNK         0.0000 
     57 H57         6.0060   55.3588   16.4507 H         1 UNK         0.0000 
     58 H58         4.7011   53.9141   18.1322 H         1 UNK         0.0000 
     59 H59         4.3514   55.6240   18.2248 H         1 UNK         0.0000 
     60 O60         3.0457   54.0976   30.0817 O.co2     1 UNK         0.0000 
@<TRIPOS>BOND
     1    1    2 1    
     2    1   33 1    
     3    1   34 1    
     4    1   35 1    
     5    2   12 2    
     6    2    3 1    
     7    3    8 ar   
     8    3    4 ar   
     9    4    5 ar   
    10    4   36 1    
    11    5   32 1    
    12    5    6 ar   
    13    6    7 ar   
    14    6   24 1    
    15    7    8 ar   
    16    7   37 1    
    17    8    9 1    
    18    9   10 1    
    19   10   11 2    
    20   10   12 1    
    21   12   13 1    
    22   13   14 1    
    23   13   38 1    
    24   13   39 1    
    25   14   15 2    
    26   14   16 am   BACKBONE|DICT|INTERRES
    27   16   17 1    
    28   16   40 1    
    29   17   18 1    
    30   17   19 1    
    31   17   22 1    
    32   19   20 1    
    33   19   41 1    
    34   19   42 1    
    35   20   21 1    
    36   21   43 1    
    37   21   44 1    
    38   21   45 1    
    39   22   23 2    
    40   22   60 1    
    41   24   25 1    
    42   25   30 1    
    43   25   26 1    
    44   25   31 1    
    45   26   27 1    
    46   26   46 1    
    47   26   47 1    
    48   27   28 1    
    49   27   48 1    
    50   27   49 1    
    51   28   29 1    
    52   28   50 1    
    53   28   51 1    
    54   29   30 1    
    55   29   52 1    
    56   29   53 1    
    57   30   54 1    
    58   30   55 1    
    59   31   32 1    
    60   31   56 1    
    61   31   57 1    
    62   32   58 1    
    63   32   59 1    
@<TRIPOS>SUBSTRUCTURE
     1 UNK         1 GROUP             0       ****    0 ROOT    
