@<TRIPOS>MOLECULE
ZINC04965405_3909
57   59    1
SMALL
USER_CHARGES


@<TRIPOS>ATOM
      1 C1         -6.0316   49.1373   23.3593 C.3       1 UNK         0.0000 
      2 C2         -4.8533   49.5555   24.2200 C.ar      1 UNK         0.0000 
      3 C3         -4.4431   48.7477   25.2804 C.ar      1 UNK         0.0000 
      4 C4         -3.3544   49.1268   26.0613 C.ar      1 UNK         0.0000 
      5 C5         -2.6742   50.3164   25.7939 C.ar      1 UNK         0.0000 
      6 C6         -3.0806   51.1190   24.7165 C.ar      1 UNK         0.0000 
      7 C7         -4.1681   50.7370   23.9350 C.ar      1 UNK         0.0000 
      8 N8         -1.5765   50.6207   26.6201 N.am      1 UNK         0.0000 
      9 C9         -1.0747   51.8401   26.9008 C.2       1 UNK         0.0000 
     10 O10        -1.6112   52.8960   26.5704 O.2       1 UNK         0.0000 
     11 N11         0.0836   51.7625   27.5852 N.am      1 UNK         0.0000 
     12 C12         0.6419   52.6856   28.6032 C.3       1 UNK         0.0000 
     13 C13         0.0786   52.3558   30.0169 C.3       1 UNK         0.0000 
     14 C14         0.6983   53.1670   31.1843 C.3       1 UNK         0.0000 
     15 C15         0.5485   54.6840   30.9393 C.3       1 UNK         0.0000 
     16 C16         0.9862   55.1258   29.5335 C.3       1 UNK         0.0000 
     17 C17         0.3463   54.2205   28.4476 C.3       1 UNK         0.0000 
     18 C18         2.1968   52.5084   28.5462 C.2       1 UNK         0.0000 
     19 O19         2.7630   51.6965   29.2815 O.2       1 UNK         0.0000 
     20 N20         2.8323   53.2041   27.5743 N.am      1 UNK         0.0000 
     21 C21         4.1972   53.4995   27.4154 C.ar      1 UNK         0.0000 
     22 C22         5.1142   53.3375   28.4632 C.ar      1 UNK         0.0000 
     23 C23         6.4433   53.6967   28.2934 C.ar      1 UNK         0.0000 
     24 C24         6.8654   54.2335   27.0879 C.ar      1 UNK         0.0000 
     25 C25         5.9743   54.4280   26.0338 C.ar      1 UNK         0.0000 
     26 C26         4.6263   54.0469   26.1852 C.ar      1 UNK         0.0000 
     27 C27         3.6378   54.1854   25.0227 C.3       1 UNK         0.0000 
     28 C28         6.5050   55.0641   24.7581 C.3       1 UNK         0.0000 
     29 H29        -6.0992   48.0508   23.2910 H         1 UNK         0.0000 
     30 H30        -6.9649   49.5187   23.7754 H         1 UNK         0.0000 
     31 H31        -5.9257   49.5073   22.3385 H         1 UNK         0.0000 
     32 H32        -4.9641   47.8270   25.5025 H         1 UNK         0.0000 
     33 H33        -3.0481   48.4923   26.8809 H         1 UNK         0.0000 
     34 H34        -2.5587   52.0311   24.4687 H         1 UNK         0.0000 
     35 H35        -4.4751   51.3591   23.1086 H         1 UNK         0.0000 
     36 H36        -1.2533   49.8366   27.1784 H         1 UNK         0.0000 
     37 H37         0.4684   50.8305   27.6432 H         1 UNK         0.0000 
     38 H38        -1.0099   52.4000   30.0086 H         1 UNK         0.0000 
     39 H39         0.2278   51.2967   30.1851 H         1 UNK         0.0000 
     40 H40         0.2132   52.8969   32.1228 H         1 UNK         0.0000 
     41 H41         1.7485   52.9112   31.3171 H         1 UNK         0.0000 
     42 H42        -0.4955   54.9430   31.0780 H         1 UNK         0.0000 
     43 H43         1.0938   55.2609   31.6820 H         1 UNK         0.0000 
     44 H44         0.7047   56.1679   29.3730 H         1 UNK         0.0000 
     45 H45         2.0747   55.1095   29.4666 H         1 UNK         0.0000 
     46 H46         0.7053   54.5586   27.4826 H         1 UNK         0.0000 
     47 H47        -0.7196   54.3943   28.3440 H         1 UNK         0.0000 
     48 H48         2.2378   53.6123   26.8699 H         1 UNK         0.0000 
     49 H49         4.8157   52.9499   29.4240 H         1 UNK         0.0000 
     50 H50         7.1498   53.5841   29.1013 H         1 UNK         0.0000 
     51 H51         7.9041   54.4972   26.9889 H         1 UNK         0.0000 
     52 H52         2.8518   54.8963   25.2744 H         1 UNK         0.0000 
     53 H53         3.1533   53.2251   24.8324 H         1 UNK         0.0000 
     54 H54         4.0909   54.4981   24.0802 H         1 UNK         0.0000 
     55 H55         7.5249   55.4233   24.8790 H         1 UNK         0.0000 
     56 H56         6.4796   54.3547   23.9298 H         1 UNK         0.0000 
     57 H57         5.9025   55.9295   24.4838 H         1 UNK         0.0000 
@<TRIPOS>BOND
     1    1    2 1    
     2    1   29 1    
     3    1   30 1    
     4    1   31 1    
     5    2    7 ar   
     6    2    3 ar   
     7    3    4 ar   
     8    3   32 1    
     9    4    5 ar   
    10    4   33 1    
    11    5    6 ar   
    12    5    8 1    
    13    6    7 ar   
    14    6   34 1    
    15    7   35 1    
    16    8    9 am   BACKBONE|DICT|INTERRES
    17    8   36 1    
    18    9   10 2    
    19    9   11 am   BACKBONE|DICT|INTERRES
    20   11   12 1    
    21   11   37 1    
    22   12   17 1    
    23   12   13 1    
    24   12   18 1    
    25   13   14 1    
    26   13   38 1    
    27   13   39 1    
    28   14   15 1    
    29   14   40 1    
    30   14   41 1    
    31   15   16 1    
    32   15   42 1    
    33   15   43 1    
    34   16   17 1    
    35   16   44 1    
    36   16   45 1    
    37   17   46 1    
    38   17   47 1    
    39   18   19 2    
    40   18   20 am   BACKBONE|DICT|INTERRES
    41   20   21 1    
    42   20   48 1    
    43   21   26 ar   
    44   21   22 ar   
    45   22   23 ar   
    46   22   49 1    
    47   23   24 ar   
    48   23   50 1    
    49   24   25 ar   
    50   24   51 1    
    51   25   26 ar   
    52   25   28 1    
    53   26   27 1    
    54   27   52 1    
    55   27   53 1    
    56   27   54 1    
    57   28   55 1    
    58   28   56 1    
    59   28   57 1    
@<TRIPOS>SUBSTRUCTURE
     1 UNK         1 GROUP             0       ****    0 ROOT    
