@<TRIPOS>MOLECULE
ZINC49511368_997
54   57    1
SMALL
USER_CHARGES


@<TRIPOS>ATOM
      1 C1          3.8432   54.0748   29.3849 C.3       1 UNK         0.0000 
      2 C2          3.4223   53.8594   27.9422 C.ar      1 UNK         0.0000 
      3 C3          2.2901   53.0955   27.6547 C.ar      1 UNK         0.0000 
      4 C4          1.9036   52.8966   26.3314 C.ar      1 UNK         0.0000 
      5 C5          2.6477   53.4534   25.2872 C.ar      1 UNK         0.0000 
      6 C6          3.7638   54.2420   25.5834 C.ar      1 UNK         0.0000 
      7 C7          4.1587   54.4316   26.9048 C.ar      1 UNK         0.0000 
      8 S8          2.0577   53.2358   23.5976 S.o2      1 UNK         0.0000 
      9 O9          1.3900   54.4970   23.2818 O.2       1 UNK         0.0000 
     10 O10         1.3007   51.9788   23.5648 O.2       1 UNK         0.0000 
     11 N11         3.4459   53.0929   22.4917 N.pl3     1 UNK         0.0000 
     12 C12         3.7052   51.8754   21.6890 C.3       1 UNK         0.0000 
     13 C13         3.7606   52.2613   20.1999 C.3       1 UNK         0.0000 
     14 C14         4.7953   53.3673   19.9610 C.ar      1 UNK         0.0000 
     15 C15         5.5104   53.4494   18.7647 C.ar      1 UNK         0.0000 
     16 C16         6.4030   54.4938   18.5350 C.ar      1 UNK         0.0000 
     17 C17         6.5989   55.5122   19.4789 C.ar      1 UNK         0.0000 
     18 C18         5.9263   55.3821   20.6911 C.ar      1 UNK         0.0000 
     19 C19         5.0404   54.3362   20.9533 C.ar      1 UNK         0.0000 
     20 C20         4.3920   54.2102   22.3226 C.3       1 UNK         0.0000 
     21 N21         7.3727   56.6384   19.3222 N.2       1 UNK         0.0000 
     22 S22         8.0929   57.0577   17.9893 S.o2      1 UNK         0.0000 
     23 O23         8.8847   55.9881   17.3721 O.2       1 UNK         0.0000 
     24 O24         8.7131   58.3836   18.0820 O.2       1 UNK         0.0000 
     25 C25         6.6728   57.3114   16.9023 C.ar      1 UNK         0.0000 
     26 C26         6.4501   56.4619   15.8150 C.ar      1 UNK         0.0000 
     27 C27         5.3120   56.6220   15.0298 C.ar      1 UNK         0.0000 
     28 C28         4.3918   57.6360   15.3176 C.ar      1 UNK         0.0000 
     29 C29         4.6327   58.4961   16.3920 C.ar      1 UNK         0.0000 
     30 C30         5.7732   58.3429   17.1759 C.ar      1 UNK         0.0000 
     31 C31         3.1265   57.8137   14.4815 C.3       1 UNK         0.0000 
     32 F32         3.0087   56.8852   13.5287 F         1 UNK         0.0000 
     33 F33         3.1412   59.0105   13.8912 F         1 UNK         0.0000 
     34 F34         2.0525   57.7379   15.2687 F         1 UNK         0.0000 
     35 H35         3.9305   53.1135   29.8951 H         1 UNK         0.0000 
     36 H36         4.8044   54.5839   29.4635 H         1 UNK         0.0000 
     37 H37         3.0886   54.6635   29.9074 H         1 UNK         0.0000 
     38 H38         1.7065   52.6564   28.4496 H         1 UNK         0.0000 
     39 H39         1.0178   52.3118   26.1237 H         1 UNK         0.0000 
     40 H40         4.3311   54.7335   24.8137 H         1 UNK         0.0000 
     41 H41         5.0284   55.0369   27.1185 H         1 UNK         0.0000 
     42 H42         4.6594   51.4630   22.0204 H         1 UNK         0.0000 
     43 H43         2.9380   51.1253   21.8807 H         1 UNK         0.0000 
     44 H44         2.7975   52.6930   19.9226 H         1 UNK         0.0000 
     45 H45         3.9045   51.3870   19.5658 H         1 UNK         0.0000 
     46 H46         5.3620   52.7010   17.9978 H         1 UNK         0.0000 
     47 H47         6.9243   54.5028   17.5955 H         1 UNK         0.0000 
     48 H48         6.0858   56.1249   21.4576 H         1 UNK         0.0000 
     49 H49         5.2219   54.0315   23.0055 H         1 UNK         0.0000 
     50 H50         3.9005   55.1348   22.6226 H         1 UNK         0.0000 
     51 H51         7.1452   55.6666   15.5864 H         1 UNK         0.0000 
     52 H52         5.1482   55.9466   14.2034 H         1 UNK         0.0000 
     53 H53         3.9390   59.2955   16.6199 H         1 UNK         0.0000 
     54 H54         5.9482   59.0143   18.0056 H         1 UNK         0.0000 
@<TRIPOS>BOND
     1    1    2 1    
     2    1   35 1    
     3    1   36 1    
     4    1   37 1    
     5    2    7 ar   
     6    2    3 ar   
     7    3    4 ar   
     8    3   38 1    
     9    4    5 ar   
    10    4   39 1    
    11    5    6 ar   
    12    5    8 1    
    13    6    7 ar   
    14    6   40 1    
    15    7   41 1    
    16    8    9 2    
    17    8   10 2    
    18    8   11 1    
    19   11   20 1    
    20   11   12 1    
    21   12   13 1    
    22   12   42 1    
    23   12   43 1    
    24   13   14 1    
    25   13   44 1    
    26   13   45 1    
    27   14   19 ar   
    28   14   15 ar   
    29   15   16 ar   
    30   15   46 1    
    31   16   17 ar   
    32   16   47 1    
    33   17   18 ar   
    34   17   21 1    
    35   18   19 ar   
    36   18   48 1    
    37   19   20 1    
    38   20   49 1    
    39   20   50 1    
    40   21   22 1    
    41   22   23 2    
    42   22   24 2    
    43   22   25 1    
    44   25   30 ar   
    45   25   26 ar   
    46   26   27 ar   
    47   26   51 1    
    48   27   28 ar   
    49   27   52 1    
    50   28   29 ar   
    51   28   31 1    
    52   29   30 ar   
    53   29   53 1    
    54   30   54 1    
    55   31   32 1    
    56   31   33 1    
    57   31   34 1    
@<TRIPOS>SUBSTRUCTURE
     1 UNK         1 GROUP             0       ****    0 ROOT    
