@<TRIPOS>MOLECULE
ZINC11388669_2851
56   59    1
SMALL
USER_CHARGES


@<TRIPOS>ATOM
      1 C1          0.9220   49.1720   20.0162 C.3       1 UNK         0.0000 
      2 C2          1.6517   50.2893   20.7386 C.ar      1 UNK         0.0000 
      3 C3          2.9782   50.5785   20.4188 C.ar      1 UNK         0.0000 
      4 C4          3.6519   51.5873   21.0993 C.ar      1 UNK         0.0000 
      5 C5          2.9908   52.3385   22.0812 C.ar      1 UNK         0.0000 
      6 C6          1.6659   52.0398   22.3996 C.ar      1 UNK         0.0000 
      7 C7          0.9962   51.0170   21.7331 C.ar      1 UNK         0.0000 
      8 O8          3.6074   53.3318   22.8164 O.3       1 UNK         0.0000 
      9 C9          4.6583   54.0829   22.3222 C.ar      1 UNK         0.0000 
     10 C10         4.7044   54.4964   20.9808 C.ar      1 UNK         0.0000 
     11 C11         5.7634   55.2666   20.5045 C.ar      1 UNK         0.0000 
     12 C12         6.7703   55.6680   21.3748 C.ar      1 UNK         0.0000 
     13 C13         6.7149   55.2964   22.7158 C.ar      1 UNK         0.0000 
     14 C14         5.6726   54.4965   23.2026 C.ar      1 UNK         0.0000 
     15 N15         5.6406   54.0345   24.5335 N.am      1 UNK         0.0000 
     16 C16         6.1973   54.5770   25.6376 C.2       1 UNK         0.0000 
     17 O17         6.7041   55.6967   25.6825 O.2       1 UNK         0.0000 
     18 C18         6.1986   53.6975   26.8936 C.3       1 UNK         0.0000 
     19 S19         5.5042   54.4863   28.3824 S.3       1 UNK         0.0000 
     20 C20         4.0929   53.4527   28.5893 C.ar      1 UNK         0.0000 
     21 N21         3.8560   52.7586   29.6739 N.2       1 UNK         0.0000 
     22 N22         2.6249   52.1361   29.5067 N.2       1 UNK         0.0000 
     23 C23         2.1295   52.5251   28.3522 C.ar      1 UNK         0.0000 
     24 N24         3.0129   53.3926   27.7361 N.pl3     1 UNK         0.0000 
     25 N25         2.8502   54.0964   26.5551 N.3       1 UNK         0.0000 
     26 C26         0.7847   52.0958   27.8344 C.ar      1 UNK         0.0000 
     27 C27         0.4973   52.0637   26.4646 C.ar      1 UNK         0.0000 
     28 C28        -0.7617   51.6783   26.0142 C.ar      1 UNK         0.0000 
     29 C29        -1.7487   51.2956   26.9192 C.ar      1 UNK         0.0000 
     30 C30        -1.4623   51.3097   28.2903 C.ar      1 UNK         0.0000 
     31 C31        -0.2069   51.7058   28.7415 C.ar      1 UNK         0.0000 
     32 O32        -2.9715   50.9353   26.3915 O.3       1 UNK         0.0000 
     33 C33        -3.8274   50.0957   27.1627 C.3       1 UNK         0.0000 
     34 F34        -4.5180   50.8145   28.0498 F         1 UNK         0.0000 
     35 F35        -4.6846   49.4920   26.3409 F         1 UNK         0.0000 
     36 H36         1.5965   48.5767   19.3987 H         1 UNK         0.0000 
     37 H37         0.1326   49.5816   19.3847 H         1 UNK         0.0000 
     38 H38         0.4545   48.5001   20.7369 H         1 UNK         0.0000 
     39 H39         3.4954   50.0254   19.6462 H         1 UNK         0.0000 
     40 H40         4.6853   51.7800   20.8520 H         1 UNK         0.0000 
     41 H41         1.1590   52.6030   23.1688 H         1 UNK         0.0000 
     42 H42        -0.0285   50.7908   21.9894 H         1 UNK         0.0000 
     43 H43         3.9111   54.2209   20.3004 H         1 UNK         0.0000 
     44 H44         5.7929   55.5611   19.4655 H         1 UNK         0.0000 
     45 H45         7.5976   56.2599   21.0134 H         1 UNK         0.0000 
     46 H46         7.5043   55.6251   23.3692 H         1 UNK         0.0000 
     47 H47         5.1713   53.1480   24.6429 H         1 UNK         0.0000 
     48 H48         5.6984   52.7475   26.7145 H         1 UNK         0.0000 
     49 H49         7.2371   53.4508   27.1131 H         1 UNK         0.0000 
     50 H50         2.8403   55.0940   26.7086 H         1 UNK         0.0000 
     51 H51         3.4863   53.8065   25.8290 H         1 UNK         0.0000 
     52 H52         1.2445   52.3231   25.7322 H         1 UNK         0.0000 
     53 H53        -0.9721   51.6600   24.9552 H         1 UNK         0.0000 
     54 H54        -2.1970   51.0069   29.0212 H         1 UNK         0.0000 
     55 H55        -0.0130   51.7066   29.8047 H         1 UNK         0.0000 
     56 H56        -3.2959   49.2971   27.6804 H         1 UNK         0.0000 
@<TRIPOS>BOND
     1    1    2 1    
     2    1   36 1    
     3    1   37 1    
     4    1   38 1    
     5    2    7 ar   
     6    2    3 ar   
     7    3    4 ar   
     8    3   39 1    
     9    4    5 ar   
    10    4   40 1    
    11    5    6 ar   
    12    5    8 1    
    13    6    7 ar   
    14    6   41 1    
    15    7   42 1    
    16    8    9 1    
    17    9   14 ar   
    18    9   10 ar   
    19   10   11 ar   
    20   10   43 1    
    21   11   12 ar   
    22   11   44 1    
    23   12   13 ar   
    24   12   45 1    
    25   13   14 ar   
    26   13   46 1    
    27   14   15 1    
    28   15   16 am   BACKBONE|DICT|INTERRES
    29   15   47 1    
    30   16   17 2    
    31   16   18 1    
    32   18   19 1    
    33   18   48 1    
    34   18   49 1    
    35   19   20 1    
    36   20   24 ar   
    37   20   21 ar   
    38   21   22 ar   
    39   22   23 ar   
    40   23   24 ar   
    41   23   26 1    
    42   24   25 1    
    43   25   50 1    
    44   25   51 1    
    45   26   31 ar   
    46   26   27 ar   
    47   27   28 ar   
    48   27   52 1    
    49   28   29 ar   
    50   28   53 1    
    51   29   30 ar   
    52   29   32 1    
    53   30   31 ar   
    54   30   54 1    
    55   31   55 1    
    56   32   33 1    
    57   33   34 1    
    58   33   35 1    
    59   33   56 1    
@<TRIPOS>SUBSTRUCTURE
     1 UNK         1 GROUP             0       ****    0 ROOT    
