@<TRIPOS>MOLECULE
ZINC45772890_5615
67   70    1
SMALL
USER_CHARGES


@<TRIPOS>ATOM
      1 C1          3.6539   52.9139   18.8664 C.3       1 UNK         0.0000 
      2 C2          4.7160   53.8895   18.3695 C.ar      1 UNK         0.0000 
      3 C3          4.7751   54.1696   17.0010 C.ar      1 UNK         0.0000 
      4 C4          5.7419   55.0333   16.4951 C.ar      1 UNK         0.0000 
      5 C5          6.6861   55.6013   17.3483 C.ar      1 UNK         0.0000 
      6 C6          6.6356   55.3306   18.7171 C.ar      1 UNK         0.0000 
      7 C7          5.6339   54.4989   19.2474 C.ar      1 UNK         0.0000 
      8 N8          5.5042   54.2308   20.6278 N.am      1 UNK         0.0000 
      9 C9          6.0155   54.8984   21.6829 C.2       1 UNK         0.0000 
     10 O10         6.7041   55.9165   21.6059 O.2       1 UNK         0.0000 
     11 C11         5.6519   54.3212   23.0593 C.3       1 UNK         0.0000 
     12 C12         6.6719   54.6283   24.1855 C.3       1 UNK         0.0000 
     13 C13         6.1416   54.4139   25.5889 C.2       1 UNK         0.0000 
     14 N14         4.9149   54.1895   25.9768 N.2       1 UNK         0.0000 
     15 C15         5.0609   53.9815   27.2728 C.2       1 UNK         0.0000 
     16 N16         6.2920   54.0943   27.7350 N.2       1 UNK         0.0000 
     17 O17         7.0396   54.4011   26.6012 O.3       1 UNK         0.0000 
     18 C18         3.9005   53.6315   28.1606 C.ar      1 UNK         0.0000 
     19 C19         2.5944   53.9871   27.8026 C.ar      1 UNK         0.0000 
     20 C20         1.5242   53.6852   28.6404 C.ar      1 UNK         0.0000 
     21 C21         1.7417   53.0106   29.8448 C.ar      1 UNK         0.0000 
     22 C22         3.0410   52.6346   30.1977 C.ar      1 UNK         0.0000 
     23 C23         4.1091   52.9405   29.3588 C.ar      1 UNK         0.0000 
     24 C24         0.5706   52.6839   30.7745 C.3       1 UNK         0.0000 
     25 C25        -0.0341   53.9528   31.4048 C.3       1 UNK         0.0000 
     26 C26        -0.5077   51.8334   30.0727 C.3       1 UNK         0.0000 
     27 S27         7.9644   56.6669   16.6838 S.o2      1 UNK         0.0000 
     28 O28         7.3596   57.3881   15.5580 O.2       1 UNK         0.0000 
     29 O29         8.5514   57.3837   17.8228 O.2       1 UNK         0.0000 
     30 N30         9.2051   55.5733   16.0292 N.pl3     1 UNK         0.0000 
     31 C31         9.0162   54.9687   14.6848 C.3       1 UNK         0.0000 
     32 C32         8.4929   53.5190   14.7724 C.3       1 UNK         0.0000 
     33 C33         9.3354   52.6575   15.7347 C.3       1 UNK         0.0000 
     34 C34         9.5425   53.3381   17.1045 C.3       1 UNK         0.0000 
     35 C35        10.0482   54.7897   16.9673 C.3       1 UNK         0.0000 
     36 H36         3.0835   52.4678   18.0507 H         1 UNK         0.0000 
     37 H37         4.1277   52.0970   19.4130 H         1 UNK         0.0000 
     38 H38         2.9602   53.4109   19.5449 H         1 UNK         0.0000 
     39 H39         4.0690   53.7139   16.3217 H         1 UNK         0.0000 
     40 H40         5.7675   55.2446   15.4359 H         1 UNK         0.0000 
     41 H41         7.3879   55.7729   19.3506 H         1 UNK         0.0000 
     42 H42         4.8724   53.4747   20.8399 H         1 UNK         0.0000 
     43 H43         5.4050   53.2593   23.0282 H         1 UNK         0.0000 
     44 H44         4.7191   54.8313   23.3032 H         1 UNK         0.0000 
     45 H45         7.1044   55.6257   24.0882 H         1 UNK         0.0000 
     46 H46         7.5048   53.9403   24.0507 H         1 UNK         0.0000 
     47 H47         2.4034   54.5017   26.8731 H         1 UNK         0.0000 
     48 H48         0.5252   53.9777   28.3509 H         1 UNK         0.0000 
     49 H49         3.2285   52.1130   31.1254 H         1 UNK         0.0000 
     50 H50         5.1044   52.6338   29.6454 H         1 UNK         0.0000 
     51 H51         0.9533   52.0797   31.5995 H         1 UNK         0.0000 
     52 H52         0.7078   54.5570   31.9209 H         1 UNK         0.0000 
     53 H53        -0.7853   53.6966   32.1518 H         1 UNK         0.0000 
     54 H54        -0.4947   54.5904   30.6504 H         1 UNK         0.0000 
     55 H55        -0.0734   50.9838   29.5456 H         1 UNK         0.0000 
     56 H56        -1.2234   51.4320   30.7925 H         1 UNK         0.0000 
     57 H57        -1.0685   52.4128   29.3398 H         1 UNK         0.0000 
     58 H58         8.3332   55.5883   14.1033 H         1 UNK         0.0000 
     59 H59         9.9772   54.9946   14.1702 H         1 UNK         0.0000 
     60 H60         7.4543   53.5151   15.0994 H         1 UNK         0.0000 
     61 H61         8.4877   53.0687   13.7790 H         1 UNK         0.0000 
     62 H62        10.3090   52.4654   15.2799 H         1 UNK         0.0000 
     63 H63         8.8676   51.6800   15.8691 H         1 UNK         0.0000 
     64 H64        10.2579   52.7570   17.6822 H         1 UNK         0.0000 
     65 H65         8.6106   53.3252   17.6717 H         1 UNK         0.0000 
     66 H66        11.0708   54.8011   16.5892 H         1 UNK         0.0000 
     67 H67        10.0643   55.2873   17.9379 H         1 UNK         0.0000 
@<TRIPOS>BOND
     1    1    2 1    
     2    1   36 1    
     3    1   37 1    
     4    1   38 1    
     5    2    7 ar   
     6    2    3 ar   
     7    3    4 ar   
     8    3   39 1    
     9    4    5 ar   
    10    4   40 1    
    11    5    6 ar   
    12    5   27 1    
    13    6    7 ar   
    14    6   41 1    
    15    7    8 1    
    16    8    9 am   BACKBONE|DICT|INTERRES
    17    8   42 1    
    18    9   10 2    
    19    9   11 1    
    20   11   12 1    
    21   11   43 1    
    22   11   44 1    
    23   12   13 1    
    24   12   45 1    
    25   12   46 1    
    26   13   17 1    
    27   13   14 2    
    28   14   15 1    
    29   15   16 2    
    30   15   18 1    
    31   16   17 1    
    32   18   23 ar   
    33   18   19 ar   
    34   19   20 ar   
    35   19   47 1    
    36   20   21 ar   
    37   20   48 1    
    38   21   22 ar   
    39   21   24 1    
    40   22   23 ar   
    41   22   49 1    
    42   23   50 1    
    43   24   25 1    
    44   24   26 1    
    45   24   51 1    
    46   25   52 1    
    47   25   53 1    
    48   25   54 1    
    49   26   55 1    
    50   26   56 1    
    51   26   57 1    
    52   27   28 2    
    53   27   29 2    
    54   27   30 1    
    55   30   35 1    
    56   30   31 1    
    57   31   32 1    
    58   31   58 1    
    59   31   59 1    
    60   32   33 1    
    61   32   60 1    
    62   32   61 1    
    63   33   34 1    
    64   33   62 1    
    65   33   63 1    
    66   34   35 1    
    67   34   64 1    
    68   34   65 1    
    69   35   66 1    
    70   35   67 1    
@<TRIPOS>SUBSTRUCTURE
     1 UNK         1 GROUP             0       ****    0 ROOT    
