ZINC66890907_1358
                    3D
 Schrodinger Suite 2024-2.
 58 60  0  0  1  0            999 V2000
    6.5412   54.6459   27.3474 C   0  0  0  0  0  0
    5.8384   54.4966   26.0115 C   0  0  0  0  0  0
    6.5804   54.4131   24.8330 C   0  0  0  0  0  0
    5.9388   54.2094   23.6133 C   0  0  0  0  0  0
    4.5426   54.0951   23.5612 C   0  0  0  0  0  0
    3.7866   54.2083   24.7413 C   0  0  0  0  0  0
    4.4459   54.4023   25.9602 C   0  0  0  0  0  0
    2.2686   54.0869   24.7328 C   0  0  0  0  0  0
    3.8834   53.9039   22.3358 N   0  0  0  0  0  0
    4.1987   53.0096   21.3765 C   0  0  0  0  0  0
    5.1056   52.1847   21.4697 O   0  0  0  0  0  0
    3.3173   53.0762   20.1096 C   0  0  1  0  0  0
    2.3069   53.2967   20.4492 H   0  0  0  0  0  0
    3.9044   54.1688   19.1994 C   0  0  0  0  0  0
    3.1000   51.6913   19.4234 N   0  3  1  0  0  0
    2.6210   50.5913   20.4062 C   0  0  0  0  0  0
    2.5100   49.2708   19.6390 C   0  0  0  0  0  0
    1.5663   49.3420   18.4243 C   0  0  1  0  0  0
    1.8016   50.5936   17.5504 C   0  0  0  0  0  0
    2.0091   51.8891   18.3342 C   0  0  0  0  0  0
    1.5045   48.1042   17.6535 N   0  0  0  0  0  0
    0.9236   46.9540   18.0397 C   0  0  0  0  0  0
    0.3708   46.7966   19.1305 O   0  0  0  0  0  0
    0.9869   45.8892   17.0660 C   0  0  0  0  0  0
    0.2399   44.7000   17.0965 C   0  0  0  0  0  0
    0.6392   43.9340   16.0181 C   0  0  0  0  0  0
    1.6261   44.5706   15.3414 O   0  0  0  0  0  0
    1.8581   45.7501   15.9786 C   0  0  0  0  0  0
    2.9525   46.6062   15.3916 C   0  0  0  0  0  0
    6.7035   55.6967   27.5812 H   0  0  0  0  0  0
    7.5044   54.1360   27.3409 H   0  0  0  0  0  0
    5.9589   54.1949   28.1514 H   0  0  0  0  0  0
    7.6554   54.4971   24.8545 H   0  0  0  0  0  0
    6.5309   54.1433   22.7117 H   0  0  0  0  0  0
    3.8770   54.4652   26.8754 H   0  0  0  0  0  0
    1.9751   53.1459   24.2679 H   0  0  0  0  0  0
    1.8457   54.0962   25.7375 H   0  0  0  0  0  0
    1.8238   54.8948   24.1542 H   0  0  0  0  0  0
    3.0354   54.4374   22.2131 H   0  0  0  0  0  0
    4.1847   55.0664   19.7539 H   0  0  0  0  0  0
    4.7932   53.7960   18.6833 H   0  0  0  0  0  0
    3.1746   54.4863   18.4546 H   0  0  0  0  0  0
    3.3628   50.4630   21.1931 H   0  0  0  0  0  0
    1.6741   50.9105   20.8470 H   0  0  0  0  0  0
    3.5043   49.0037   19.2800 H   0  0  0  0  0  0
    2.1973   48.4794   20.3213 H   0  0  0  0  0  0
    0.5716   49.4910   18.8564 H   0  0  0  0  0  0
    0.9728   50.7252   16.8532 H   0  0  0  0  0  0
    2.7018   50.4968   16.9504 H   0  0  0  0  0  0
    1.0939   52.2326   18.8202 H   0  0  0  0  0  0
    2.3636   52.6482   17.6372 H   0  0  0  0  0  0
    1.9278   48.1460   16.7369 H   0  0  0  0  0  0
   -0.5180   44.4403   17.8207 H   0  0  0  0  0  0
    0.3437   42.9668   15.6358 H   0  0  0  0  0  0
    3.6668   46.8962   16.1588 H   0  0  0  0  0  0
    3.5039   46.0956   14.6085 H   0  0  0  0  0  0
    2.5579   47.5220   14.9523 H   0  0  0  0  0  0
    3.9778   51.3814   19.0033 H   0  0  0  0  0  0
  1  2  1  0  0  0
  1 30  1  0  0  0
  1 31  1  0  0  0
  1 32  1  0  0  0
  2  7  2  0  0  0
  2  3  1  0  0  0
  3  4  2  0  0  0
  3 33  1  0  0  0
  4  5  1  0  0  0
  4 34  1  0  0  0
  5  6  2  0  0  0
  5  9  1  0  0  0
  6  7  1  0  0  0
  6  8  1  0  0  0
  7 35  1  0  0  0
  8 36  1  0  0  0
  8 37  1  0  0  0
  8 38  1  0  0  0
  9 10  1  0  0  0
  9 39  1  0  0  0
 10 11  2  0  0  0
 10 12  1  0  0  0
 12 13  1  0  0  0
 12 14  1  0  0  0
 12 15  1  0  0  0
 14 40  1  0  0  0
 14 41  1  0  0  0
 14 42  1  0  0  0
 15 20  1  0  0  0
 15 16  1  0  0  0
 15 58  1  0  0  0
 16 17  1  0  0  0
 16 43  1  0  0  0
 16 44  1  0  0  0
 17 18  1  0  0  0
 17 45  1  0  0  0
 17 46  1  0  0  0
 18 19  1  0  0  0
 18 21  1  0  0  0
 18 47  1  0  0  0
 19 20  1  0  0  0
 19 48  1  0  0  0
 19 49  1  0  0  0
 20 50  1  0  0  0
 20 51  1  0  0  0
 21 22  1  0  0  0
 21 52  1  0  0  0
 22 23  2  0  0  0
 22 24  1  0  0  0
 24 28  2  0  0  0
 24 25  1  0  0  0
 25 26  2  0  0  0
 25 53  1  0  0  0
 26 27  1  0  0  0
 26 54  1  0  0  0
 27 28  1  0  0  0
 28 29  1  0  0  0
 29 55  1  0  0  0
 29 56  1  0  0  0
 29 57  1  0  0  0
M  CHG  1  15   1
M  END
> <i_i_glide_confnum>
105

> <i_i_glide_lignum>
1359

> <i_i_glide_posenum>
286

> <i_i_glide_rotatable_bonds>
7

> <i_m_Source_File_Index>
4820

> <b_m_subgroup_collapsed>
0

> <r_i_docking_score>
-5.2477

> <r_i_glide_ecoul>
-6.27753

> <r_i_glide_eff_state_penalty>
0

> <r_i_glide_einternal>
13.3675

> <r_i_glide_emodel>
-49.6814

> <r_i_glide_energy>
-41.0471

> <r_i_glide_erotb>
0.920641

> <r_i_glide_esite>
-0.174075

> <r_i_glide_evdw>
-34.7695

> <r_i_glide_gscore>
-5.2477

> <r_i_glide_hbond>
-0.2

> <r_i_glide_ligand_efficiency>
-0.187418

> <r_i_glide_ligand_efficiency_ln>
-1.21132

> <r_i_glide_ligand_efficiency_sa>
-0.569111

> <r_i_glide_lipo>
-2.18366

> <r_i_glide_metal>
0

> <r_i_glide_rewards>
-0.930504

> <s_i_glide_gridfile>
wee1_glide-grid

> <s_m_Source_File>
wee1_decoys_glide_SP.sdf

> <s_m_Source_Path>
/Users/zhangxujun/Desktop

> <s_m_entry_id>
5095

> <s_m_entry_name>
wee1_decoys_glide_SP.4820

> <s_m_subgroup_title>
wee1_decoys_glide_SP

> <s_m_subgroupid>
wee1_decoys_glide_SP


$$$$
