@<TRIPOS>MOLECULE
ZINC12923115_109
60   63    1
SMALL
USER_CHARGES


@<TRIPOS>ATOM
      1 C1          2.5345   58.6996   15.3403 C.3       1 UNK         0.0000 
      2 C2          3.3732   57.9323   16.3763 C.3       1 UNK         0.0000 
      3 C3          2.7621   56.5618   16.7174 C.3       1 UNK         0.0000 
      4 C4          3.5363   55.8837   17.8644 C.3       1 UNK         0.0000 
      5 C5          5.6630   57.0426   16.9859 C.3       1 UNK         0.0000 
      6 C6          4.8043   57.6790   15.8782 C.3       1 UNK         0.0000 
      7 C7          5.8880   55.0739   18.5974 C.3       1 UNK         0.0000 
      8 H8          5.9182   55.8984   19.3126 H         1 UNK         0.0000 
      9 C9          5.2480   53.8032   19.2453 C.3       1 UNK         0.0000 
     10 N10         4.7641   53.9593   20.6255 N.am      1 UNK         0.0000 
     11 C11         5.5039   54.4215   21.6592 C.2       1 UNK         0.0000 
     12 O12         6.6322   54.9005   21.5333 O.2       1 UNK         0.0000 
     13 C13         4.9077   54.3120   22.9668 C.ar      1 UNK         0.0000 
     14 C14         5.5285   54.5002   24.1968 C.ar      1 UNK         0.0000 
     15 C15         4.5611   54.2876   25.2257 C.ar      1 UNK         0.0000 
     16 C16         4.5952   54.3367   26.6273 C.ar      1 UNK         0.0000 
     17 C17         3.4326   54.0414   27.3553 C.ar      1 UNK         0.0000 
     18 C18         2.2623   53.6946   26.6841 C.ar      1 UNK         0.0000 
     19 C19         2.1852   53.6328   25.2934 C.ar      1 UNK         0.0000 
     20 C20         3.3438   53.9487   24.5750 C.ar      1 UNK         0.0000 
     21 N21         3.5879   54.0015   23.2197 N.pl3     1 UNK         0.0000 
     22 H22         2.9182   53.8278   22.4842 H         1 UNK         0.0000 
     23 O23         1.0311   53.2933   24.6402 O.3       1 UNK         0.0000 
     24 C24         0.9797   51.9285   24.2423 C.3       1 UNK         0.0000 
     25 O25         3.3546   54.0621   28.7325 O.3       1 UNK         0.0000 
     26 C26         4.5394   54.3032   29.4835 C.3       1 UNK         0.0000 
     27 C27         7.2829   54.7602   18.0776 C.2       1 UNK         0.0000 
     28 C28         8.5109   55.2952   18.4734 C.2       1 UNK         0.0000 
     29 C29         9.6183   54.7336   17.8311 C.2       1 UNK         0.0000 
     30 C30         9.2653   53.7479   16.9308 C.2       1 UNK         0.0000 
     31 S31         7.5532   53.5200   16.8737 S.3       1 UNK         0.0000 
     32 H32         2.4420   58.1539   14.4010 H         1 UNK         0.0000 
     33 H33         1.5319   58.8952   15.7184 H         1 UNK         0.0000 
     34 H34         2.9888   59.6672   15.1221 H         1 UNK         0.0000 
     35 H35         3.4198   58.5386   17.2815 H         1 UNK         0.0000 
     36 H36         2.7131   55.9226   15.8328 H         1 UNK         0.0000 
     37 H37         1.7181   56.6903   17.0150 H         1 UNK         0.0000 
     38 H38         3.0940   54.9047   18.0366 H         1 UNK         0.0000 
     39 H39         3.5170   56.4645   18.7858 H         1 UNK         0.0000 
     40 H40         5.7540   57.6960   17.8556 H         1 UNK         0.0000 
     41 H41         6.6550   56.8202   16.5896 H         1 UNK         0.0000 
     42 H42         5.2508   58.6298   15.5800 H         1 UNK         0.0000 
     43 H43         4.8058   57.0748   14.9669 H         1 UNK         0.0000 
     44 H44         5.9646   52.9780   19.2609 H         1 UNK         0.0000 
     45 H45         4.4540   53.3822   18.6302 H         1 UNK         0.0000 
     46 H46         3.8303   53.6314   20.8045 H         1 UNK         0.0000 
     47 H47         6.5692   54.7627   24.3246 H         1 UNK         0.0000 
     48 H48         5.5174   54.5955   27.1218 H         1 UNK         0.0000 
     49 H49         1.3792   53.4585   27.2597 H         1 UNK         0.0000 
     50 H50         0.0094   51.7158   23.7914 H         1 UNK         0.0000 
     51 H51         1.7476   51.6944   23.5001 H         1 UNK         0.0000 
     52 H52         1.1042   51.2545   25.0944 H         1 UNK         0.0000 
     53 H53         4.3058   54.2392   30.5458 H         1 UNK         0.0000 
     54 H54         4.9488   55.2961   29.2904 H         1 UNK         0.0000 
     55 H55         5.3063   53.5562   29.2657 H         1 UNK         0.0000 
     56 H56         8.6017   56.0639   19.2285 H         1 UNK         0.0000 
     57 H57        10.6414   55.0303   18.0292 H         1 UNK         0.0000 
     58 H58         9.9151   53.1447   16.3141 H         1 UNK         0.0000 
     59 N59         5.0269   55.6963   17.4530 N.4       1 UNK         0.0000 
     60 H60         5.0460   55.0672   16.6623 H         1 UNK         0.0000 
@<TRIPOS>BOND
     1    1    2 1    
     2    1   32 1    
     3    1   33 1    
     4    1   34 1    
     5    2    6 1    
     6    2    3 1    
     7    2   35 1    
     8    3    4 1    
     9    3   36 1    
    10    3   37 1    
    11    4   38 1    
    12    4   39 1    
    13    4   59 1    
    14    5    6 1    
    15    5   40 1    
    16    5   41 1    
    17    5   59 1    
    18    6   42 1    
    19    6   43 1    
    20    7    8 1    
    21    7    9 1    
    22    7   27 1    
    23    7   59 1    
    24    9   10 1    
    25    9   44 1    
    26    9   45 1    
    27   10   11 am   BACKBONE|DICT|INTERRES
    28   10   46 1    
    29   11   12 2    
    30   11   13 1    
    31   13   21 ar   
    32   13   14 ar   
    33   14   15 ar   
    34   14   47 1    
    35   15   20 ar   
    36   15   16 ar   
    37   16   17 ar   
    38   16   48 1    
    39   17   18 ar   
    40   17   25 1    
    41   18   19 ar   
    42   18   49 1    
    43   19   20 ar   
    44   19   23 1    
    45   20   21 ar   
    46   21   22 1    
    47   23   24 1    
    48   24   50 1    
    49   24   51 1    
    50   24   52 1    
    51   25   26 1    
    52   26   53 1    
    53   26   54 1    
    54   26   55 1    
    55   27   31 1    
    56   27   28 2    
    57   28   29 1    
    58   28   56 1    
    59   29   30 2    
    60   29   57 1    
    61   30   31 1    
    62   30   58 1    
    63   59   60 1    
@<TRIPOS>SUBSTRUCTURE
     1 UNK         1 GROUP             0       ****    0 ROOT    
