@<TRIPOS>MOLECULE
ZINC38653529_3176
72   76    1
SMALL
USER_CHARGES


@<TRIPOS>ATOM
      1 C1         -2.1164   51.6571   24.2509 C.3       1 UNK         0.0000 
      2 C2         -0.9592   50.6306   24.4174 C.3       1 UNK         0.0000 
      3 C3         -0.0495   50.6880   23.1339 C.3       1 UNK         0.0000 
      4 C4          0.9887   51.8331   23.0029 C.3       1 UNK         0.0000 
      5 H5          1.7361   51.5110   22.2757 H         1 UNK         0.0000 
      6 C6          1.7298   52.2381   24.3166 C.3       1 UNK         0.0000 
      7 H7          2.4109   51.4167   24.4808 H         1 UNK         0.0000 
      8 C8          0.7647   52.2420   25.5376 C.3       1 UNK         0.0000 
      9 H9          0.0676   53.0652   25.4038 H         1 UNK         0.0000 
     10 C10        -0.0772   50.9416   25.6563 C.3       1 UNK         0.0000 
     11 H11        -0.7585   51.0818   26.4996 H         1 UNK         0.0000 
     12 C12         0.6727   49.6118   25.8883 C.3       1 UNK         0.0000 
     13 C13        -0.3093   48.4968   25.5306 C.3       1 UNK         0.0000 
     14 C14        -1.5033   49.1895   24.8253 C.3       1 UNK         0.0000 
     15 C15        -2.0932   48.3228   23.6477 C.2       1 UNK         0.0000 
     16 O16        -3.2750   47.9638   23.6241 O.2       1 UNK         0.0000 
     17 C17        -1.1563   47.9063   22.4938 C.3       1 UNK         0.0000 
     18 O18        -1.6199   46.8112   21.6938 O.3       1 UNK         0.0000 
     19 C19        -2.4232   47.0103   20.6143 C.2       1 UNK         0.0000 
     20 O20        -2.9721   48.0787   20.3325 O.2       1 UNK         0.0000 
     21 C21        -2.5128   45.7622   19.6910 C.3       1 UNK         0.0000 
     22 H22        -1.5322   45.2890   19.7417 H         1 UNK         0.0000 
     23 C23        -2.7592   46.1670   18.2024 C.3       1 UNK         0.0000 
     24 C24        -4.2407   46.4196   17.9180 C.2       1 UNK         0.0000 
     25 C25        -5.2431   46.0695   18.7500 C.2       1 UNK         0.0000 
     26 C26        -5.0402   45.3246   20.0658 C.3       1 UNK         0.0000 
     27 C27        -3.6027   44.7252   20.1198 C.3       1 UNK         0.0000 
     28 H28        -3.5502   43.8937   19.4147 H         1 UNK         0.0000 
     29 C29        -3.2842   44.0247   21.4613 C.2       1 UNK         0.0000 
     30 O30        -4.2339   43.6967   22.2058 O.co2     1 UNK         0.0000 
     31 O31        -2.0954   43.6971   21.6817 O.co2     1 UNK         0.0000 
     32 O32        -2.5300   49.2796   25.8205 O.3       1 UNK         0.0000 
     33 C33         1.5380   52.4985   26.8530 C.3       1 UNK         0.0000 
     34 C34         2.3338   53.7992   26.8444 C.3       1 UNK         0.0000 
     35 C35         3.2662   53.8375   25.6287 C.2       1 UNK         0.0000 
     36 C36         4.5800   54.1424   25.7665 C.2       1 UNK         0.0000 
     37 C37         5.5449   54.2398   24.6724 C.2       1 UNK         0.0000 
     38 O38         6.7033   54.6168   24.8359 O.2       1 UNK         0.0000 
     39 C39         5.0006   53.8315   23.3785 C.2       1 UNK         0.0000 
     40 C40         3.7053   53.5093   23.1745 C.2       1 UNK         0.0000 
     41 C41         2.6002   53.5671   24.2433 C.3       1 UNK         0.0000 
     42 C42         1.7915   54.8237   23.8931 C.3       1 UNK         0.0000 
     43 O43         0.3045   52.8964   22.4040 O.3       1 UNK         0.0000 
     44 H44        -1.7553   52.6513   23.9912 H         1 UNK         0.0000 
     45 H45        -2.8064   51.3495   23.4647 H         1 UNK         0.0000 
     46 H46        -2.6995   51.7713   25.1647 H         1 UNK         0.0000 
     47 H47         0.5794   49.8011   23.1897 H         1 UNK         0.0000 
     48 H48        -0.6511   50.6254   22.2280 H         1 UNK         0.0000 
     49 H49         1.1044   49.5297   26.8815 H         1 UNK         0.0000 
     50 H50         1.5037   49.5037   25.1959 H         1 UNK         0.0000 
     51 H51        -0.6060   47.9977   26.4548 H         1 UNK         0.0000 
     52 H52         0.1921   47.7328   24.9362 H         1 UNK         0.0000 
     53 H53        -0.1646   47.6968   22.8812 H         1 UNK         0.0000 
     54 H54        -1.0324   48.7390   21.8097 H         1 UNK         0.0000 
     55 H55        -2.4089   45.3759   17.5375 H         1 UNK         0.0000 
     56 H56        -2.1800   47.0527   17.9347 H         1 UNK         0.0000 
     57 H57        -4.5063   46.9280   17.0032 H         1 UNK         0.0000 
     58 H58        -6.2508   46.3249   18.4554 H         1 UNK         0.0000 
     59 H59        -5.2137   46.0124   20.8953 H         1 UNK         0.0000 
     60 H60        -5.7839   44.5323   20.1679 H         1 UNK         0.0000 
     61 H61        -2.1893   48.9070   26.6495 H         1 UNK         0.0000 
     62 H62         0.8397   52.5065   27.6921 H         1 UNK         0.0000 
     63 H63         2.2217   51.6963   27.0917 H         1 UNK         0.0000 
     64 H64         2.9020   53.8779   27.7722 H         1 UNK         0.0000 
     65 H65         1.6402   54.6313   26.8817 H         1 UNK         0.0000 
     66 H66         4.9470   54.3347   26.7641 H         1 UNK         0.0000 
     67 H67         5.6745   53.7714   22.5370 H         1 UNK         0.0000 
     68 H68         3.4289   53.2292   22.1677 H         1 UNK         0.0000 
     69 H69         2.3971   55.6967   24.0821 H         1 UNK         0.0000 
     70 H70         1.5230   54.8968   22.8426 H         1 UNK         0.0000 
     71 H71         0.8846   54.8952   24.4814 H         1 UNK         0.0000 
     72 H72         0.9526   53.5468   22.1167 H         1 UNK         0.0000 
@<TRIPOS>BOND
     1    1    2 1    
     2    1   44 1    
     3    1   45 1    
     4    1   46 1    
     5    2   10 1    
     6    2   14 1    
     7    2    3 1    
     8    3    4 1    
     9    3   47 1    
    10    3   48 1    
    11    4    5 1    
    12    4    6 1    
    13    4   43 1    
    14    6    7 1    
    15    6   41 1    
    16    6    8 1    
    17    8    9 1    
    18    8   10 1    
    19    8   33 1    
    20   10   11 1    
    21   10   12 1    
    22   12   13 1    
    23   12   49 1    
    24   12   50 1    
    25   13   14 1    
    26   13   51 1    
    27   13   52 1    
    28   14   15 1    
    29   14   32 1    
    30   15   16 2    
    31   15   17 1    
    32   17   18 1    
    33   17   53 1    
    34   17   54 1    
    35   18   19 1    
    36   19   20 2    
    37   19   21 1    
    38   21   22 1    
    39   21   27 1    
    40   21   23 1    
    41   23   24 1    
    42   23   55 1    
    43   23   56 1    
    44   24   25 2    
    45   24   57 1    
    46   25   26 1    
    47   25   58 1    
    48   26   27 1    
    49   26   59 1    
    50   26   60 1    
    51   27   28 1    
    52   27   29 1    
    53   29   30 2    
    54   29   31 1    
    55   32   61 1    
    56   33   34 1    
    57   33   62 1    
    58   33   63 1    
    59   34   35 1    
    60   34   64 1    
    61   34   65 1    
    62   35   41 1    
    63   35   36 2    
    64   36   37 1    
    65   36   66 1    
    66   37   38 2    
    67   37   39 1    
    68   39   40 2    
    69   39   67 1    
    70   40   41 1    
    71   40   68 1    
    72   41   42 1    
    73   42   69 1    
    74   42   70 1    
    75   42   71 1    
    76   43   72 1    
@<TRIPOS>SUBSTRUCTURE
     1 UNK         1 GROUP             0       ****    0 ROOT    
