@<TRIPOS>MOLECULE
ZINC05734061_4927
54   58    1
SMALL
USER_CHARGES


@<TRIPOS>ATOM
      1 C1         -0.3709   51.7900   22.4254 C.ar      1 UNK         0.0000 
      2 C2          0.3537   51.4514   21.2850 C.ar      1 UNK         0.0000 
      3 C3          1.6926   51.8182   21.1843 C.ar      1 UNK         0.0000 
      4 C4          2.3190   52.5307   22.2195 C.ar      1 UNK         0.0000 
      5 C5          1.5750   52.8607   23.3662 C.ar      1 UNK         0.0000 
      6 C6          0.2353   52.4947   23.4652 C.ar      1 UNK         0.0000 
      7 C7          3.7790   52.8963   22.0815 C.2       1 UNK         0.0000 
      8 O8          4.5314   52.1939   21.4003 O.2       1 UNK         0.0000 
      9 N9          4.1780   54.0002   22.7563 N.am      1 UNK         0.0000 
     10 C10         5.4439   54.5448   22.8086 C.2       1 UNK         0.0000 
     11 C11         6.0460   54.7725   24.0151 C.2       1 UNK         0.0000 
     12 C12         5.5307   54.5462   25.3911 C.ar      1 UNK         0.0000 
     13 C13         6.4555   54.2033   26.4001 C.ar      1 UNK         0.0000 
     14 C14         6.0528   53.9809   27.7241 C.ar      1 UNK         0.0000 
     15 C15         4.6981   54.0888   28.0093 C.ar      1 UNK         0.0000 
     16 C16         3.7898   54.4214   27.0470 C.ar      1 UNK         0.0000 
     17 C17         4.1695   54.6765   25.7346 C.ar      1 UNK         0.0000 
     18 O18         2.5542   54.5006   27.6039 O.3       1 UNK         0.0000 
     19 C19         2.6893   53.9759   28.8967 C.3       1 UNK         0.0000 
     20 O20         4.0602   53.9483   29.2028 O.3       1 UNK         0.0000 
     21 C21         6.0996   54.9220   21.5368 C.2       1 UNK         0.0000 
     22 O22         5.5715   54.7049   20.4419 O.2       1 UNK         0.0000 
     23 N23         7.2896   55.5713   21.6188 N.am      1 UNK         0.0000 
     24 N24         8.1672   55.6952   20.5099 N.pl3     1 UNK         0.0000 
     25 C25         7.8486   56.3573   19.3074 C.ar      1 UNK         0.0000 
     26 C26         6.8965   57.3815   19.2637 C.ar      1 UNK         0.0000 
     27 C27         6.6351   58.0336   18.0616 C.ar      1 UNK         0.0000 
     28 N28         7.2458   57.7176   16.8959 N.ar      1 UNK         0.0000 
     29 C29         8.1606   56.7122   16.8982 C.ar      1 UNK         0.0000 
     30 C30         8.5069   55.9948   18.0874 C.ar      1 UNK         0.0000 
     31 C31         9.4829   54.9593   17.9906 C.ar      1 UNK         0.0000 
     32 C32        10.0730   54.6526   16.7670 C.ar      1 UNK         0.0000 
     33 C33         9.7276   55.3540   15.6166 C.ar      1 UNK         0.0000 
     34 C34         8.7853   56.3781   15.6725 C.ar      1 UNK         0.0000 
     35 Cl35       10.4724   54.9547   14.1111 Cl        1 UNK         0.0000 
     36 H36        -1.4094   51.5029   22.5070 H         1 UNK         0.0000 
     37 H37        -0.1184   50.9018   20.4833 H         1 UNK         0.0000 
     38 H38         2.2464   51.5435   20.2930 H         1 UNK         0.0000 
     39 H39         2.0161   53.3855   24.2012 H         1 UNK         0.0000 
     40 H40        -0.3332   52.7472   24.3502 H         1 UNK         0.0000 
     41 H41         3.5540   54.2714   23.4950 H         1 UNK         0.0000 
     42 H42         7.0380   55.2008   24.0339 H         1 UNK         0.0000 
     43 H43         7.5039   54.1041   26.1679 H         1 UNK         0.0000 
     44 H44         6.7765   53.7368   28.4887 H         1 UNK         0.0000 
     45 H45         3.4322   54.9980   25.0182 H         1 UNK         0.0000 
     46 H46         2.2958   52.9575   28.9105 H         1 UNK         0.0000 
     47 H47         2.1369   54.5834   29.6148 H         1 UNK         0.0000 
     48 H48         7.7641   55.7194   22.5001 H         1 UNK         0.0000 
     49 H49         8.6641   54.8256   20.3814 H         1 UNK         0.0000 
     50 H50         6.3500   57.6685   20.1477 H         1 UNK         0.0000 
     51 H51         5.9150   58.8386   18.0123 H         1 UNK         0.0000 
     52 H52         9.7747   54.4030   18.8708 H         1 UNK         0.0000 
     53 H53        10.8068   53.8628   16.7133 H         1 UNK         0.0000 
     54 H54         8.5221   56.9216   14.7763 H         1 UNK         0.0000 
@<TRIPOS>BOND
     1    1    6 ar   
     2    1    2 ar   
     3    1   36 1    
     4    2    3 ar   
     5    2   37 1    
     6    3    4 ar   
     7    3   38 1    
     8    4    5 ar   
     9    4    7 1    
    10    5    6 ar   
    11    5   39 1    
    12    6   40 1    
    13    7    8 2    
    14    7    9 am   BACKBONE|DICT|INTERRES
    15    9   10 1    
    16    9   41 1    
    17   10   11 2    
    18   10   21 1    
    19   11   12 1    
    20   11   42 1    
    21   12   17 ar   
    22   12   13 ar   
    23   13   14 ar   
    24   13   43 1    
    25   14   15 ar   
    26   14   44 1    
    27   15   20 1    
    28   15   16 ar   
    29   16   17 ar   
    30   16   18 1    
    31   17   45 1    
    32   18   19 1    
    33   19   20 1    
    34   19   46 1    
    35   19   47 1    
    36   21   22 2    
    37   21   23 am   BACKBONE|DICT|INTERRES
    38   23   24 1    
    39   23   48 1    
    40   24   25 1    
    41   24   49 1    
    42   25   30 ar   
    43   25   26 ar   
    44   26   27 ar   
    45   26   50 1    
    46   27   28 ar   
    47   27   51 1    
    48   28   29 ar   
    49   29   34 ar   
    50   29   30 ar   
    51   30   31 ar   
    52   31   32 ar   
    53   31   52 1    
    54   32   33 ar   
    55   32   53 1    
    56   33   34 ar   
    57   33   35 1    
    58   34   54 1    
@<TRIPOS>SUBSTRUCTURE
     1 UNK         1 GROUP             0       ****    0 ROOT    
