@<TRIPOS>MOLECULE
ZINC34942116_3734
64   67    1
SMALL
USER_CHARGES


@<TRIPOS>ATOM
      1 C1         -3.0498   49.9873   26.4363 C.3       1 UNK         0.0000 
      2 C2         -2.6856   51.1915   25.5406 C.3       1 UNK         0.0000 
      3 C3         -3.5957   52.3903   25.8656 C.3       1 UNK         0.0000 
      4 C4         -1.1759   51.5987   25.5782 C.3       1 UNK         0.0000 
      5 H5         -1.0353   52.5141   25.0014 H         1 UNK         0.0000 
      6 C6         -0.3095   50.4776   24.9188 C.2       1 UNK         0.0000 
      7 O7          0.3041   49.7063   25.6631 O.2       1 UNK         0.0000 
      8 N8         -0.2433   50.3812   23.5604 N.am      1 UNK         0.0000 
      9 C9         -0.8175   51.3525   22.6096 C.3       1 UNK         0.0000 
     10 C10         0.3383   52.2624   22.1058 C.3       1 UNK         0.0000 
     11 C11         1.6171   51.5133   21.5738 C.3       1 UNK         0.0000 
     12 C12         1.9416   50.3434   22.5653 C.3       1 UNK         0.0000 
     13 C13         0.7306   49.4631   22.9469 C.3       1 UNK         0.0000 
     14 C14         1.3038   50.9159   20.1736 C.2       1 UNK         0.0000 
     15 O15         0.2450   50.4237   19.7838 O.2       1 UNK         0.0000 
     16 N16         2.3975   51.1228   19.4473 N.am      1 UNK         0.0000 
     17 C17         3.3817   51.9305   20.1177 C.3       1 UNK         0.0000 
     18 N18         2.8015   52.3800   21.3808 N.pl3     1 UNK         0.0000 
     19 C19         3.5757   53.0794   22.3426 C.ar      1 UNK         0.0000 
     20 C20         4.8333   53.6062   21.9935 C.ar      1 UNK         0.0000 
     21 C21         5.6214   54.2846   22.9202 C.ar      1 UNK         0.0000 
     22 C22         5.1402   54.4970   24.2069 C.ar      1 UNK         0.0000 
     23 C23         3.8727   54.0528   24.5623 C.ar      1 UNK         0.0000 
     24 C24         3.1039   53.3486   23.6378 C.ar      1 UNK         0.0000 
     25 N25        -0.7272   51.9295   26.9465 N.am      1 UNK         0.0000 
     26 C26         0.4512   52.5199   27.2030 C.2       1 UNK         0.0000 
     27 O27         1.1844   52.9514   26.3106 O.2       1 UNK         0.0000 
     28 N28         0.7520   52.5990   28.5140 N.am      1 UNK         0.0000 
     29 C29         2.0136   53.0437   28.9273 C.ar      1 UNK         0.0000 
     30 C30         3.0038   52.0809   29.1203 C.ar      1 UNK         0.0000 
     31 C31         4.3341   52.4659   29.2778 C.ar      1 UNK         0.0000 
     32 C32         4.6782   53.8151   29.2652 C.ar      1 UNK         0.0000 
     33 C33         3.6760   54.7737   29.2096 C.ar      1 UNK         0.0000 
     34 C34         2.3536   54.4030   29.0176 C.ar      1 UNK         0.0000 
     35 Br35        1.1047   55.8139   28.8354 Br        1 UNK         0.0000 
     36 H36        -2.8410   50.1849   27.4880 H         1 UNK         0.0000 
     37 H37        -4.1089   49.7415   26.3551 H         1 UNK         0.0000 
     38 H38        -2.4920   49.0930   26.1567 H         1 UNK         0.0000 
     39 H39        -2.9437   50.8963   24.5225 H         1 UNK         0.0000 
     40 H40        -3.4296   52.7541   26.8788 H         1 UNK         0.0000 
     41 H41        -3.4132   53.2198   25.1819 H         1 UNK         0.0000 
     42 H42        -4.6490   52.1209   25.7793 H         1 UNK         0.0000 
     43 H43        -1.2214   50.7650   21.7848 H         1 UNK         0.0000 
     44 H44        -1.6863   51.8877   22.9906 H         1 UNK         0.0000 
     45 H45        -0.0451   52.8912   21.2995 H         1 UNK         0.0000 
     46 H46         0.5585   53.0495   22.8172 H         1 UNK         0.0000 
     47 H47         2.5021   50.6788   23.4348 H         1 UNK         0.0000 
     48 H48         2.6937   49.6981   22.1070 H         1 UNK         0.0000 
     49 H49         0.9685   48.6018   23.5747 H         1 UNK         0.0000 
     50 H50         0.2628   49.0262   22.0640 H         1 UNK         0.0000 
     51 H51         2.5313   50.7772   18.5068 H         1 UNK         0.0000 
     52 H52         4.2772   51.3314   20.2934 H         1 UNK         0.0000 
     53 H53         3.6596   52.7865   19.5008 H         1 UNK         0.0000 
     54 H54         5.2367   53.4719   21.0018 H         1 UNK         0.0000 
     55 H55         6.5981   54.6510   22.6387 H         1 UNK         0.0000 
     56 H56         5.7464   55.0246   24.9285 H         1 UNK         0.0000 
     57 H57         3.4962   54.2172   25.5622 H         1 UNK         0.0000 
     58 H58         2.1684   52.9584   23.9918 H         1 UNK         0.0000 
     59 H59        -1.2262   51.4620   27.6885 H         1 UNK         0.0000 
     60 H60         0.1580   52.1472   29.1931 H         1 UNK         0.0000 
     61 H61         2.7544   51.0330   29.0386 H         1 UNK         0.0000 
     62 H62         5.1047   51.7129   29.3412 H         1 UNK         0.0000 
     63 H63         5.7144   54.1208   29.2831 H         1 UNK         0.0000 
     64 H64         3.9048   55.8196   29.2787 H         1 UNK         0.0000 
@<TRIPOS>BOND
     1    1    2 1    
     2    1   36 1    
     3    1   37 1    
     4    1   38 1    
     5    2    3 1    
     6    2    4 1    
     7    2   39 1    
     8    3   40 1    
     9    3   41 1    
    10    3   42 1    
    11    4    5 1    
    12    4    6 1    
    13    4   25 1    
    14    6    7 2    
    15    6    8 am   BACKBONE|DICT|INTERRES
    16    8   13 1    
    17    8    9 1    
    18    9   10 1    
    19    9   43 1    
    20    9   44 1    
    21   10   11 1    
    22   10   45 1    
    23   10   46 1    
    24   11   18 1    
    25   11   12 1    
    26   11   14 1    
    27   12   13 1    
    28   12   47 1    
    29   12   48 1    
    30   13   49 1    
    31   13   50 1    
    32   14   15 2    
    33   14   16 am   BACKBONE|DICT|INTERRES
    34   16   17 1    
    35   16   51 1    
    36   17   18 1    
    37   17   52 1    
    38   17   53 1    
    39   18   19 1    
    40   19   24 ar   
    41   19   20 ar   
    42   20   21 ar   
    43   20   54 1    
    44   21   22 ar   
    45   21   55 1    
    46   22   23 ar   
    47   22   56 1    
    48   23   24 ar   
    49   23   57 1    
    50   24   58 1    
    51   25   26 am   BACKBONE|DICT|INTERRES
    52   25   59 1    
    53   26   27 2    
    54   26   28 am   BACKBONE|DICT|INTERRES
    55   28   29 1    
    56   28   60 1    
    57   29   34 ar   
    58   29   30 ar   
    59   30   31 ar   
    60   30   61 1    
    61   31   32 ar   
    62   31   62 1    
    63   32   33 ar   
    64   32   63 1    
    65   33   34 ar   
    66   33   64 1    
    67   34   35 1    
@<TRIPOS>SUBSTRUCTURE
     1 UNK         1 GROUP             0       ****    0 ROOT    
