@<TRIPOS>MOLECULE
ZINC02103053_4869
49   51    1
SMALL
USER_CHARGES


@<TRIPOS>ATOM
      1 C1          1.4715   54.4944   16.5123 C.3       1 UNK         0.0000 
      2 C2          2.8110   53.8148   16.1883 C.3       1 UNK         0.0000 
      3 C3          3.7098   53.5851   17.4229 C.3       1 UNK         0.0000 
      4 H4          3.8837   54.5731   17.8539 H         1 UNK         0.0000 
      5 C5          5.0886   53.0544   16.9805 C.3       1 UNK         0.0000 
      6 C6          3.0153   52.7050   18.5104 C.3       1 UNK         0.0000 
      7 H7          2.0414   53.1343   18.7512 H         1 UNK         0.0000 
      8 C8          3.7834   52.5550   19.8279 C.2       1 UNK         0.0000 
      9 O9          3.8513   51.5040   20.4793 O.2       1 UNK         0.0000 
     10 O10         4.3019   53.7537   20.2360 O.3       1 UNK         0.0000 
     11 C11         4.5909   53.9720   21.5650 C.ar      1 UNK         0.0000 
     12 C12         5.8330   54.4969   21.9261 C.ar      1 UNK         0.0000 
     13 C13         6.1432   54.7386   23.2679 C.ar      1 UNK         0.0000 
     14 C14         5.1922   54.4968   24.2707 C.ar      1 UNK         0.0000 
     15 C15         3.9405   53.9921   23.8861 C.ar      1 UNK         0.0000 
     16 C16         3.6384   53.7389   22.5581 C.ar      1 UNK         0.0000 
     17 O17         2.9409   53.7090   24.7856 O.3       1 UNK         0.0000 
     18 C18         3.1822   53.9583   26.0888 C.2       1 UNK         0.0000 
     19 C19         4.3244   54.4868   26.5921 C.2       1 UNK         0.0000 
     20 C20         5.4643   54.8079   25.7131 C.2       1 UNK         0.0000 
     21 O21         6.5408   55.2888   26.0812 O.2       1 UNK         0.0000 
     22 O22         4.5356   54.7550   27.9140 O.3       1 UNK         0.0000 
     23 C23         3.7066   54.1872   28.8554 C.ar      1 UNK         0.0000 
     24 C24         4.1412   53.0242   29.4840 C.ar      1 UNK         0.0000 
     25 C25         3.3444   52.4009   30.4359 C.ar      1 UNK         0.0000 
     26 C26         2.0713   52.8942   30.7116 C.ar      1 UNK         0.0000 
     27 C27         1.6204   54.0550   30.0816 C.ar      1 UNK         0.0000 
     28 C28         2.4515   54.7246   29.1827 C.ar      1 UNK         0.0000 
     29 Cl29        1.9044   56.2014   28.4829 Cl        1 UNK         0.0000 
     30 Cl30        1.0950   52.0974   31.8873 Cl        1 UNK         0.0000 
     31 H31         1.0470   54.9607   15.6205 H         1 UNK         0.0000 
     32 H32         1.5883   55.2749   17.2672 H         1 UNK         0.0000 
     33 H33         0.7389   53.7763   16.8841 H         1 UNK         0.0000 
     34 H34         2.6278   52.8706   15.6750 H         1 UNK         0.0000 
     35 H35         3.3426   54.4399   15.4683 H         1 UNK         0.0000 
     36 H36         5.0018   52.0967   16.4683 H         1 UNK         0.0000 
     37 H37         5.5748   53.7476   16.2929 H         1 UNK         0.0000 
     38 H38         5.7647   52.9143   17.8261 H         1 UNK         0.0000 
     39 H39         6.5562   54.7296   21.1595 H         1 UNK         0.0000 
     40 H40         7.1085   55.1540   23.5167 H         1 UNK         0.0000 
     41 H41         2.6590   53.3636   22.3033 H         1 UNK         0.0000 
     42 H42         2.3180   53.6936   26.6810 H         1 UNK         0.0000 
     43 H43         5.1050   52.6095   29.2342 H         1 UNK         0.0000 
     44 H44         3.7303   51.5437   30.9623 H         1 UNK         0.0000 
     45 H45         0.6443   54.4528   30.3208 H         1 UNK         0.0000 
     46 H46         2.2255   50.7993   18.8032 H         1 UNK         0.0000 
     47 H47         2.1577   51.2960   17.2198 H         1 UNK         0.0000 
     48 N48         2.7044   51.2967   18.0668 N.4       1 UNK         0.0000 
     49 H49         3.5925   50.8189   17.8858 H         1 UNK         0.0000 
@<TRIPOS>BOND
     1    1    2 1    
     2    1   31 1    
     3    1   32 1    
     4    1   33 1    
     5    2    3 1    
     6    2   34 1    
     7    2   35 1    
     8    3    4 1    
     9    3    5 1    
    10    3    6 1    
    11    5   36 1    
    12    5   37 1    
    13    5   38 1    
    14    6    7 1    
    15    6    8 1    
    16    6   48 1    
    17    8    9 2    
    18    8   10 1    
    19   10   11 1    
    20   11   16 ar   
    21   11   12 ar   
    22   12   13 ar   
    23   12   39 1    
    24   13   14 ar   
    25   13   40 1    
    26   14   20 1    
    27   14   15 ar   
    28   15   16 ar   
    29   15   17 1    
    30   16   41 1    
    31   17   18 1    
    32   18   19 2    
    33   18   42 1    
    34   19   20 1    
    35   19   22 1    
    36   20   21 2    
    37   22   23 1    
    38   23   28 ar   
    39   23   24 ar   
    40   24   25 ar   
    41   24   43 1    
    42   25   26 ar   
    43   25   44 1    
    44   26   27 ar   
    45   26   30 1    
    46   27   28 ar   
    47   27   45 1    
    48   28   29 1    
    49   46   48 1    
    50   47   48 1    
    51   48   49 1    
@<TRIPOS>SUBSTRUCTURE
     1 UNK         1 GROUP             0       ****    0 ROOT    
