@<TRIPOS>MOLECULE
ZINC21225245_3929
59   63    1
SMALL
USER_CHARGES


@<TRIPOS>ATOM
      1 C1          0.1372   49.6912   25.5120 C.3       1 UNK         0.0000 
      2 N2          0.3026   51.1465   25.5858 N.pl3     1 UNK         0.0000 
      3 C3          0.0935   51.7381   26.9087 C.3       1 UNK         0.0000 
      4 C4          1.1014   51.8232   24.6187 C.ar      1 UNK         0.0000 
      5 C5          1.5333   53.1443   24.8237 C.ar      1 UNK         0.0000 
      6 C6          2.3251   53.7990   23.8837 C.ar      1 UNK         0.0000 
      7 C7          2.7058   53.1538   22.7054 C.ar      1 UNK         0.0000 
      8 C8          2.2764   51.8405   22.4834 C.ar      1 UNK         0.0000 
      9 C9          1.4872   51.1886   23.4271 C.ar      1 UNK         0.0000 
     10 C10         3.5733   53.9105   21.6898 C.3       1 UNK         0.0000 
     11 H11         3.1043   54.8962   21.6527 H         1 UNK         0.0000 
     12 C12         3.5502   53.3199   20.2596 C.3       1 UNK         0.0000 
     13 C13         4.3793   54.2003   19.3294 C.2       1 UNK         0.0000 
     14 C14         5.4550   54.9188   19.7504 C.2       1 UNK         0.0000 
     15 C15         6.3198   55.7941   18.8288 C.3       1 UNK         0.0000 
     16 H16         6.6916   56.6169   19.4409 H         1 UNK         0.0000 
     17 N17         5.5948   56.5129   17.7794 N.pl3     1 UNK         0.0000 
     18 C18         5.1060   55.8051   16.6690 C.ar      1 UNK         0.0000 
     19 C19         5.4497   56.2182   15.3766 C.ar      1 UNK         0.0000 
     20 C20         5.0546   55.5004   14.2523 C.ar      1 UNK         0.0000 
     21 C21         4.2952   54.3481   14.4056 C.ar      1 UNK         0.0000 
     22 C22         3.9155   53.9392   15.6801 C.ar      1 UNK         0.0000 
     23 C23         4.2843   54.6580   16.8237 C.ar      1 UNK         0.0000 
     24 N24         3.8004   54.2491   18.0778 N.pl3     1 UNK         0.0000 
     25 C25         7.5485   55.0508   18.2553 C.ar      1 UNK         0.0000 
     26 C26         7.4055   53.7750   17.6815 C.ar      1 UNK         0.0000 
     27 C27         8.4977   53.1060   17.1334 C.ar      1 UNK         0.0000 
     28 C28         9.7572   53.6970   17.1572 C.ar      1 UNK         0.0000 
     29 C29         9.9213   54.9528   17.7353 C.ar      1 UNK         0.0000 
     30 C30         8.8311   55.6247   18.2916 C.ar      1 UNK         0.0000 
     31 O31         9.0557   56.8436   18.8740 O.3       1 UNK         0.0000 
     32 C32         5.8935   54.8895   21.1710 C.2       1 UNK         0.0000 
     33 O33         6.9559   55.3841   21.5488 O.2       1 UNK         0.0000 
     34 C34         5.0294   54.0942   22.1722 C.3       1 UNK         0.0000 
     35 H35         1.1023   49.1929   25.6078 H         1 UNK         0.0000 
     36 H36        -0.2952   49.3871   24.5590 H         1 UNK         0.0000 
     37 H37        -0.5077   49.3072   26.3044 H         1 UNK         0.0000 
     38 H38         1.0410   51.8093   27.4447 H         1 UNK         0.0000 
     39 H39        -0.3206   52.7433   26.8331 H         1 UNK         0.0000 
     40 H40        -0.5909   51.1452   27.5180 H         1 UNK         0.0000 
     41 H41         1.2733   53.6869   25.7181 H         1 UNK         0.0000 
     42 H42         2.6426   54.8140   24.0749 H         1 UNK         0.0000 
     43 H43         2.5487   51.3025   21.5887 H         1 UNK         0.0000 
     44 H44         1.1902   50.1745   23.2112 H         1 UNK         0.0000 
     45 H45         3.9692   52.3138   20.2055 H         1 UNK         0.0000 
     46 H46         2.4955   53.2890   19.9774 H         1 UNK         0.0000 
     47 H47         6.1111   57.3316   17.4905 H         1 UNK         0.0000 
     48 H48         6.0619   57.0984   15.2425 H         1 UNK         0.0000 
     49 H49         5.3481   55.8315   13.2667 H         1 UNK         0.0000 
     50 H50         3.9912   53.7781   13.5398 H         1 UNK         0.0000 
     51 H51         3.3070   53.0514   15.7789 H         1 UNK         0.0000 
     52 H52         2.9841   53.6622   17.9957 H         1 UNK         0.0000 
     53 H53         6.4448   53.2835   17.6564 H         1 UNK         0.0000 
     54 H54         8.3662   52.1254   16.6993 H         1 UNK         0.0000 
     55 H55        10.6065   53.1759   16.7402 H         1 UNK         0.0000 
     56 H56        10.9067   55.3944   17.7651 H         1 UNK         0.0000 
     57 H57         9.9929   56.9927   19.0190 H         1 UNK         0.0000 
     58 H58         5.0821   54.5992   23.1363 H         1 UNK         0.0000 
     59 H59         5.4855   53.1109   22.2878 H         1 UNK         0.0000 
@<TRIPOS>BOND
     1    1    2 1    
     2    1   35 1    
     3    1   36 1    
     4    1   37 1    
     5    2    3 1    
     6    2    4 1    
     7    3   38 1    
     8    3   39 1    
     9    3   40 1    
    10    4    9 ar   
    11    4    5 ar   
    12    5    6 ar   
    13    5   41 1    
    14    6    7 ar   
    15    6   42 1    
    16    7    8 ar   
    17    7   10 1    
    18    8    9 ar   
    19    8   43 1    
    20    9   44 1    
    21   10   11 1    
    22   10   34 1    
    23   10   12 1    
    24   12   13 1    
    25   12   45 1    
    26   12   46 1    
    27   13   24 1    
    28   13   14 2    
    29   14   15 1    
    30   14   32 1    
    31   15   16 1    
    32   15   17 1    
    33   15   25 1    
    34   17   18 1    
    35   17   47 1    
    36   18   23 ar   
    37   18   19 ar   
    38   19   20 ar   
    39   19   48 1    
    40   20   21 ar   
    41   20   49 1    
    42   21   22 ar   
    43   21   50 1    
    44   22   23 ar   
    45   22   51 1    
    46   23   24 1    
    47   24   52 1    
    48   25   30 ar   
    49   25   26 ar   
    50   26   27 ar   
    51   26   53 1    
    52   27   28 ar   
    53   27   54 1    
    54   28   29 ar   
    55   28   55 1    
    56   29   30 ar   
    57   29   56 1    
    58   30   31 1    
    59   31   57 1    
    60   32   33 2    
    61   32   34 1    
    62   34   58 1    
    63   34   59 1    
@<TRIPOS>SUBSTRUCTURE
     1 UNK         1 GROUP             0       ****    0 ROOT    
