@<TRIPOS>MOLECULE
ZINC29388898_318
73   77    1
SMALL
USER_CHARGES


@<TRIPOS>ATOM
      1 C1          5.5389   56.8919   16.8483 C.ar      1 UNK         0.0000 
      2 C2          4.1959   56.7802   17.1991 C.ar      1 UNK         0.0000 
      3 C3          3.6401   55.5212   17.4247 C.ar      1 UNK         0.0000 
      4 C4          4.4326   54.3671   17.2856 C.ar      1 UNK         0.0000 
      5 C5          5.7806   54.4947   16.9327 C.ar      1 UNK         0.0000 
      6 C6          6.3342   55.7551   16.7148 C.ar      1 UNK         0.0000 
      7 N7          3.9714   53.0532   17.5073 N.am      1 UNK         0.0000 
      8 C8          2.7101   52.6114   17.6881 C.2       1 UNK         0.0000 
      9 O9          1.6876   53.2867   17.5980 O.2       1 UNK         0.0000 
     10 N10         2.7032   51.3120   18.0217 N.am      1 UNK         0.0000 
     11 C11         1.8670   50.6564   19.0363 C.3       1 UNK         0.0000 
     12 C12         0.9446   51.5584   19.9069 C.3       1 UNK         0.0000 
     13 C13         0.2260   50.8224   21.0449 C.3       1 UNK         0.0000 
     14 N14         1.3020   50.1288   21.9148 N.4       1 UNK         0.0000 
     15 C15         1.9971   49.0370   21.0799 C.3       1 UNK         0.0000 
     16 C16         2.7354   49.7263   19.9172 C.3       1 UNK         0.0000 
     17 C17         0.6899   49.5324   23.2146 C.3       1 UNK         0.0000 
     18 C18         0.2801   50.6797   24.1468 C.2       1 UNK         0.0000 
     19 O19        -0.8979   50.7933   24.4777 O.2       1 UNK         0.0000 
     20 N20         1.2343   51.5709   24.4735 N.am      1 UNK         0.0000 
     21 C21         1.0004   52.9141   25.0118 C.3       1 UNK         0.0000 
     22 H22        -0.0704   53.0150   25.2108 H         1 UNK         0.0000 
     23 C23         1.3681   53.9791   23.9709 C.3       1 UNK         0.0000 
     24 C24         2.8644   53.9420   23.6397 C.3       1 UNK         0.0000 
     25 C25         3.7074   54.0622   24.9059 C.ar      1 UNK         0.0000 
     26 C26         5.0247   54.5223   24.7978 C.ar      1 UNK         0.0000 
     27 C27         5.8431   54.6455   25.9131 C.ar      1 UNK         0.0000 
     28 C28         5.3551   54.3008   27.1652 C.ar      1 UNK         0.0000 
     29 C29         4.0485   53.8361   27.2896 C.ar      1 UNK         0.0000 
     30 C30         3.1966   53.6968   26.1805 C.ar      1 UNK         0.0000 
     31 C31         1.7268   53.2265   26.3611 C.3       1 UNK         0.0000 
     32 H32         1.2220   54.1039   26.7622 H         1 UNK         0.0000 
     33 C33         1.5193   52.0853   27.3996 C.3       1 UNK         0.0000 
     34 C34         1.3482   52.5006   28.8523 C.ar      1 UNK         0.0000 
     35 C35         2.2516   52.0968   29.8411 C.ar      1 UNK         0.0000 
     36 C36         1.9432   52.3063   31.1874 C.ar      1 UNK         0.0000 
     37 C37         0.7419   52.9438   31.4991 C.ar      1 UNK         0.0000 
     38 N38        -0.0938   53.4326   30.5516 N.ar      1 UNK         0.0000 
     39 C39         0.2086   53.1974   29.2524 C.ar      1 UNK         0.0000 
     40 F40         7.1033   55.1109   25.7792 F         1 UNK         0.0000 
     41 H41         5.9647   57.8708   16.6765 H         1 UNK         0.0000 
     42 H42         3.5905   57.6695   17.3045 H         1 UNK         0.0000 
     43 H43         2.6022   55.4710   17.7195 H         1 UNK         0.0000 
     44 H44         6.4061   53.6206   16.8250 H         1 UNK         0.0000 
     45 H45         7.3756   55.8497   16.4351 H         1 UNK         0.0000 
     46 H46         4.6914   52.3456   17.5423 H         1 UNK         0.0000 
     47 H47         3.5952   50.8415   17.8792 H         1 UNK         0.0000 
     48 H48         1.2139   49.9721   18.4904 H         1 UNK         0.0000 
     49 H49         0.1914   52.0372   19.2788 H         1 UNK         0.0000 
     50 H50         1.5370   52.3611   20.3516 H         1 UNK         0.0000 
     51 H51        -0.4817   50.0675   20.6979 H         1 UNK         0.0000 
     52 H52        -0.2993   51.5520   21.6618 H         1 UNK         0.0000 
     53 H53         2.7104   48.5309   21.7324 H         1 UNK         0.0000 
     54 H54         1.2365   48.3291   20.7450 H         1 UNK         0.0000 
     55 H55         3.5450   50.3199   20.3501 H         1 UNK         0.0000 
     56 H56         3.1950   48.9622   19.2855 H         1 UNK         0.0000 
     57 H57         1.4595   48.9141   23.6797 H         1 UNK         0.0000 
     58 H58        -0.1540   48.9038   22.9239 H         1 UNK         0.0000 
     59 H59         2.1775   51.3955   24.1634 H         1 UNK         0.0000 
     60 H60         0.7787   53.8426   23.0644 H         1 UNK         0.0000 
     61 H61         1.1037   54.9536   24.3527 H         1 UNK         0.0000 
     62 H62         3.1159   53.0139   23.1264 H         1 UNK         0.0000 
     63 H63         3.1048   54.7463   22.9419 H         1 UNK         0.0000 
     64 H64         5.4235   54.7948   23.8319 H         1 UNK         0.0000 
     65 H65         5.9840   54.4052   28.0385 H         1 UNK         0.0000 
     66 H66         3.6952   53.6077   28.2800 H         1 UNK         0.0000 
     67 H67         2.3029   51.3409   27.3285 H         1 UNK         0.0000 
     68 H68         0.6068   51.5353   27.1594 H         1 UNK         0.0000 
     69 H69         3.1539   51.5667   29.5714 H         1 UNK         0.0000 
     70 H70         2.5955   51.9586   31.9758 H         1 UNK         0.0000 
     71 H71         0.4369   53.0914   32.5264 H         1 UNK         0.0000 
     72 H72        -0.5065   53.5398   28.5229 H         1 UNK         0.0000 
     73 H73         1.9891   50.8135   22.1972 H         1 UNK         0.0000 
@<TRIPOS>BOND
     1    1    6 ar   
     2    1    2 ar   
     3    1   41 1    
     4    2    3 ar   
     5    2   42 1    
     6    3    4 ar   
     7    3   43 1    
     8    4    5 ar   
     9    4    7 1    
    10    5    6 ar   
    11    5   44 1    
    12    6   45 1    
    13    7    8 am   BACKBONE|DICT|INTERRES
    14    7   46 1    
    15    8    9 2    
    16    8   10 am   BACKBONE|DICT|INTERRES
    17   10   11 1    
    18   10   47 1    
    19   11   16 1    
    20   11   12 1    
    21   11   48 1    
    22   12   13 1    
    23   12   49 1    
    24   12   50 1    
    25   13   14 1    
    26   13   51 1    
    27   13   52 1    
    28   14   15 1    
    29   14   17 1    
    30   14   73 1    
    31   15   16 1    
    32   15   53 1    
    33   15   54 1    
    34   16   55 1    
    35   16   56 1    
    36   17   18 1    
    37   17   57 1    
    38   17   58 1    
    39   18   19 2    
    40   18   20 am   BACKBONE|DICT|INTERRES
    41   20   21 1    
    42   20   59 1    
    43   21   22 1    
    44   21   31 1    
    45   21   23 1    
    46   23   24 1    
    47   23   60 1    
    48   23   61 1    
    49   24   25 1    
    50   24   62 1    
    51   24   63 1    
    52   25   30 ar   
    53   25   26 ar   
    54   26   27 ar   
    55   26   64 1    
    56   27   28 ar   
    57   27   40 1    
    58   28   29 ar   
    59   28   65 1    
    60   29   30 ar   
    61   29   66 1    
    62   30   31 1    
    63   31   32 1    
    64   31   33 1    
    65   33   34 1    
    66   33   67 1    
    67   33   68 1    
    68   34   39 ar   
    69   34   35 ar   
    70   35   36 ar   
    71   35   69 1    
    72   36   37 ar   
    73   36   70 1    
    74   37   38 ar   
    75   37   71 1    
    76   38   39 ar   
    77   39   72 1    
@<TRIPOS>SUBSTRUCTURE
     1 UNK         1 GROUP             0       ****    0 ROOT    
