@<TRIPOS>MOLECULE
ZINC24609499_2258
46   48    1
SMALL
USER_CHARGES


@<TRIPOS>ATOM
      1 C1         -1.3119   51.6947   29.6865 C.3       1 UNK         0.0000 
      2 C2         -0.1474   52.3934   29.0432 C.ar      1 UNK         0.0000 
      3 C3          0.6154   51.7162   28.1018 C.ar      1 UNK         0.0000 
      4 C4          1.7423   52.3246   27.5755 C.ar      1 UNK         0.0000 
      5 C5          2.1257   53.6109   27.9709 C.ar      1 UNK         0.0000 
      6 C6          1.2995   54.3316   28.8644 C.ar      1 UNK         0.0000 
      7 C7          0.1773   53.6999   29.4062 C.ar      1 UNK         0.0000 
      8 C8          1.5995   55.7694   29.2780 C.3       1 UNK         0.0000 
      9 N9          3.4142   54.0729   27.5697 N.am      1 UNK         0.0000 
     10 C10         3.6570   54.2350   26.1718 C.2       1 UNK         0.0000 
     11 N11         2.7065   54.0935   25.2663 N.2       1 UNK         0.0000 
     12 C12         3.1409   54.0638   24.0187 C.2       1 UNK         0.0000 
     13 C13         4.4989   54.3085   23.8682 C.2       1 UNK         0.0000 
     14 S14         5.2261   54.4954   25.4307 S.3       1 UNK         0.0000 
     15 C15         2.1379   53.6983   22.9401 C.3       1 UNK         0.0000 
     16 S16         1.9075   51.8919   22.8333 S.3       1 UNK         0.0000 
     17 C17         1.2787   51.7832   21.1914 C.ar      1 UNK         0.0000 
     18 N18         0.1749   52.3690   20.8056 N.2       1 UNK         0.0000 
     19 N19        -0.0009   52.0989   19.4541 N.2       1 UNK         0.0000 
     20 C20         1.0392   51.4059   19.0607 C.ar      1 UNK         0.0000 
     21 N21         1.9005   51.1853   20.1130 N.pl3     1 UNK         0.0000 
     22 N22         3.1053   50.5021   20.0836 N.3       1 UNK         0.0000 
     23 C23         1.2684   50.9149   17.6411 C.3       1 UNK         0.0000 
     24 F24         0.2186   51.1576   16.8544 F         1 UNK         0.0000 
     25 F25         2.3238   51.5184   17.0980 F         1 UNK         0.0000 
     26 F26         1.4846   49.5998   17.6217 F         1 UNK         0.0000 
     27 C27         4.3428   54.1779   28.5823 C.2       1 UNK         0.0000 
     28 O28         4.1194   53.7850   29.7338 O.2       1 UNK         0.0000 
     29 C29         5.6890   54.8666   28.4266 C.3       1 UNK         0.0000 
     30 H30        -1.2783   50.6232   29.5235 H         1 UNK         0.0000 
     31 H31        -2.2425   52.0643   29.2664 H         1 UNK         0.0000 
     32 H32        -1.2954   51.8522   30.7654 H         1 UNK         0.0000 
     33 H33         0.3569   50.7100   27.8020 H         1 UNK         0.0000 
     34 H34         2.3387   51.7677   26.8823 H         1 UNK         0.0000 
     35 H35        -0.4389   54.2191   30.1249 H         1 UNK         0.0000 
     36 H36         2.3407   55.7993   30.0753 H         1 UNK         0.0000 
     37 H37         1.9814   56.3401   28.4335 H         1 UNK         0.0000 
     38 H38         0.7048   56.2876   29.6238 H         1 UNK         0.0000 
     39 H39         5.0871   54.3325   22.9629 H         1 UNK         0.0000 
     40 H40         1.1556   54.1160   23.1628 H         1 UNK         0.0000 
     41 H41         2.4356   54.1004   21.9719 H         1 UNK         0.0000 
     42 H42         2.9547   49.5283   19.8650 H         1 UNK         0.0000 
     43 H43         3.7303   50.8964   19.3856 H         1 UNK         0.0000 
     44 H44         5.6901   55.6956   27.7268 H         1 UNK         0.0000 
     45 H45         5.9029   55.2960   29.4022 H         1 UNK         0.0000 
     46 H46         6.4762   54.1558   28.1759 H         1 UNK         0.0000 
@<TRIPOS>BOND
     1    1    2 1    
     2    1   30 1    
     3    1   31 1    
     4    1   32 1    
     5    2    7 ar   
     6    2    3 ar   
     7    3    4 ar   
     8    3   33 1    
     9    4    5 ar   
    10    4   34 1    
    11    5    6 ar   
    12    5    9 1    
    13    6    7 ar   
    14    6    8 1    
    15    7   35 1    
    16    8   36 1    
    17    8   37 1    
    18    8   38 1    
    19    9   10 am   BACKBONE|DICT|INTERRES
    20    9   27 am   BACKBONE|DICT|INTERRES
    21   10   14 1    
    22   10   11 2    
    23   11   12 1    
    24   12   13 2    
    25   12   15 1    
    26   13   14 1    
    27   13   39 1    
    28   15   16 1    
    29   15   40 1    
    30   15   41 1    
    31   16   17 1    
    32   17   21 ar   
    33   17   18 ar   
    34   18   19 ar   
    35   19   20 ar   
    36   20   21 ar   
    37   20   23 1    
    38   21   22 1    
    39   22   42 1    
    40   22   43 1    
    41   23   24 1    
    42   23   25 1    
    43   23   26 1    
    44   27   28 2    
    45   27   29 1    
    46   29   44 1    
    47   29   45 1    
    48   29   46 1    
@<TRIPOS>SUBSTRUCTURE
     1 UNK         1 GROUP             0       ****    0 ROOT    
