@<TRIPOS>MOLECULE
ZINC01073600_3872
43   45    1
SMALL
USER_CHARGES


@<TRIPOS>ATOM
      1 C1          0.6938   52.0645   20.2136 C.3       1 UNK         0.0000 
      2 C2          1.5766   51.1969   19.2814 C.3       1 UNK         0.0000 
      3 C3          2.1526   52.0498   18.1199 C.3       1 UNK         0.0000 
      4 C4          3.1540   53.1005   18.6140 C.2       1 UNK         0.0000 
      5 C5          3.9205   52.9297   19.7302 C.2       1 UNK         0.0000 
      6 C6          4.9737   53.9513   20.2555 C.3       1 UNK         0.0000 
      7 H7          5.9043   53.4016   20.1137 H         1 UNK         0.0000 
      8 C8          5.1623   55.2058   19.3918 C.2       1 UNK         0.0000 
      9 C9          4.4709   55.5036   18.2749 C.2       1 UNK         0.0000 
     10 S10         3.2085   54.5173   17.5333 S.3       1 UNK         0.0000 
     11 N11         4.6593   56.6397   17.5293 N.pl3     1 UNK         0.0000 
     12 C12         6.1905   56.1167   19.7952 C.1       1 UNK         0.0000 
     13 N13         7.0313   56.8587   20.0823 N.1       1 UNK         0.0000 
     14 C14         5.0147   54.2040   21.7865 C.ar      1 UNK         0.0000 
     15 C15         6.2361   54.4473   22.4299 C.ar      1 UNK         0.0000 
     16 C16         6.3059   54.5455   23.8148 C.ar      1 UNK         0.0000 
     17 C17         5.1506   54.4124   24.5884 C.ar      1 UNK         0.0000 
     18 C18         3.9199   54.2116   23.9526 C.ar      1 UNK         0.0000 
     19 C19         3.8512   54.1233   22.5627 C.ar      1 UNK         0.0000 
     20 C20         5.2417   54.4893   26.1134 C.3       1 UNK         0.0000 
     21 F21         4.0953   54.8980   26.6546 F         1 UNK         0.0000 
     22 F22         6.2241   55.3032   26.4948 F         1 UNK         0.0000 
     23 F23         5.5156   53.2964   26.6176 F         1 UNK         0.0000 
     24 C24         3.8369   51.6440   20.4796 C.2       1 UNK         0.0000 
     25 O25         4.7034   51.3107   21.2821 O.2       1 UNK         0.0000 
     26 C26         2.7742   50.6133   20.0633 C.3       1 UNK         0.0000 
     27 C27         0.7995   50.0130   18.6690 C.3       1 UNK         0.0000 
     28 H28         0.2832   51.4705   21.0309 H         1 UNK         0.0000 
     29 H29         1.2370   52.8960   20.6614 H         1 UNK         0.0000 
     30 H30        -0.1486   52.4923   19.6683 H         1 UNK         0.0000 
     31 H31         1.3389   52.5079   17.5554 H         1 UNK         0.0000 
     32 H32         2.7107   51.4157   17.4254 H         1 UNK         0.0000 
     33 H33         5.3409   57.3381   17.7919 H         1 UNK         0.0000 
     34 H34         4.1129   56.8102   16.6972 H         1 UNK         0.0000 
     35 H35         7.1507   54.5232   21.8606 H         1 UNK         0.0000 
     36 H36         7.2683   54.7054   24.2799 H         1 UNK         0.0000 
     37 H37         3.0122   54.1152   24.5314 H         1 UNK         0.0000 
     38 H38         2.8931   53.9583   22.0920 H         1 UNK         0.0000 
     39 H39         2.4728   50.0275   20.9316 H         1 UNK         0.0000 
     40 H40         3.3088   49.9372   19.3930 H         1 UNK         0.0000 
     41 H41         0.4008   49.3564   19.4432 H         1 UNK         0.0000 
     42 H42        -0.0441   50.3591   18.0703 H         1 UNK         0.0000 
     43 H43         1.4302   49.4032   18.0193 H         1 UNK         0.0000 
@<TRIPOS>BOND
     1    1    2 1    
     2    1   28 1    
     3    1   29 1    
     4    1   30 1    
     5    2   26 1    
     6    2    3 1    
     7    2   27 1    
     8    3    4 1    
     9    3   31 1    
    10    3   32 1    
    11    4   10 1    
    12    4    5 2    
    13    5    6 1    
    14    5   24 1    
    15    6    7 1    
    16    6    8 1    
    17    6   14 1    
    18    8    9 2    
    19    8   12 1    
    20    9   10 1    
    21    9   11 1    
    22   11   33 1    
    23   11   34 1    
    24   12   13 3    
    25   14   19 ar   
    26   14   15 ar   
    27   15   16 ar   
    28   15   35 1    
    29   16   17 ar   
    30   16   36 1    
    31   17   18 ar   
    32   17   20 1    
    33   18   19 ar   
    34   18   37 1    
    35   19   38 1    
    36   20   21 1    
    37   20   22 1    
    38   20   23 1    
    39   24   25 2    
    40   24   26 1    
    41   26   39 1    
    42   26   40 1    
    43   27   41 1    
    44   27   42 1    
    45   27   43 1    
@<TRIPOS>SUBSTRUCTURE
     1 UNK         1 GROUP             0       ****    0 ROOT    
