ZINC00746682_5273
                    3D
 Schrodinger Suite 2024-2.
 71 75  0  0  1  0            999 V2000
    2.2547   49.2272   19.5696 C   0  0  0  0  0  0
    1.5458   50.5389   19.9700 C   0  0  1  0  0  0
    0.7354   50.6456   19.2479 H   0  0  0  0  0  0
    0.8787   50.5162   21.3546 C   0  0  0  0  0  0
   -0.2810   51.2756   21.5591 C   0  0  0  0  0  0
   -0.9395   51.2409   22.7856 C   0  0  0  0  0  0
   -0.4415   50.4419   23.8119 C   0  0  0  0  0  0
    0.7173   49.6912   23.6283 C   0  0  0  0  0  0
    1.3758   49.7244   22.4022 C   0  0  0  0  0  0
    2.3938   51.7160   19.7600 N   0  0  0  0  0  0
    3.5369   52.0153   20.4029 C   0  0  0  0  0  0
    4.0397   51.3126   21.2822 O   0  0  0  0  0  0
    4.1948   53.2967   19.9590 C   0  0  0  0  0  0
    4.4131   53.4796   18.5846 C   0  0  0  0  0  0
    5.1315   54.5819   18.1029 C   0  0  0  0  0  0
    5.7036   55.4693   19.0100 C   0  0  0  0  0  0
    5.5053   55.2931   20.3743 C   0  0  0  0  0  0
    4.7130   54.2505   20.8715 C   0  0  0  0  0  0
    4.5143   54.2432   22.2507 N   0  0  0  0  0  0
    3.2153   53.9974   22.8899 C   0  0  0  0  0  0
    3.0935   54.5851   24.3148 C   0  0  0  0  0  0
    4.1510   54.0980   25.2171 N   0  0  0  0  0  0
    5.4828   54.2765   24.6083 C   0  0  0  0  0  0
    5.6391   53.9043   23.1220 C   0  0  0  0  0  0
    4.0051   54.0324   26.6099 C   0  0  0  0  0  0
    5.0216   54.5492   27.4369 C   0  0  0  0  0  0
    4.9491   54.4798   28.8220 C   0  0  0  0  0  0
    3.8600   53.8652   29.4175 C   0  0  0  0  0  0
    2.8365   53.3463   28.6327 C   0  0  0  0  0  0
    2.8879   53.4213   27.2291 C   0  0  0  0  0  0
    1.8930   52.8820   26.4304 O   0  0  0  0  0  0
    0.7691   52.2368   27.0200 C   0  0  0  0  0  0
    5.3527   54.8235   16.7387 N   0  0  0  0  0  0
    4.5410   54.5170   15.7014 C   0  0  0  0  0  0
    3.4427   53.9747   15.8220 O   0  0  0  0  0  0
    5.0067   54.8964   14.2824 C   0  0  0  0  0  0
    4.7697   56.3329   13.8739 C   0  0  0  0  0  0
    6.1916   55.8305   14.1045 C   0  0  0  0  0  0
    1.5764   48.3751   19.6163 H   0  0  0  0  0  0
    2.6413   49.2842   18.5504 H   0  0  0  0  0  0
    3.1043   49.0165   20.2108 H   0  0  0  0  0  0
   -0.6732   51.8891   20.7623 H   0  0  0  0  0  0
   -1.8349   51.8244   22.9392 H   0  0  0  0  0  0
   -0.9562   50.4025   24.7597 H   0  0  0  0  0  0
    1.1015   49.0790   24.4320 H   0  0  0  0  0  0
    2.2749   49.1373   22.2848 H   0  0  0  0  0  0
    2.0325   52.4162   19.1321 H   0  0  0  0  0  0
    4.0574   52.7346   17.8850 H   0  0  0  0  0  0
    6.2866   56.3105   18.6616 H   0  0  0  0  0  0
    5.9281   56.0157   21.0564 H   0  0  0  0  0  0
    3.0629   52.9221   22.9770 H   0  0  0  0  0  0
    2.4139   54.3813   22.2559 H   0  0  0  0  0  0
    2.1058   54.3371   24.6936 H   0  0  0  0  0  0
    3.1050   55.6791   24.2631 H   0  0  0  0  0  0
    5.6971   55.3425   24.6795 H   0  0  0  0  0  0
    6.2451   53.7475   25.1814 H   0  0  0  0  0  0
    6.5841   54.2858   22.7330 H   0  0  0  0  0  0
    5.6974   52.8181   23.0840 H   0  0  0  0  0  0
    5.8898   55.0304   27.0135 H   0  0  0  0  0  0
    5.7457   54.8929   29.4243 H   0  0  0  0  0  0
    3.8143   53.7810   30.4897 H   0  0  0  0  0  0
    2.0115   52.8706   29.1382 H   0  0  0  0  0  0
    0.0869   51.9174   26.2336 H   0  0  0  0  0  0
    1.0645   51.3511   27.5861 H   0  0  0  0  0  0
    0.2151   52.9143   27.6726 H   0  0  0  0  0  0
    6.1712   55.3657   16.5160 H   0  0  0  0  0  0
    4.8481   54.1107   13.5429 H   0  0  0  0  0  0
    4.4360   56.5302   12.8543 H   0  0  0  0  0  0
    4.3262   57.0290   14.5911 H   0  0  0  0  0  0
    6.7465   56.2159   14.9590 H   0  0  0  0  0  0
    6.8403   55.6724   13.2400 H   0  0  0  0  0  0
  1  2  1  0  0  0
  1 39  1  0  0  0
  1 40  1  0  0  0
  1 41  1  0  0  0
  2  3  1  0  0  0
  2  4  1  0  0  0
  2 10  1  0  0  0
  4  9  2  0  0  0
  4  5  1  0  0  0
  5  6  2  0  0  0
  5 42  1  0  0  0
  6  7  1  0  0  0
  6 43  1  0  0  0
  7  8  2  0  0  0
  7 44  1  0  0  0
  8  9  1  0  0  0
  8 45  1  0  0  0
  9 46  1  0  0  0
 10 11  1  0  0  0
 10 47  1  0  0  0
 11 12  2  0  0  0
 11 13  1  0  0  0
 13 18  2  0  0  0
 13 14  1  0  0  0
 14 15  2  0  0  0
 14 48  1  0  0  0
 15 16  1  0  0  0
 15 33  1  0  0  0
 16 17  2  0  0  0
 16 49  1  0  0  0
 17 18  1  0  0  0
 17 50  1  0  0  0
 18 19  1  0  0  0
 19 24  1  0  0  0
 19 20  1  0  0  0
 20 21  1  0  0  0
 20 51  1  0  0  0
 20 52  1  0  0  0
 21 22  1  0  0  0
 21 53  1  0  0  0
 21 54  1  0  0  0
 22 23  1  0  0  0
 22 25  1  0  0  0
 23 24  1  0  0  0
 23 55  1  0  0  0
 23 56  1  0  0  0
 24 57  1  0  0  0
 24 58  1  0  0  0
 25 30  2  0  0  0
 25 26  1  0  0  0
 26 27  2  0  0  0
 26 59  1  0  0  0
 27 28  1  0  0  0
 27 60  1  0  0  0
 28 29  2  0  0  0
 28 61  1  0  0  0
 29 30  1  0  0  0
 29 62  1  0  0  0
 30 31  1  0  0  0
 31 32  1  0  0  0
 32 63  1  0  0  0
 32 64  1  0  0  0
 32 65  1  0  0  0
 33 34  1  0  0  0
 33 66  1  0  0  0
 34 35  2  0  0  0
 34 36  1  0  0  0
 36 38  1  0  0  0
 36 37  1  0  0  0
 36 67  1  0  0  0
 37 38  1  0  0  0
 37 68  1  0  0  0
 37 69  1  0  0  0
 38 70  1  0  0  0
 38 71  1  0  0  0
M  END
> <i_i_glide_confnum>
280

> <i_i_glide_lignum>
5274

> <i_i_glide_posenum>
43

> <i_i_glide_rotatable_bonds>
10

> <i_m_Source_File_Index>
2958

> <b_m_subgroup_collapsed>
0

> <r_i_docking_score>
-4.70552

> <r_i_glide_ecoul>
-1.3663

> <r_i_glide_eff_state_penalty>
0

> <r_i_glide_einternal>
7.65233

> <r_i_glide_emodel>
-52.7226

> <r_i_glide_energy>
-42.6906

> <r_i_glide_erotb>
0.656662

> <r_i_glide_esite>
-0.0639602

> <r_i_glide_evdw>
-41.3243

> <r_i_glide_gscore>
-4.70552

> <r_i_glide_hbond>
0

> <r_i_glide_ligand_efficiency>
-0.127176

> <r_i_glide_ligand_efficiency_ln>
-1.02052

> <r_i_glide_ligand_efficiency_sa>
-0.42378

> <r_i_glide_lipo>
-2.56698

> <r_i_glide_metal>
0

> <r_i_glide_rewards>
-0.460084

> <s_i_glide_gridfile>
wee1_glide-grid

> <s_m_Source_File>
wee1_decoys_glide_SP.sdf

> <s_m_Source_Path>
/Users/zhangxujun/Desktop

> <s_m_entry_id>
3233

> <s_m_entry_name>
wee1_decoys_glide_SP.2958

> <s_m_subgroup_title>
wee1_decoys_glide_SP

> <s_m_subgroupid>
wee1_decoys_glide_SP


$$$$
