@<TRIPOS>MOLECULE
ZINC59041396_1765
39   40    1
SMALL
USER_CHARGES


@<TRIPOS>ATOM
      1 C1         -4.0390   51.4732   26.6964 C.3       1 UNK         0.0000 
      2 C2         -2.6299   51.2343   26.2045 C.2       1 UNK         0.0000 
      3 N3         -1.9775   52.0824   25.5188 N.2       1 UNK         0.0000 
      4 C4         -0.6831   51.5042   25.2330 C.3       1 UNK         0.0000 
      5 C5         -0.6592   50.2038   25.9691 C.2       1 UNK         0.0000 
      6 N6         -1.8664   50.0968   26.4817 N.pl3     1 UNK         0.0000 
      7 N7          0.3043   49.2934   26.0758 N.pl3     1 UNK         0.0000 
      8 N8          0.4581   52.3969   25.5354 N.3       1 UNK         0.0000 
      9 C9          1.4538   52.2714   24.4658 C.3       1 UNK         0.0000 
     10 C10         1.0200   52.3550   26.9094 C.3       1 UNK         0.0000 
     11 C11         2.3049   53.2176   27.1257 C.3       1 UNK         0.0000 
     12 C12         2.8749   53.1386   28.5590 C.3       1 UNK         0.0000 
     13 C13         1.8316   53.5245   29.6268 C.3       1 UNK         0.0000 
     14 C14         0.6101   52.5996   29.4654 C.3       1 UNK         0.0000 
     15 C15         0.0020   52.6707   28.0481 C.3       1 UNK         0.0000 
     16 C16         1.4696   55.0266   29.6090 C.3       1 UNK         0.0000 
     17 H17        -4.6594   50.5904   26.5394 H         1 UNK         0.0000 
     18 H18        -4.5102   52.3095   26.1771 H         1 UNK         0.0000 
     19 H19        -4.0407   51.6977   27.7643 H         1 UNK         0.0000 
     20 H20         0.1370   48.4613   26.6361 H         1 UNK         0.0000 
     21 H21         1.1871   49.4110   25.6001 H         1 UNK         0.0000 
     22 H22         0.9936   52.3985   23.4845 H         1 UNK         0.0000 
     23 H23         2.2193   53.0442   24.5249 H         1 UNK         0.0000 
     24 H24         1.9379   51.2965   24.4809 H         1 UNK         0.0000 
     25 H25         1.3502   51.3370   27.1150 H         1 UNK         0.0000 
     26 H26         3.1034   52.8965   26.4583 H         1 UNK         0.0000 
     27 H27         2.0890   54.2585   26.8830 H         1 UNK         0.0000 
     28 H28         3.2399   52.1263   28.7447 H         1 UNK         0.0000 
     29 H29         3.7440   53.7940   28.6336 H         1 UNK         0.0000 
     30 H30         2.2720   53.2956   30.5975 H         1 UNK         0.0000 
     31 H31        -0.1573   52.8605   30.1976 H         1 UNK         0.0000 
     32 H32         0.8941   51.5681   29.6813 H         1 UNK         0.0000 
     33 H33        -0.4301   53.6596   27.8949 H         1 UNK         0.0000 
     34 H34        -0.8207   51.9647   28.0398 H         1 UNK         0.0000 
     35 H35         1.0266   55.3387   28.6639 H         1 UNK         0.0000 
     36 H36         0.7556   55.2682   30.3981 H         1 UNK         0.0000 
     37 H37         2.3528   55.6450   29.7722 H         1 UNK         0.0000 
     38 H38        -0.7190   51.2662   24.1650 H         1 UNK         0.0000 
     39 H39        -2.1189   49.3175   27.0889 H         1 UNK         0.0000 
@<TRIPOS>BOND
     1    1   17 1    
     2    1   18 1    
     3    1   19 1    
     4    1    2 1    
     5    2    3 2    
     6    2    6 1    
     7    3    4 1    
     8    4    8 1    
     9    4   38 1    
    10    4    5 1    
    11    5    6 2    
    12    5    7 1    
    13    6   39 1    
    14    7   20 1    
    15    7   21 1    
    16    8    9 1    
    17    8   10 1    
    18    9   22 1    
    19    9   23 1    
    20    9   24 1    
    21   10   15 1    
    22   10   11 1    
    23   10   25 1    
    24   11   12 1    
    25   11   26 1    
    26   11   27 1    
    27   12   13 1    
    28   12   28 1    
    29   12   29 1    
    30   13   14 1    
    31   13   16 1    
    32   13   30 1    
    33   14   15 1    
    34   14   31 1    
    35   14   32 1    
    36   15   33 1    
    37   15   34 1    
    38   16   35 1    
    39   16   36 1    
    40   16   37 1    
@<TRIPOS>SUBSTRUCTURE
     1 UNK         1 GROUP             0       ****    0 ROOT    
