ZINC09692227_5380
                    3D
 Schrodinger Suite 2024-2.
 65 68  0  0  1  0            999 V2000
    8.2784   55.8499   19.8409 C   0  0  0  0  0  0
    8.1863   56.6250   18.5113 C   0  0  0  0  0  0
    7.0619   57.6728   18.4820 C   0  0  0  0  0  0
    7.1045   58.6092   19.2817 O   0  0  0  0  0  0
    6.0808   57.5694   17.5560 N   0  0  0  0  0  0
    5.3994   58.8014   17.1417 C   0  0  0  0  0  0
    4.1045   58.3631   16.4751 C   0  0  0  0  0  0
    3.9958   56.9182   16.8756 C   0  0  0  0  0  0
    5.1956   56.4845   17.4421 C   0  0  0  0  0  0
    5.3972   55.1211   17.6917 C   0  0  0  0  0  0
    4.3572   54.2195   17.4833 C   0  0  0  0  0  0
    3.1234   54.6691   17.0060 C   0  0  0  0  0  0
    2.9557   56.0142   16.6626 C   0  0  0  0  0  0
    1.7633   53.5233   16.8783 S   0  0  0  0  0  0
    2.1738   52.4430   15.9757 O   0  0  0  0  0  0
    0.5530   54.3102   16.6182 O   0  0  0  0  0  0
    1.6139   52.8783   18.5030 N   0  0  0  0  0  0
    2.4114   51.6824   18.9367 C   0  0  2  0  0  0
    3.1641   51.4940   18.1707 H   0  0  0  0  0  0
    1.5258   50.4040   18.9926 C   0  0  0  0  0  0
    0.4867   50.2332   20.1384 C   0  0  0  0  0  0
    1.1027   49.8301   21.4961 C   0  0  0  0  0  0
   -0.5257   51.3896   20.2594 C   0  0  0  0  0  0
    3.1930   51.9702   20.2519 C   0  0  0  0  0  0
    4.2075   51.3077   20.4818 O   0  0  0  0  0  0
    2.7069   52.8978   21.1040 N   0  0  0  0  0  0
    3.3578   53.3502   22.2344 C   0  0  0  0  0  0
    2.7055   53.5822   23.3353 N   0  0  0  0  0  0
    3.5567   53.9356   24.3348 C   0  0  0  0  0  0
    3.1819   54.1002   25.6735 C   0  0  0  0  0  0
    4.1726   54.4226   26.6025 C   0  0  0  0  0  0
    5.5083   54.5875   26.2231 C   0  0  0  0  0  0
    5.9000   54.4452   24.8897 C   0  0  0  0  0  0
    4.9179   54.0962   23.9545 C   0  0  0  0  0  0
    5.0827   53.7050   22.2517 S   0  0  0  0  0  0
    6.5547   54.8784   27.2814 C   0  0  0  0  0  0
    9.0286   55.0625   19.7634 H   0  0  0  0  0  0
    8.6060   56.4950   20.6552 H   0  0  0  0  0  0
    7.3376   55.3726   20.1169 H   0  0  0  0  0  0
    8.1057   55.9408   17.6667 H   0  0  0  0  0  0
    9.1250   57.1560   18.3465 H   0  0  0  0  0  0
    5.1044   59.2881   18.0732 H   0  0  0  0  0  0
    5.9942   59.5595   16.6306 H   0  0  0  0  0  0
    4.2129   58.4500   15.3938 H   0  0  0  0  0  0
    3.2726   59.0100   16.7600 H   0  0  0  0  0  0
    6.3270   54.7310   18.0706 H   0  0  0  0  0  0
    4.5189   53.1758   17.7078 H   0  0  0  0  0  0
    2.0212   56.3521   16.2411 H   0  0  0  0  0  0
    1.4546   53.6065   19.2065 H   0  0  0  0  0  0
    0.9953   50.3394   18.0405 H   0  0  0  0  0  0
    2.1845   49.5340   18.9818 H   0  0  0  0  0  0
   -0.1021   49.3680   19.8310 H   0  0  0  0  0  0
    1.0437   50.6339   22.2306 H   0  0  0  0  0  0
    0.5804   48.9709   21.9180 H   0  0  0  0  0  0
    2.1525   49.5482   21.4057 H   0  0  0  0  0  0
   -0.2023   52.1446   20.9781 H   0  0  0  0  0  0
   -0.6860   51.8872   19.3043 H   0  0  0  0  0  0
   -1.4955   51.0163   20.5870 H   0  0  0  0  0  0
    1.8046   53.3100   20.9238 H   0  0  0  0  0  0
    2.1561   53.9652   25.9823 H   0  0  0  0  0  0
    3.8941   54.5373   27.6406 H   0  0  0  0  0  0
    6.9345   54.5504   24.5936 H   0  0  0  0  0  0
    7.5050   54.4106   27.0277 H   0  0  0  0  0  0
    6.7043   55.9502   27.3857 H   0  0  0  0  0  0
    6.2641   54.4734   28.2527 H   0  0  0  0  0  0
  1  2  1  0  0  0
  1 37  1  0  0  0
  1 38  1  0  0  0
  1 39  1  0  0  0
  2  3  1  0  0  0
  2 40  1  0  0  0
  2 41  1  0  0  0
  3  4  2  0  0  0
  3  5  1  0  0  0
  5  9  1  0  0  0
  5  6  1  0  0  0
  6  7  1  0  0  0
  6 42  1  0  0  0
  6 43  1  0  0  0
  7  8  1  0  0  0
  7 44  1  0  0  0
  7 45  1  0  0  0
  8 13  2  0  0  0
  8  9  1  0  0  0
  9 10  2  0  0  0
 10 11  1  0  0  0
 10 46  1  0  0  0
 11 12  2  0  0  0
 11 47  1  0  0  0
 12 13  1  0  0  0
 12 14  1  0  0  0
 13 48  1  0  0  0
 14 15  2  0  0  0
 14 16  2  0  0  0
 14 17  1  0  0  0
 17 18  1  0  0  0
 17 49  1  0  0  0
 18 19  1  0  0  0
 18 20  1  0  0  0
 18 24  1  0  0  0
 20 21  1  0  0  0
 20 50  1  0  0  0
 20 51  1  0  0  0
 21 22  1  0  0  0
 21 23  1  0  0  0
 21 52  1  0  0  0
 22 53  1  0  0  0
 22 54  1  0  0  0
 22 55  1  0  0  0
 23 56  1  0  0  0
 23 57  1  0  0  0
 23 58  1  0  0  0
 24 25  2  0  0  0
 24 26  1  0  0  0
 26 27  1  0  0  0
 26 59  1  0  0  0
 27 35  1  0  0  0
 27 28  2  0  0  0
 28 29  1  0  0  0
 29 34  2  0  0  0
 29 30  1  0  0  0
 30 31  2  0  0  0
 30 60  1  0  0  0
 31 32  1  0  0  0
 31 61  1  0  0  0
 32 33  2  0  0  0
 32 36  1  0  0  0
 33 34  1  0  0  0
 33 62  1  0  0  0
 34 35  1  0  0  0
 36 63  1  0  0  0
 36 64  1  0  0  0
 36 65  1  0  0  0
M  END
> <i_i_glide_confnum>
168

> <i_i_glide_lignum>
5381

> <i_i_glide_posenum>
314

> <i_i_glide_rotatable_bonds>
10

> <i_m_Source_File_Index>
3786

> <b_m_subgroup_collapsed>
0

> <r_i_docking_score>
-3.65171

> <r_i_glide_ecoul>
-9.12906

> <r_i_glide_eff_state_penalty>
0

> <r_i_glide_einternal>
21.9855

> <r_i_glide_emodel>
-43.9094

> <r_i_glide_energy>
-50.4864

> <r_i_glide_erotb>
0.61958

> <r_i_glide_esite>
-0.149427

> <r_i_glide_evdw>
-41.3574

> <r_i_glide_gscore>
-3.65171

> <r_i_glide_hbond>
-0.579137

> <r_i_glide_ligand_efficiency>
-0.104335

> <r_i_glide_ligand_efficiency_ln>
-0.801631

> <r_i_glide_ligand_efficiency_sa>
-0.341285

> <r_i_glide_lipo>
-2.61293

> <r_i_glide_metal>
0

> <r_i_glide_rewards>
2.50743

> <s_i_glide_gridfile>
wee1_glide-grid

> <s_m_Source_File>
wee1_decoys_glide_SP.sdf

> <s_m_Source_Path>
/Users/zhangxujun/Desktop

> <s_m_entry_id>
4061

> <s_m_entry_name>
wee1_decoys_glide_SP.3786

> <s_m_subgroup_title>
wee1_decoys_glide_SP

> <s_m_subgroupid>
wee1_decoys_glide_SP


$$$$
