@<TRIPOS>MOLECULE
ZINC14393539_423
55   58    1
SMALL
USER_CHARGES


@<TRIPOS>ATOM
      1 C1          5.7670   54.6143   26.3224 C.3       1 UNK         0.0000 
      2 C2          4.8273   54.2672   25.1760 C.ar      1 UNK         0.0000 
      3 C3          3.4635   54.0968   25.4394 C.ar      1 UNK         0.0000 
      4 C4          2.5788   53.7720   24.4115 C.ar      1 UNK         0.0000 
      5 C5          3.0481   53.6085   23.1083 C.ar      1 UNK         0.0000 
      6 C6          4.4068   53.7709   22.8375 C.ar      1 UNK         0.0000 
      7 C7          5.3032   54.1008   23.8629 C.ar      1 UNK         0.0000 
      8 C8          6.7794   54.2720   23.5350 C.3       1 UNK         0.0000 
      9 N9          2.1560   53.2970   22.0822 N.pl3     1 UNK         0.0000 
     10 S10         1.8147   51.6300   21.6140 S.o2      1 UNK         0.0000 
     11 O11         3.0738   50.8816   21.7064 O.2       1 UNK         0.0000 
     12 O12         1.0661   51.7120   20.3543 O.2       1 UNK         0.0000 
     13 C13         0.6738   50.9991   22.8487 C.ar      1 UNK         0.0000 
     14 C14        -0.6549   51.4212   22.8308 C.ar      1 UNK         0.0000 
     15 C15        -1.5582   50.9134   23.7610 C.ar      1 UNK         0.0000 
     16 C16        -1.1416   49.9681   24.7150 C.ar      1 UNK         0.0000 
     17 C17         0.2004   49.5717   24.7409 C.ar      1 UNK         0.0000 
     18 C18         1.1044   50.0811   23.8092 C.ar      1 UNK         0.0000 
     19 N19        -1.9936   49.3909   25.6817 N.am      1 UNK         0.0000 
     20 C20        -3.3451   49.3371   25.7023 C.2       1 UNK         0.0000 
     21 O21        -4.0665   49.7699   24.7999 O.2       1 UNK         0.0000 
     22 C22        -3.9665   48.6359   26.9443 C.3       1 UNK         0.0000 
     23 H23        -3.4897   49.1208   27.7976 H         1 UNK         0.0000 
     24 C24        -3.6627   47.0962   26.9600 C.3       1 UNK         0.0000 
     25 C25        -4.4889   46.3059   25.9103 C.2       1 UNK         0.0000 
     26 O26        -4.0954   45.2967   25.3282 O.2       1 UNK         0.0000 
     27 N27        -5.7351   46.7965   25.7536 N.am      1 UNK         0.0000 
     28 C28        -6.3052   47.9165   26.3691 C.ar      1 UNK         0.0000 
     29 C29        -5.4821   48.8535   27.0218 C.ar      1 UNK         0.0000 
     30 C30        -6.0723   49.9890   27.5887 C.ar      1 UNK         0.0000 
     31 C31        -7.4553   50.1663   27.5493 C.ar      1 UNK         0.0000 
     32 C32        -8.2620   49.2197   26.9201 C.ar      1 UNK         0.0000 
     33 C33        -7.6877   48.0967   26.3244 C.ar      1 UNK         0.0000 
     34 F34        -9.6008   49.3946   26.8789 F         1 UNK         0.0000 
     35 H35         6.2945   55.5466   26.1159 H         1 UNK         0.0000 
     36 H36         5.2401   54.7329   27.2699 H         1 UNK         0.0000 
     37 H37         6.5177   53.8324   26.4483 H         1 UNK         0.0000 
     38 H38         3.0869   54.2095   26.4460 H         1 UNK         0.0000 
     39 H39         1.5291   53.6414   24.6325 H         1 UNK         0.0000 
     40 H40         4.7663   53.6407   21.8275 H         1 UNK         0.0000 
     41 H41         7.3849   53.5773   24.1179 H         1 UNK         0.0000 
     42 H42         6.9923   54.0972   22.4817 H         1 UNK         0.0000 
     43 H43         7.1048   55.2833   23.7819 H         1 UNK         0.0000 
     44 H44         1.7396   54.0378   21.5343 H         1 UNK         0.0000 
     45 H45        -0.9886   52.1349   22.0897 H         1 UNK         0.0000 
     46 H46        -2.5762   51.2717   23.7254 H         1 UNK         0.0000 
     47 H47         0.5480   48.8498   25.4693 H         1 UNK         0.0000 
     48 H48         2.1322   49.7443   23.8267 H         1 UNK         0.0000 
     49 H49        -1.5322   48.9059   26.4446 H         1 UNK         0.0000 
     50 H50        -4.0009   46.6793   27.9080 H         1 UNK         0.0000 
     51 H51        -2.5988   46.8752   26.8459 H         1 UNK         0.0000 
     52 H52        -6.3097   46.2440   25.1364 H         1 UNK         0.0000 
     53 H53        -5.4521   50.7353   28.0623 H         1 UNK         0.0000 
     54 H54        -7.9041   51.0393   27.9978 H         1 UNK         0.0000 
     55 H55        -8.3248   47.3763   25.8309 H         1 UNK         0.0000 
@<TRIPOS>BOND
     1    1    2 1    
     2    1   35 1    
     3    1   36 1    
     4    1   37 1    
     5    2    7 ar   
     6    2    3 ar   
     7    3    4 ar   
     8    3   38 1    
     9    4    5 ar   
    10    4   39 1    
    11    5    6 ar   
    12    5    9 1    
    13    6    7 ar   
    14    6   40 1    
    15    7    8 1    
    16    8   41 1    
    17    8   42 1    
    18    8   43 1    
    19    9   10 1    
    20    9   44 1    
    21   10   11 2    
    22   10   12 2    
    23   10   13 1    
    24   13   18 ar   
    25   13   14 ar   
    26   14   15 ar   
    27   14   45 1    
    28   15   16 ar   
    29   15   46 1    
    30   16   17 ar   
    31   16   19 1    
    32   17   18 ar   
    33   17   47 1    
    34   18   48 1    
    35   19   20 am   BACKBONE|DICT|INTERRES
    36   19   49 1    
    37   20   21 2    
    38   20   22 1    
    39   22   23 1    
    40   22   29 1    
    41   22   24 1    
    42   24   25 1    
    43   24   50 1    
    44   24   51 1    
    45   25   26 2    
    46   25   27 am   BACKBONE|DICT|INTERRES
    47   27   28 1    
    48   27   52 1    
    49   28   33 ar   
    50   28   29 ar   
    51   29   30 ar   
    52   30   31 ar   
    53   30   53 1    
    54   31   32 ar   
    55   31   54 1    
    56   32   33 ar   
    57   32   34 1    
    58   33   55 1    
@<TRIPOS>SUBSTRUCTURE
     1 UNK         1 GROUP             0       ****    0 ROOT    
