@<TRIPOS>MOLECULE
ZINC27685238_1533
47   50    1
SMALL
USER_CHARGES


@<TRIPOS>ATOM
      1 C1          5.7995   54.3334   15.9502 C.ar      1 UNK         0.0000 
      2 C2          4.7235   53.4830   16.1888 C.ar      1 UNK         0.0000 
      3 C3          4.2405   53.2952   17.4821 C.ar      1 UNK         0.0000 
      4 C4          4.8463   53.9640   18.5718 C.ar      1 UNK         0.0000 
      5 C5          5.9525   54.8329   18.3273 C.ar      1 UNK         0.0000 
      6 C6          6.4171   55.0090   17.0008 C.ar      1 UNK         0.0000 
      7 C7          6.5428   55.4844   19.4358 C.ar      1 UNK         0.0000 
      8 C8          6.0358   55.2564   20.7124 C.ar      1 UNK         0.0000 
      9 C9          4.9486   54.3846   20.8758 C.ar      1 UNK         0.0000 
     10 N10         4.3597   53.7533   19.8260 N.ar      1 UNK         0.0000 
     11 C11         4.3652   54.0969   22.2379 C.2       1 UNK         0.0000 
     12 O12         3.1587   53.8774   22.3905 O.2       1 UNK         0.0000 
     13 N13         5.2649   54.0899   23.2395 N.am      1 UNK         0.0000 
     14 N14         4.7878   53.9555   24.5346 N.am      1 UNK         0.0000 
     15 C15         5.5378   54.4919   25.5153 C.2       1 UNK         0.0000 
     16 O16         6.6045   55.0884   25.3074 O.2       1 UNK         0.0000 
     17 C17         5.0274   54.3195   26.9311 C.ar      1 UNK         0.0000 
     18 C18         5.7664   54.8965   27.9657 C.ar      1 UNK         0.0000 
     19 C19         5.3309   54.8394   29.2814 C.ar      1 UNK         0.0000 
     20 C20         4.1968   54.1177   29.6035 C.ar      1 UNK         0.0000 
     21 C21         3.4604   53.4809   28.6138 C.ar      1 UNK         0.0000 
     22 C22         3.8557   53.6053   27.2687 C.ar      1 UNK         0.0000 
     23 N23         2.2971   52.8268   29.0433 N.pl3     1 UNK         0.0000 
     24 C24         1.9148   51.5303   28.5092 C.3       1 UNK         0.0000 
     25 C25         0.6342   51.6592   27.6703 C.3       1 UNK         0.0000 
     26 C26         0.2177   53.1305   27.6815 C.3       1 UNK         0.0000 
     27 S27         0.8388   53.7708   29.3197 S.o2      1 UNK         0.0000 
     28 O28        -0.0248   53.1877   30.3500 O.2       1 UNK         0.0000 
     29 O29         1.1063   55.2121   29.2565 O.2       1 UNK         0.0000 
     30 H30         6.1614   54.4660   14.9411 H         1 UNK         0.0000 
     31 H31         4.2620   52.9569   15.3656 H         1 UNK         0.0000 
     32 H32         3.4166   52.6197   17.6634 H         1 UNK         0.0000 
     33 H33         7.2540   55.6650   16.8101 H         1 UNK         0.0000 
     34 H34         7.3819   56.1473   19.2822 H         1 UNK         0.0000 
     35 H35         6.4900   55.7591   21.5542 H         1 UNK         0.0000 
     36 H36         6.0969   54.6627   23.2145 H         1 UNK         0.0000 
     37 H37         3.7789   53.9129   24.5698 H         1 UNK         0.0000 
     38 H38         6.6770   55.4386   27.7533 H         1 UNK         0.0000 
     39 H39         5.9041   55.3074   30.0693 H         1 UNK         0.0000 
     40 H40         3.9045   54.0385   30.6358 H         1 UNK         0.0000 
     41 H41         3.2546   53.1351   26.5042 H         1 UNK         0.0000 
     42 H42         1.8246   50.7678   29.2792 H         1 UNK         0.0000 
     43 H43         2.6861   51.1510   27.8473 H         1 UNK         0.0000 
     44 H44         0.7782   51.2963   26.6517 H         1 UNK         0.0000 
     45 H45        -0.1490   51.0356   28.1070 H         1 UNK         0.0000 
     46 H46         0.7052   53.6968   26.8902 H         1 UNK         0.0000 
     47 H47        -0.8599   53.2762   27.6241 H         1 UNK         0.0000 
@<TRIPOS>BOND
     1    1    6 ar   
     2    1    2 ar   
     3    1   30 1    
     4    2    3 ar   
     5    2   31 1    
     6    3    4 ar   
     7    3   32 1    
     8    4   10 ar   
     9    4    5 ar   
    10    5    6 ar   
    11    5    7 ar   
    12    6   33 1    
    13    7    8 ar   
    14    7   34 1    
    15    8    9 ar   
    16    8   35 1    
    17    9   10 ar   
    18    9   11 1    
    19   11   12 2    
    20   11   13 am   BACKBONE|DICT|INTERRES
    21   13   14 1    
    22   13   36 1    
    23   14   15 am   BACKBONE|DICT|INTERRES
    24   14   37 1    
    25   15   16 2    
    26   15   17 1    
    27   17   22 ar   
    28   17   18 ar   
    29   18   19 ar   
    30   18   38 1    
    31   19   20 ar   
    32   19   39 1    
    33   20   21 ar   
    34   20   40 1    
    35   21   22 ar   
    36   21   23 1    
    37   22   41 1    
    38   23   27 1    
    39   23   24 1    
    40   24   25 1    
    41   24   42 1    
    42   24   43 1    
    43   25   26 1    
    44   25   44 1    
    45   25   45 1    
    46   26   27 1    
    47   26   46 1    
    48   26   47 1    
    49   27   28 2    
    50   27   29 2    
@<TRIPOS>SUBSTRUCTURE
     1 UNK         1 GROUP             0       ****    0 ROOT    
