@<TRIPOS>MOLECULE
ZINC39666234_787
72   75    1
SMALL
USER_CHARGES


@<TRIPOS>ATOM
      1 C1          5.9566   54.8406   26.8845 C.3       1 UNK         0.0000 
      2 C2          5.7612   54.7201   25.3826 C.ar      1 UNK         0.0000 
      3 C3          6.7645   55.1355   24.5110 C.ar      1 UNK         0.0000 
      4 C4          6.6086   55.0022   23.1362 C.ar      1 UNK         0.0000 
      5 C5          5.4276   54.4884   22.6089 C.ar      1 UNK         0.0000 
      6 C6          4.4048   54.0977   23.4875 C.ar      1 UNK         0.0000 
      7 C7          4.5724   54.2067   24.8666 C.ar      1 UNK         0.0000 
      8 O8          5.3442   54.4311   21.2292 O.3       1 UNK         0.0000 
      9 C9          4.3727   53.5909   20.6005 C.3       1 UNK         0.0000 
     10 H10         3.3780   53.7814   21.0042 H         1 UNK         0.0000 
     11 C11         4.3074   54.0015   19.1221 C.3       1 UNK         0.0000 
     12 C12         4.7853   52.1050   20.7795 C.3       1 UNK         0.0000 
     13 N13         3.7201   51.1211   20.5900 N.am      1 UNK         0.0000 
     14 C14         2.6795   50.9512   21.4234 C.2       1 UNK         0.0000 
     15 O15         2.4796   51.7058   22.3748 O.2       1 UNK         0.0000 
     16 C16         1.7394   49.7422   21.1903 C.3       1 UNK         0.0000 
     17 H17         2.1834   48.9162   21.7507 H         1 UNK         0.0000 
     18 C18         0.4053   50.0363   21.9000 C.3       1 UNK         0.0000 
     19 N19        -0.4995   49.0594   21.2989 N.am      1 UNK         0.0000 
     20 C20         0.0299   48.5328   20.0395 C.3       1 UNK         0.0000 
     21 C21         1.3322   49.3319   19.7470 C.3       1 UNK         0.0000 
     22 C22         2.4189   48.4952   19.0449 C.3       1 UNK         0.0000 
     23 C23         1.8874   47.8700   17.7406 C.3       1 UNK         0.0000 
     24 N24         1.5044   49.0332   16.7993 N.4       1 UNK         0.0000 
     25 C25         0.5404   50.0829   17.4077 C.3       1 UNK         0.0000 
     26 C26         1.0771   50.5358   18.7877 C.3       1 UNK         0.0000 
     27 C27        -1.6037   48.5460   21.8980 C.2       1 UNK         0.0000 
     28 O28        -2.2855   47.6526   21.3924 O.2       1 UNK         0.0000 
     29 C29        -2.0139   49.1282   23.2318 C.ar      1 UNK         0.0000 
     30 C30        -1.2381   48.8455   24.3658 C.ar      1 UNK         0.0000 
     31 C31        -1.5441   49.4210   25.5960 C.ar      1 UNK         0.0000 
     32 C32        -2.6437   50.2686   25.7233 C.ar      1 UNK         0.0000 
     33 C33        -3.4380   50.5353   24.6066 C.ar      1 UNK         0.0000 
     34 C34        -3.1340   49.9782   23.3597 C.ar      1 UNK         0.0000 
     35 C35        -4.0375   50.3162   22.1792 C.3       1 UNK         0.0000 
     36 C36        -2.9802   50.8694   27.0749 C.3       1 UNK         0.0000 
     37 H37         6.3417   53.9067   27.2981 H         1 UNK         0.0000 
     38 H38         5.0137   55.0712   27.3819 H         1 UNK         0.0000 
     39 H39         6.6476   55.6469   27.1357 H         1 UNK         0.0000 
     40 H40         7.6868   55.5506   24.8818 H         1 UNK         0.0000 
     41 H41         7.4052   55.3129   22.4764 H         1 UNK         0.0000 
     42 H42         3.4599   53.7391   23.1244 H         1 UNK         0.0000 
     43 H43         3.7779   53.8951   25.5282 H         1 UNK         0.0000 
     44 H44         3.5786   53.3987   18.5788 H         1 UNK         0.0000 
     45 H45         4.0115   55.0468   19.0208 H         1 UNK         0.0000 
     46 H46         5.2740   53.8798   18.6317 H         1 UNK         0.0000 
     47 H47         5.5892   51.8700   20.0818 H         1 UNK         0.0000 
     48 H48         5.2251   51.9445   21.7664 H         1 UNK         0.0000 
     49 H49         3.8018   50.5435   19.7653 H         1 UNK         0.0000 
     50 H50         0.5433   49.9551   22.9783 H         1 UNK         0.0000 
     51 H51         0.0555   51.0303   21.6147 H         1 UNK         0.0000 
     52 H52        -0.6800   48.4733   19.2158 H         1 UNK         0.0000 
     53 H53         0.3268   47.5052   20.2579 H         1 UNK         0.0000 
     54 H54         3.3401   49.0542   18.8815 H         1 UNK         0.0000 
     55 H55         2.7032   47.6926   19.7158 H         1 UNK         0.0000 
     56 H56         2.6612   47.3019   17.2177 H         1 UNK         0.0000 
     57 H57         1.0027   47.2439   17.8665 H         1 UNK         0.0000 
     58 H58         2.4072   49.4646   16.5733 H         1 UNK         0.0000 
     59 H59         0.4993   50.9072   16.6936 H         1 UNK         0.0000 
     60 H60        -0.4429   49.6153   17.4501 H         1 UNK         0.0000 
     61 H61         0.3377   51.2049   19.2300 H         1 UNK         0.0000 
     62 H62         1.9673   51.1508   18.6502 H         1 UNK         0.0000 
     63 H63        -0.3789   48.1917   24.3001 H         1 UNK         0.0000 
     64 H64        -0.9257   49.2052   26.4571 H         1 UNK         0.0000 
     65 H65        -4.2944   51.1857   24.7112 H         1 UNK         0.0000 
     66 H66        -4.9101   50.8955   22.4812 H         1 UNK         0.0000 
     67 H67        -3.4849   50.8809   21.4284 H         1 UNK         0.0000 
     68 H68        -4.4017   49.4036   21.7072 H         1 UNK         0.0000 
     69 H69        -2.2620   51.6454   27.3375 H         1 UNK         0.0000 
     70 H70        -3.9884   51.2840   27.1013 H         1 UNK         0.0000 
     71 H71        -2.9274   50.0984   27.8456 H         1 UNK         0.0000 
     72 H72         1.1452   48.6756   15.9255 H         1 UNK         0.0000 
@<TRIPOS>BOND
     1    1    2 1    
     2    1   37 1    
     3    1   38 1    
     4    1   39 1    
     5    2    7 ar   
     6    2    3 ar   
     7    3    4 ar   
     8    3   40 1    
     9    4    5 ar   
    10    4   41 1    
    11    5    6 ar   
    12    5    8 1    
    13    6    7 ar   
    14    6   42 1    
    15    7   43 1    
    16    8    9 1    
    17    9   10 1    
    18    9   11 1    
    19    9   12 1    
    20   11   44 1    
    21   11   45 1    
    22   11   46 1    
    23   12   13 1    
    24   12   47 1    
    25   12   48 1    
    26   13   14 am   BACKBONE|DICT|INTERRES
    27   13   49 1    
    28   14   15 2    
    29   14   16 1    
    30   16   17 1    
    31   16   21 1    
    32   16   18 1    
    33   18   19 1    
    34   18   50 1    
    35   18   51 1    
    36   19   20 1    
    37   19   27 am   BACKBONE|DICT|INTERRES
    38   20   21 1    
    39   20   52 1    
    40   20   53 1    
    41   21   26 1    
    42   21   22 1    
    43   22   23 1    
    44   22   54 1    
    45   22   55 1    
    46   23   24 1    
    47   23   56 1    
    48   23   57 1    
    49   24   25 1    
    50   24   58 1    
    51   24   72 1    
    52   25   26 1    
    53   25   59 1    
    54   25   60 1    
    55   26   61 1    
    56   26   62 1    
    57   27   28 2    
    58   27   29 1    
    59   29   34 ar   
    60   29   30 ar   
    61   30   31 ar   
    62   30   63 1    
    63   31   32 ar   
    64   31   64 1    
    65   32   33 ar   
    66   32   36 1    
    67   33   34 ar   
    68   33   65 1    
    69   34   35 1    
    70   35   66 1    
    71   35   67 1    
    72   35   68 1    
    73   36   69 1    
    74   36   70 1    
    75   36   71 1    
@<TRIPOS>SUBSTRUCTURE
     1 UNK         1 GROUP             0       ****    0 ROOT    
