@<TRIPOS>MOLECULE
ZINC30757066_5995
57   59    1
SMALL
USER_CHARGES


@<TRIPOS>ATOM
      1 C1          4.0889   51.7008   31.6634 C.3       1 UNK         0.0000 
      2 C2          3.3861   52.2422   30.4439 C.ar      1 UNK         0.0000 
      3 C3          2.0158   52.4883   30.4661 C.ar      1 UNK         0.0000 
      4 C4          1.3751   52.9806   29.3289 C.ar      1 UNK         0.0000 
      5 C5          2.1421   53.3231   28.1981 C.ar      1 UNK         0.0000 
      6 C6          3.5300   53.1353   28.1883 C.ar      1 UNK         0.0000 
      7 C7          4.1168   52.5022   29.2873 C.ar      1 UNK         0.0000 
      8 O8          4.2391   53.5765   27.0787 O.3       1 UNK         0.0000 
      9 C9          5.6680   53.7174   27.0875 C.3       1 UNK         0.0000 
     10 H10         6.1004   52.7188   27.1145 H         1 UNK         0.0000 
     11 C11         6.2194   54.5327   28.2892 C.3       1 UNK         0.0000 
     12 C12         6.1172   54.3745   25.7502 C.2       1 UNK         0.0000 
     13 O13         7.1043   55.1121   25.7669 O.2       1 UNK         0.0000 
     14 N14         5.4142   54.0964   24.6246 N.am      1 UNK         0.0000 
     15 C15         5.6735   54.4963   23.2885 C.ar      1 UNK         0.0000 
     16 C16         6.7709   55.2818   22.9065 C.ar      1 UNK         0.0000 
     17 C17         6.9612   55.6635   21.5893 C.ar      1 UNK         0.0000 
     18 C18         6.0363   55.2921   20.6223 C.ar      1 UNK         0.0000 
     19 C19         4.9430   54.4929   20.9691 C.ar      1 UNK         0.0000 
     20 C20         4.7682   54.0933   22.2998 C.ar      1 UNK         0.0000 
     21 S21         6.2434   55.9607   18.9760 S.o2      1 UNK         0.0000 
     22 O22         5.2482   55.3559   18.0845 O.2       1 UNK         0.0000 
     23 O23         6.3046   57.4132   19.1575 O.2       1 UNK         0.0000 
     24 N24         7.8769   55.5053   18.4373 N.pl3     1 UNK         0.0000 
     25 C25         8.2728   54.3085   17.8220 C.ar      1 UNK         0.0000 
     26 C26         9.6289   54.1893   17.5063 C.ar      1 UNK         0.0000 
     27 C27        10.1118   53.0418   16.8817 C.ar      1 UNK         0.0000 
     28 C28         9.2385   52.0027   16.5775 C.ar      1 UNK         0.0000 
     29 C29         7.8864   52.1115   16.8815 C.ar      1 UNK         0.0000 
     30 C30         7.3995   53.2597   17.5059 C.ar      1 UNK         0.0000 
     31 Br31        9.9042   50.4144   15.7655 Br        1 UNK         0.0000 
     32 C32         1.4782   53.9231   26.9797 C.3       1 UNK         0.0000 
     33 C33        -0.1390   53.1409   29.3644 C.3       1 UNK         0.0000 
     34 H34         5.0479   51.2959   31.3561 H         1 UNK         0.0000 
     35 H35         4.2574   52.4983   32.3865 H         1 UNK         0.0000 
     36 H36         3.5143   50.9168   32.1546 H         1 UNK         0.0000 
     37 H37         1.4452   52.2611   31.3557 H         1 UNK         0.0000 
     38 H38         5.1620   52.2483   29.2708 H         1 UNK         0.0000 
     39 H39         7.3107   54.4978   28.2907 H         1 UNK         0.0000 
     40 H40         5.9051   55.5749   28.2170 H         1 UNK         0.0000 
     41 H41         5.9223   54.2114   29.2782 H         1 UNK         0.0000 
     42 H42         4.5995   53.5196   24.7600 H         1 UNK         0.0000 
     43 H43         7.5044   55.6364   23.6042 H         1 UNK         0.0000 
     44 H44         7.8126   56.2721   21.3329 H         1 UNK         0.0000 
     45 H45         4.2135   54.2085   20.2229 H         1 UNK         0.0000 
     46 H46         3.9071   53.4931   22.5544 H         1 UNK         0.0000 
     47 H47         8.5995   56.1863   18.6139 H         1 UNK         0.0000 
     48 H48        10.3211   54.9821   17.7511 H         1 UNK         0.0000 
     49 H49        11.1633   52.9524   16.6527 H         1 UNK         0.0000 
     50 H50         7.2135   51.2974   16.6516 H         1 UNK         0.0000 
     51 H51         6.3510   53.2912   17.7485 H         1 UNK         0.0000 
     52 H52         2.1291   54.0472   26.1150 H         1 UNK         0.0000 
     53 H53         1.1048   54.8967   27.2817 H         1 UNK         0.0000 
     54 H54         0.6426   53.2961   26.6705 H         1 UNK         0.0000 
     55 H55        -0.5286   53.0876   30.3822 H         1 UNK         0.0000 
     56 H56        -0.4655   54.0971   28.9572 H         1 UNK         0.0000 
     57 H57        -0.6113   52.3561   28.7723 H         1 UNK         0.0000 
@<TRIPOS>BOND
     1    1    2 1    
     2    1   34 1    
     3    1   35 1    
     4    1   36 1    
     5    2    7 ar   
     6    2    3 ar   
     7    3    4 ar   
     8    3   37 1    
     9    4    5 ar   
    10    4   33 1    
    11    5    6 ar   
    12    5   32 1    
    13    6    7 ar   
    14    6    8 1    
    15    7   38 1    
    16    8    9 1    
    17    9   10 1    
    18    9   11 1    
    19    9   12 1    
    20   11   39 1    
    21   11   40 1    
    22   11   41 1    
    23   12   13 2    
    24   12   14 am   BACKBONE|DICT|INTERRES
    25   14   15 1    
    26   14   42 1    
    27   15   20 ar   
    28   15   16 ar   
    29   16   17 ar   
    30   16   43 1    
    31   17   18 ar   
    32   17   44 1    
    33   18   19 ar   
    34   18   21 1    
    35   19   20 ar   
    36   19   45 1    
    37   20   46 1    
    38   21   22 2    
    39   21   23 2    
    40   21   24 1    
    41   24   25 1    
    42   24   47 1    
    43   25   30 ar   
    44   25   26 ar   
    45   26   27 ar   
    46   26   48 1    
    47   27   28 ar   
    48   27   49 1    
    49   28   29 ar   
    50   28   31 1    
    51   29   30 ar   
    52   29   50 1    
    53   30   51 1    
    54   32   52 1    
    55   32   53 1    
    56   32   54 1    
    57   33   55 1    
    58   33   56 1    
    59   33   57 1    
@<TRIPOS>SUBSTRUCTURE
     1 UNK         1 GROUP             0       ****    0 ROOT    
