@<TRIPOS>MOLECULE
ZINC39678404_788
60   63    1
SMALL
USER_CHARGES


@<TRIPOS>ATOM
      1 C1          5.0587   53.3134   28.2302 C.ar      1 UNK         0.0000 
      2 C2          4.5000   53.6947   27.0106 C.ar      1 UNK         0.0000 
      3 C3          3.1349   53.5089   26.7731 C.ar      1 UNK         0.0000 
      4 C4          2.3265   52.9809   27.7882 C.ar      1 UNK         0.0000 
      5 C5          2.8758   52.6184   29.0300 C.ar      1 UNK         0.0000 
      6 C6          4.2494   52.7727   29.2290 C.ar      1 UNK         0.0000 
      7 O7          2.1433   52.1074   30.0842 O.3       1 UNK         0.0000 
      8 C8          0.7770   52.4962   30.2438 C.3       1 UNK         0.0000 
      9 F9          0.6235   53.8209   30.2794 F         1 UNK         0.0000 
     10 F10        -0.0245   51.9434   29.3338 F         1 UNK         0.0000 
     11 C11         2.5107   54.0328   25.4891 C.3       1 UNK         0.0000 
     12 N12         2.1033   53.0551   24.4791 N.am      1 UNK         0.0000 
     13 C13         2.2408   53.2498   23.1513 C.2       1 UNK         0.0000 
     14 O14         2.9697   54.1287   22.6957 O.2       1 UNK         0.0000 
     15 C15         1.3989   52.3870   22.1619 C.3       1 UNK         0.0000 
     16 H16         1.0784   53.0674   21.3738 H         1 UNK         0.0000 
     17 C17         0.1467   51.7828   22.8265 C.3       1 UNK         0.0000 
     18 N18         0.6011   50.4624   23.2807 N.am      1 UNK         0.0000 
     19 C19         1.8936   50.0861   22.6930 C.3       1 UNK         0.0000 
     20 C20         2.1486   51.1442   21.5922 C.3       1 UNK         0.0000 
     21 C21         1.4969   50.5624   20.2932 C.3       1 UNK         0.0000 
     22 C22         1.6107   51.5046   19.0768 C.3       1 UNK         0.0000 
     23 N23         3.1033   51.8103   18.8245 N.4       1 UNK         0.0000 
     24 C24         3.8405   52.3324   20.0759 C.3       1 UNK         0.0000 
     25 C25         3.6445   51.3043   21.2097 C.3       1 UNK         0.0000 
     26 C26        -0.0616   49.6706   24.1586 C.2       1 UNK         0.0000 
     27 O27         0.3056   48.5360   24.4581 O.2       1 UNK         0.0000 
     28 C28        -1.2847   50.2492   24.8192 C.ar      1 UNK         0.0000 
     29 C29        -1.1712   50.7451   26.1269 C.ar      1 UNK         0.0000 
     30 C30        -2.2792   51.2875   26.7765 C.ar      1 UNK         0.0000 
     31 C31        -3.5110   51.3358   26.1270 C.ar      1 UNK         0.0000 
     32 C32        -3.6380   50.8341   24.8299 C.ar      1 UNK         0.0000 
     33 C33        -2.5363   50.2837   24.1719 C.ar      1 UNK         0.0000 
     34 Cl34       -2.7678   49.6660   22.5668 Cl        1 UNK         0.0000 
     35 Cl35       -4.8850   51.9990   26.9324 Cl        1 UNK         0.0000 
     36 H36         6.1173   53.4405   28.4052 H         1 UNK         0.0000 
     37 H37         5.1322   54.1281   26.2493 H         1 UNK         0.0000 
     38 H38         1.2691   52.8749   27.6047 H         1 UNK         0.0000 
     39 H39         4.6918   52.4816   30.1703 H         1 UNK         0.0000 
     40 H40         0.4230   52.1263   31.2078 H         1 UNK         0.0000 
     41 H41         1.5732   54.4963   25.7844 H         1 UNK         0.0000 
     42 H42         3.1214   54.8446   25.0849 H         1 UNK         0.0000 
     43 H43         1.5257   52.2897   24.7937 H         1 UNK         0.0000 
     44 H44        -0.2616   52.4313   23.6040 H         1 UNK         0.0000 
     45 H45        -0.6252   51.6620   22.0652 H         1 UNK         0.0000 
     46 H46         1.9752   49.0606   22.3278 H         1 UNK         0.0000 
     47 H47         2.6464   50.2005   23.4724 H         1 UNK         0.0000 
     48 H48         1.9308   49.5915   20.0425 H         1 UNK         0.0000 
     49 H49         0.4393   50.3491   20.4568 H         1 UNK         0.0000 
     50 H50         1.2383   51.0452   18.1594 H         1 UNK         0.0000 
     51 H51         1.1145   52.4656   19.2190 H         1 UNK         0.0000 
     52 H52         3.6092   50.9864   18.4953 H         1 UNK         0.0000 
     53 H53         4.8875   52.4325   19.7825 H         1 UNK         0.0000 
     54 H54         3.4308   53.3198   20.2943 H         1 UNK         0.0000 
     55 H55         4.2338   51.6218   22.0683 H         1 UNK         0.0000 
     56 H56         4.0625   50.3462   20.9111 H         1 UNK         0.0000 
     57 H57        -0.2265   50.7034   26.6536 H         1 UNK         0.0000 
     58 H58        -2.1829   51.6553   27.7866 H         1 UNK         0.0000 
     59 H59        -4.5971   50.8648   24.3368 H         1 UNK         0.0000 
     60 H60         3.1962   52.4822   18.0753 H         1 UNK         0.0000 
@<TRIPOS>BOND
     1    1    6 ar   
     2    1    2 ar   
     3    1   36 1    
     4    2    3 ar   
     5    2   37 1    
     6    3    4 ar   
     7    3   11 1    
     8    4    5 ar   
     9    4   38 1    
    10    5    6 ar   
    11    5    7 1    
    12    6   39 1    
    13    7    8 1    
    14    8    9 1    
    15    8   10 1    
    16    8   40 1    
    17   11   12 1    
    18   11   41 1    
    19   11   42 1    
    20   12   13 am   BACKBONE|DICT|INTERRES
    21   12   43 1    
    22   13   14 2    
    23   13   15 1    
    24   15   16 1    
    25   15   20 1    
    26   15   17 1    
    27   17   18 1    
    28   17   44 1    
    29   17   45 1    
    30   18   19 1    
    31   18   26 am   BACKBONE|DICT|INTERRES
    32   19   20 1    
    33   19   46 1    
    34   19   47 1    
    35   20   25 1    
    36   20   21 1    
    37   21   22 1    
    38   21   48 1    
    39   21   49 1    
    40   22   23 1    
    41   22   50 1    
    42   22   51 1    
    43   23   24 1    
    44   23   52 1    
    45   23   60 1    
    46   24   25 1    
    47   24   53 1    
    48   24   54 1    
    49   25   55 1    
    50   25   56 1    
    51   26   27 2    
    52   26   28 1    
    53   28   33 ar   
    54   28   29 ar   
    55   29   30 ar   
    56   29   57 1    
    57   30   31 ar   
    58   30   58 1    
    59   31   32 ar   
    60   31   35 1    
    61   32   33 ar   
    62   32   59 1    
    63   33   34 1    
@<TRIPOS>SUBSTRUCTURE
     1 UNK         1 GROUP             0       ****    0 ROOT    
