ZINC08869224_4008
                    3D
 Schrodinger Suite 2024-2.
 60 64  0  0  1  0            999 V2000
   11.2459   50.6653   15.7095 C   0  0  0  0  0  0
    9.9400   51.4389   15.6960 C   0  0  0  0  0  0
    9.1040   51.3992   16.8128 C   0  0  0  0  0  0
    7.9011   52.0982   16.8041 C   0  0  0  0  0  0
    7.5357   52.8386   15.6774 C   0  0  0  0  0  0
    8.3846   52.9017   14.5684 C   0  0  0  0  0  0
    9.5860   52.1978   14.5782 C   0  0  0  0  0  0
    5.9797   53.7256   15.6816 S   0  0  0  0  0  0
    5.6735   54.1112   14.2986 O   0  0  0  0  0  0
    5.0283   52.9293   16.4638 O   0  0  0  0  0  0
    6.3190   55.2026   16.5929 N   0  0  0  0  0  0
    6.9716   56.3595   15.9361 C   0  0  0  0  0  0
    5.8465   57.3840   15.9391 C   0  0  0  0  0  0
    5.1178   57.1579   17.2576 C   0  0  0  0  0  0
    5.3611   55.6759   17.6385 C   0  0  2  0  0  0
    4.4391   55.0917   17.6539 H   0  0  0  0  0  0
    6.0225   55.5485   19.0323 C   0  0  0  0  0  0
    7.1362   56.0517   19.2192 O   0  0  0  0  0  0
    5.2775   54.9706   20.0021 N   0  0  0  0  0  0
    5.5818   54.8523   21.3537 C   0  0  0  0  0  0
    4.6852   54.4167   22.2054 N   0  0  0  0  0  0
    5.0978   54.4390   23.4693 C   0  0  0  0  0  0
    6.4306   54.8452   23.6112 C   0  0  0  0  0  0
    7.1016   55.2968   22.0820 S   0  0  0  0  0  0
    4.1564   54.0988   24.5965 C   0  0  0  0  0  0
    2.8364   53.6952   24.3552 C   0  0  0  0  0  0
    1.9857   53.3830   25.4134 C   0  0  0  0  0  0
    2.4215   53.4976   26.7409 C   0  0  0  0  0  0
    3.7328   53.9255   26.9795 C   0  0  0  0  0  0
    4.5906   54.2152   25.9227 C   0  0  0  0  0  0
    1.5215   53.1630   27.8833 C   0  0  0  0  0  0
    1.5578   53.9133   29.0691 C   0  0  0  0  0  0
    0.7401   53.5843   30.1473 C   0  0  0  0  0  0
   -0.1186   52.4931   30.0497 C   0  0  0  0  0  0
   -0.1823   51.7442   28.8775 C   0  0  0  0  0  0
    0.6323   52.0794   27.8008 C   0  0  0  0  0  0
   11.9832   51.1154   15.0409 H   0  0  0  0  0  0
   11.0794   49.6293   15.4077 H   0  0  0  0  0  0
   11.6886   50.6662   16.7081 H   0  0  0  0  0  0
    9.3854   50.8202   17.6808 H   0  0  0  0  0  0
    7.2444   52.0487   17.6610 H   0  0  0  0  0  0
    8.1102   53.4825   13.7000 H   0  0  0  0  0  0
   10.2375   52.2336   13.7161 H   0  0  0  0  0  0
    7.7998   56.7051   16.5562 H   0  0  0  0  0  0
    7.4381   56.1106   14.9835 H   0  0  0  0  0  0
    6.2142   58.4077   15.8379 H   0  0  0  0  0  0
    5.1775   57.1938   15.0962 H   0  0  0  0  0  0
    5.4962   57.8642   18.0027 H   0  0  0  0  0  0
    4.0518   57.3675   17.1346 H   0  0  0  0  0  0
    4.3660   54.6308   19.7333 H   0  0  0  0  0  0
    7.0247   54.9462   24.5045 H   0  0  0  0  0  0
    2.4657   53.6076   23.3452 H   0  0  0  0  0  0
    0.9756   53.0655   25.1950 H   0  0  0  0  0  0
    4.1051   54.0124   27.9897 H   0  0  0  0  0  0
    5.5945   54.5328   26.1544 H   0  0  0  0  0  0
    2.2172   54.7636   29.1538 H   0  0  0  0  0  0
    0.7715   54.1673   31.0564 H   0  0  0  0  0  0
   -0.7532   52.2237   30.8834 H   0  0  0  0  0  0
   -0.8548   50.8982   28.8106 H   0  0  0  0  0  0
    0.5843   51.4753   26.9068 H   0  0  0  0  0  0
  1  2  1  0  0  0
  1 37  1  0  0  0
  1 38  1  0  0  0
  1 39  1  0  0  0
  2  7  2  0  0  0
  2  3  1  0  0  0
  3  4  2  0  0  0
  3 40  1  0  0  0
  4  5  1  0  0  0
  4 41  1  0  0  0
  5  6  2  0  0  0
  5  8  1  0  0  0
  6  7  1  0  0  0
  6 42  1  0  0  0
  7 43  1  0  0  0
  8  9  2  0  0  0
  8 10  2  0  0  0
  8 11  1  0  0  0
 11 15  1  0  0  0
 11 12  1  0  0  0
 12 13  1  0  0  0
 12 44  1  0  0  0
 12 45  1  0  0  0
 13 14  1  0  0  0
 13 46  1  0  0  0
 13 47  1  0  0  0
 14 15  1  0  0  0
 14 48  1  0  0  0
 14 49  1  0  0  0
 15 16  1  0  0  0
 15 17  1  0  0  0
 17 18  2  0  0  0
 17 19  1  0  0  0
 19 20  1  0  0  0
 19 50  1  0  0  0
 20 24  1  0  0  0
 20 21  2  0  0  0
 21 22  1  0  0  0
 22 23  2  0  0  0
 22 25  1  0  0  0
 23 24  1  0  0  0
 23 51  1  0  0  0
 25 30  2  0  0  0
 25 26  1  0  0  0
 26 27  2  0  0  0
 26 52  1  0  0  0
 27 28  1  0  0  0
 27 53  1  0  0  0
 28 29  2  0  0  0
 28 31  1  0  0  0
 29 30  1  0  0  0
 29 54  1  0  0  0
 30 55  1  0  0  0
 31 36  2  0  0  0
 31 32  1  0  0  0
 32 33  2  0  0  0
 32 56  1  0  0  0
 33 34  1  0  0  0
 33 57  1  0  0  0
 34 35  2  0  0  0
 34 58  1  0  0  0
 35 36  1  0  0  0
 35 59  1  0  0  0
 36 60  1  0  0  0
M  END
> <i_i_glide_confnum>
26

> <i_i_glide_lignum>
4009

> <i_i_glide_posenum>
340

> <i_i_glide_rotatable_bonds>
7

> <i_m_Source_File_Index>
3906

> <b_m_subgroup_collapsed>
0

> <r_i_docking_score>
-4.73775

> <r_i_glide_ecoul>
-2.2774

> <r_i_glide_eff_state_penalty>
0

> <r_i_glide_einternal>
4.47337

> <r_i_glide_emodel>
-56.7549

> <r_i_glide_energy>
-45.5744

> <r_i_glide_erotb>
0.564117

> <r_i_glide_esite>
-0.064785

> <r_i_glide_evdw>
-43.297

> <r_i_glide_gscore>
-4.73775

> <r_i_glide_hbond>
0

> <r_i_glide_ligand_efficiency>
-0.135364

> <r_i_glide_ligand_efficiency_ln>
-1.04004

> <r_i_glide_ligand_efficiency_sa>
-0.442785

> <r_i_glide_lipo>
-2.90623

> <r_i_glide_metal>
0

> <r_i_glide_rewards>
0.175606

> <s_i_glide_gridfile>
wee1_glide-grid

> <s_m_Source_File>
wee1_decoys_glide_SP.sdf

> <s_m_Source_Path>
/Users/zhangxujun/Desktop

> <s_m_entry_id>
4181

> <s_m_entry_name>
wee1_decoys_glide_SP.3906

> <s_m_subgroup_title>
wee1_decoys_glide_SP

> <s_m_subgroupid>
wee1_decoys_glide_SP


$$$$
