@<TRIPOS>MOLECULE
ZINC20695981_2358
54   57    1
SMALL
USER_CHARGES


@<TRIPOS>ATOM
      1 C1          2.5485   52.4120   15.0781 C.3       1 UNK         0.0000 
      2 C2          2.1546   52.6428   16.5490 C.3       1 UNK         0.0000 
      3 C3          3.2730   53.4365   17.2515 C.3       1 UNK         0.0000 
      4 C4          0.8363   53.4425   16.5972 C.3       1 UNK         0.0000 
      5 N5          2.0199   51.2943   17.1667 N.pl3     1 UNK         0.0000 
      6 S6          1.0991   50.9181   18.6337 S.o2      1 UNK         0.0000 
      7 O7         -0.2374   51.5184   18.5407 O.2       1 UNK         0.0000 
      8 O8          1.2425   49.4784   18.8722 O.2       1 UNK         0.0000 
      9 C9          1.9475   51.7134   19.9890 C.ar      1 UNK         0.0000 
     10 C10         3.3374   51.7001   20.0371 C.ar      1 UNK         0.0000 
     11 C11         4.0101   52.3039   21.0875 C.ar      1 UNK         0.0000 
     12 C12         3.2889   52.8958   22.1189 C.ar      1 UNK         0.0000 
     13 C13         1.8862   52.9234   22.1043 C.ar      1 UNK         0.0000 
     14 C14         1.2312   52.3283   21.0159 C.ar      1 UNK         0.0000 
     15 C15         1.1048   53.5808   23.2376 C.3       1 UNK         0.0000 
     16 H16         0.7048   54.5265   22.8817 H         1 UNK         0.0000 
     17 C17         0.0225   52.6645   23.7791 C.2       1 UNK         0.0000 
     18 C18         0.3660   52.1587   24.9716 C.2       1 UNK         0.0000 
     19 C19         1.6548   52.7688   25.4637 C.3       1 UNK         0.0000 
     20 C20         1.9458   53.8955   24.4735 C.3       1 UNK         0.0000 
     21 H21         1.4684   54.7773   24.8818 H         1 UNK         0.0000 
     22 C22         3.4374   54.3088   24.1914 C.3       1 UNK         0.0000 
     23 H23         3.4062   55.2964   23.7432 H         1 UNK         0.0000 
     24 N24         4.0260   53.4726   23.1537 N.pl3     1 UNK         0.0000 
     25 C25         4.3833   54.4676   25.4135 C.ar      1 UNK         0.0000 
     26 C26         3.8604   54.5389   26.7129 C.ar      1 UNK         0.0000 
     27 C27         4.6828   54.4967   27.8330 C.ar      1 UNK         0.0000 
     28 C28         6.0628   54.4724   27.6815 C.ar      1 UNK         0.0000 
     29 C29         6.6133   54.4996   26.4053 C.ar      1 UNK         0.0000 
     30 C30         5.7934   54.5066   25.2762 C.ar      1 UNK         0.0000 
     31 O31         6.4154   54.5576   24.0511 O.3       1 UNK         0.0000 
     32 Br32        3.9047   54.4491   29.5646 Br        1 UNK         0.0000 
     33 H33         2.6840   53.3531   14.5442 H         1 UNK         0.0000 
     34 H34         1.7867   51.8412   14.5455 H         1 UNK         0.0000 
     35 H35         3.4840   51.8557   14.9983 H         1 UNK         0.0000 
     36 H36         2.9906   53.7251   18.2635 H         1 UNK         0.0000 
     37 H37         4.1986   52.8612   17.3116 H         1 UNK         0.0000 
     38 H38         3.4990   54.3608   16.7179 H         1 UNK         0.0000 
     39 H39         0.5743   53.7319   17.6151 H         1 UNK         0.0000 
     40 H40         0.9126   54.3652   16.0212 H         1 UNK         0.0000 
     41 H41         0.0046   52.8690   16.1859 H         1 UNK         0.0000 
     42 H42         2.8171   50.6655   16.9932 H         1 UNK         0.0000 
     43 H43         3.9044   51.2558   19.2426 H         1 UNK         0.0000 
     44 H44         5.0903   52.2966   21.0986 H         1 UNK         0.0000 
     45 H45         0.1521   52.3381   20.9742 H         1 UNK         0.0000 
     46 H46        -0.8619   52.4128   23.2125 H         1 UNK         0.0000 
     47 H47        -0.1939   51.4396   25.5530 H         1 UNK         0.0000 
     48 H48         2.4958   52.0967   25.4690 H         1 UNK         0.0000 
     49 H49         1.4885   53.1120   26.4824 H         1 UNK         0.0000 
     50 H50         5.0291   53.5889   23.0777 H         1 UNK         0.0000 
     51 H51         2.8037   54.6203   26.8885 H         1 UNK         0.0000 
     52 H52         6.7030   54.4517   28.5512 H         1 UNK         0.0000 
     53 H53         7.6832   54.4957   26.3044 H         1 UNK         0.0000 
     54 H54         7.3730   54.6274   24.0954 H         1 UNK         0.0000 
@<TRIPOS>BOND
     1    1    2 1    
     2    1   33 1    
     3    1   34 1    
     4    1   35 1    
     5    2    3 1    
     6    2    4 1    
     7    2    5 1    
     8    3   36 1    
     9    3   37 1    
    10    3   38 1    
    11    4   39 1    
    12    4   40 1    
    13    4   41 1    
    14    5    6 1    
    15    5   42 1    
    16    6    7 2    
    17    6    8 2    
    18    6    9 1    
    19    9   14 ar   
    20    9   10 ar   
    21   10   11 ar   
    22   10   43 1    
    23   11   12 ar   
    24   11   44 1    
    25   12   24 1    
    26   12   13 ar   
    27   13   14 ar   
    28   13   15 1    
    29   14   45 1    
    30   15   16 1    
    31   15   20 1    
    32   15   17 1    
    33   17   18 2    
    34   17   46 1    
    35   18   19 1    
    36   18   47 1    
    37   19   20 1    
    38   19   48 1    
    39   19   49 1    
    40   20   21 1    
    41   20   22 1    
    42   22   23 1    
    43   22   24 1    
    44   22   25 1    
    45   24   50 1    
    46   25   30 ar   
    47   25   26 ar   
    48   26   27 ar   
    49   26   51 1    
    50   27   28 ar   
    51   27   32 1    
    52   28   29 ar   
    53   28   52 1    
    54   29   30 ar   
    55   29   53 1    
    56   30   31 1    
    57   31   54 1    
@<TRIPOS>SUBSTRUCTURE
     1 UNK         1 GROUP             0       ****    0 ROOT    
