@<TRIPOS>MOLECULE
ZINC13262027_3303
49   52    1
SMALL
USER_CHARGES


@<TRIPOS>ATOM
      1 C1          6.8498   55.2969   20.6837 C.ar      1 UNK         0.0000 
      2 C2          5.8130   55.0275   19.7994 C.ar      1 UNK         0.0000 
      3 C3          4.6192   54.4965   20.2769 C.ar      1 UNK         0.0000 
      4 C4          4.4421   54.2202   21.6371 C.ar      1 UNK         0.0000 
      5 C5          5.5066   54.4626   22.5491 C.ar      1 UNK         0.0000 
      6 C6          6.6968   55.0115   22.0379 C.ar      1 UNK         0.0000 
      7 C7          5.4495   54.2146   24.0506 C.2       1 UNK         0.0000 
      8 O8          6.5019   54.1037   24.6855 O.2       1 UNK         0.0000 
      9 N9          4.2271   54.1802   24.6246 N.am      1 UNK         0.0000 
     10 C10         3.8915   54.0771   25.9916 C.ar      1 UNK         0.0000 
     11 C11         4.7776   54.3550   27.0512 C.ar      1 UNK         0.0000 
     12 C12         4.3706   54.2112   28.3797 C.ar      1 UNK         0.0000 
     13 C13         3.0730   53.7927   28.6643 C.ar      1 UNK         0.0000 
     14 C14         2.1718   53.5453   27.6156 C.ar      1 UNK         0.0000 
     15 C15         2.5820   53.6815   26.2887 C.ar      1 UNK         0.0000 
     16 O16         0.8885   53.0893   27.8440 O.3       1 UNK         0.0000 
     17 C17         0.4269   53.2749   29.1872 C.3       1 UNK         0.0000 
     18 C18         1.5302   52.8965   30.2038 C.3       1 UNK         0.0000 
     19 O19         2.7022   53.6954   29.9927 O.3       1 UNK         0.0000 
     20 N20         3.1708   53.7608   22.0118 N.pl3     1 UNK         0.0000 
     21 S21         2.7519   52.0606   21.7660 S.o2      1 UNK         0.0000 
     22 O22         4.0057   51.3041   21.6816 O.2       1 UNK         0.0000 
     23 O23         1.7372   51.7488   22.7779 O.2       1 UNK         0.0000 
     24 C24         1.9614   51.9772   20.1594 C.ar      1 UNK         0.0000 
     25 C25         2.7416   51.7844   19.0218 C.ar      1 UNK         0.0000 
     26 C26         2.1428   51.6975   17.7705 C.ar      1 UNK         0.0000 
     27 C27         0.7591   51.8020   17.6382 C.ar      1 UNK         0.0000 
     28 C28        -0.0545   51.9893   18.7749 C.ar      1 UNK         0.0000 
     29 C29         0.5725   52.0833   20.0328 C.ar      1 UNK         0.0000 
     30 C30        -1.5497   52.0959   18.6733 C.2       1 UNK         0.0000 
     31 O31        -2.1748   52.4966   19.6817 O.co2     1 UNK         0.0000 
     32 F32         0.2431   51.7216   16.3880 F         1 UNK         0.0000 
     33 H33         7.7795   55.7104   20.3202 H         1 UNK         0.0000 
     34 H34         5.9275   55.2400   18.7462 H         1 UNK         0.0000 
     35 H35         3.8130   54.3227   19.5782 H         1 UNK         0.0000 
     36 H36         7.5237   55.2338   22.6968 H         1 UNK         0.0000 
     37 H37         3.4536   54.1697   23.9729 H         1 UNK         0.0000 
     38 H38         5.7865   54.6911   26.8729 H         1 UNK         0.0000 
     39 H39         5.0604   54.4282   29.1824 H         1 UNK         0.0000 
     40 H40         1.8822   53.4547   25.4967 H         1 UNK         0.0000 
     41 H41         0.1541   54.3215   29.3312 H         1 UNK         0.0000 
     42 H42        -0.4674   52.6719   29.3493 H         1 UNK         0.0000 
     43 H43         1.1736   53.0300   31.2257 H         1 UNK         0.0000 
     44 H44         1.7831   51.8425   30.0752 H         1 UNK         0.0000 
     45 H45         2.4655   54.2925   21.5164 H         1 UNK         0.0000 
     46 H46         3.8168   51.6964   19.0998 H         1 UNK         0.0000 
     47 H47         2.7608   51.5346   16.8985 H         1 UNK         0.0000 
     48 H48        -0.0213   52.2267   20.9257 H         1 UNK         0.0000 
     49 O49        -2.1122   51.7852   17.6015 O.co2     1 UNK         0.0000 
@<TRIPOS>BOND
     1    1    6 ar   
     2    1    2 ar   
     3    1   33 1    
     4    2    3 ar   
     5    2   34 1    
     6    3    4 ar   
     7    3   35 1    
     8    4    5 ar   
     9    4   20 1    
    10    5    6 ar   
    11    5    7 1    
    12    6   36 1    
    13    7    8 2    
    14    7    9 am   BACKBONE|DICT|INTERRES
    15    9   10 1    
    16    9   37 1    
    17   10   15 ar   
    18   10   11 ar   
    19   11   12 ar   
    20   11   38 1    
    21   12   13 ar   
    22   12   39 1    
    23   13   19 1    
    24   13   14 ar   
    25   14   15 ar   
    26   14   16 1    
    27   15   40 1    
    28   16   17 1    
    29   17   18 1    
    30   17   41 1    
    31   17   42 1    
    32   18   19 1    
    33   18   43 1    
    34   18   44 1    
    35   20   21 1    
    36   20   45 1    
    37   21   22 2    
    38   21   23 2    
    39   21   24 1    
    40   24   29 ar   
    41   24   25 ar   
    42   25   26 ar   
    43   25   46 1    
    44   26   27 ar   
    45   26   47 1    
    46   27   28 ar   
    47   27   32 1    
    48   28   29 ar   
    49   28   30 1    
    50   29   48 1    
    51   30   31 2    
    52   30   49 1    
@<TRIPOS>SUBSTRUCTURE
     1 UNK         1 GROUP             0       ****    0 ROOT    
