ZINC38684517_6010
                    3D
 Schrodinger Suite 2024-2.
 52 55  0  0  1  0            999 V2000
   -2.4055   52.3676   24.6286 C   0  0  0  0  0  0
   -2.5379   51.1780   25.2405 C   0  0  0  0  0  0
   -1.4019   50.2874   25.7353 C   0  0  0  0  0  0
   -0.1087   50.8823   25.6020 O   0  0  0  0  0  0
    0.2998   51.8631   26.4879 C   0  0  0  0  0  0
   -0.4045   52.2636   27.6346 C   0  0  0  0  0  0
    0.0815   53.2962   28.4332 C   0  0  0  0  0  0
    1.2634   53.9453   28.0858 C   0  0  0  0  0  0
    2.0066   53.5391   26.9712 C   0  0  0  0  0  0
    1.5027   52.4964   26.1868 C   0  0  0  0  0  0
    3.3358   54.2486   26.6421 C   0  0  2  0  0  0
    3.1085   55.2970   26.8214 H   0  0  0  0  0  0
    3.8290   54.2041   25.1746 C   0  0  0  0  0  0
    2.9611   54.2270   24.0706 C   0  0  0  0  0  0
    3.4412   54.1598   22.7639 C   0  0  0  0  0  0
    4.8142   54.1148   22.5182 C   0  0  0  0  0  0
    5.7010   54.0988   23.6005 C   0  0  0  0  0  0
    5.2132   54.1454   24.9042 C   0  0  0  0  0  0
    6.1660   54.1147   25.9017 O   0  0  0  0  0  0
    5.7628   53.9223   27.1795 C   0  0  0  0  0  0
    4.4834   53.9197   27.6006 C   0  0  0  0  0  0
    4.1898   53.6807   28.9746 C   0  0  0  0  0  0
    3.9040   53.5094   30.0821 N   0  0  0  0  0  0
    6.8744   53.6965   27.9394 N   0  0  0  0  0  0
    5.2503   54.0566   21.2141 O   0  0  0  0  0  0
    6.0087   55.0662   20.6745 C   0  0  0  0  0  0
    6.3407   56.0927   21.2814 O   0  0  0  0  0  0
    6.4640   54.7608   19.2785 C   0  0  0  0  0  0
    5.9726   53.6528   18.5661 C   0  0  0  0  0  0
    6.4475   53.3658   17.2894 C   0  0  0  0  0  0
    7.4068   54.1895   16.7073 C   0  0  0  0  0  0
    7.8899   55.3020   17.3913 C   0  0  0  0  0  0
    7.4218   55.5859   18.6708 C   0  0  0  0  0  0
    8.0671   53.7862   14.9690 Br  0  0  0  0  0  0
   -1.4340   52.7979   24.4318 H   0  0  0  0  0  0
   -3.2736   52.9272   24.3172 H   0  0  0  0  0  0
   -3.5310   50.7879   25.4117 H   0  0  0  0  0  0
   -1.5951   49.9716   26.7593 H   0  0  0  0  0  0
   -1.4045   49.3763   25.1398 H   0  0  0  0  0  0
   -1.3330   51.7898   27.9148 H   0  0  0  0  0  0
   -0.4655   53.6044   29.3120 H   0  0  0  0  0  0
    1.6164   54.7512   28.7101 H   0  0  0  0  0  0
    2.0501   52.1438   25.3289 H   0  0  0  0  0  0
    1.8950   54.2994   24.2222 H   0  0  0  0  0  0
    2.7469   54.1712   21.9356 H   0  0  0  0  0  0
    6.7681   54.0558   23.4253 H   0  0  0  0  0  0
    6.8376   53.7558   28.9466 H   0  0  0  0  0  0
    7.7046   53.3002   27.5232 H   0  0  0  0  0  0
    5.2323   52.9860   18.9889 H   0  0  0  0  0  0
    6.0735   52.4982   16.7624 H   0  0  0  0  0  0
    8.6321   55.9391   16.9325 H   0  0  0  0  0  0
    7.8211   56.4477   19.1887 H   0  0  0  0  0  0
  1  2  2  0  0  0
  1 35  1  0  0  0
  1 36  1  0  0  0
  2  3  1  0  0  0
  2 37  1  0  0  0
  3  4  1  0  0  0
  3 38  1  0  0  0
  3 39  1  0  0  0
  4  5  1  0  0  0
  5 10  2  0  0  0
  5  6  1  0  0  0
  6  7  2  0  0  0
  6 40  1  0  0  0
  7  8  1  0  0  0
  7 41  1  0  0  0
  8  9  2  0  0  0
  8 42  1  0  0  0
  9 10  1  0  0  0
  9 11  1  0  0  0
 10 43  1  0  0  0
 11 12  1  0  0  0
 11 21  1  0  0  0
 11 13  1  0  0  0
 13 18  2  0  0  0
 13 14  1  0  0  0
 14 15  2  0  0  0
 14 44  1  0  0  0
 15 16  1  0  0  0
 15 45  1  0  0  0
 16 17  2  0  0  0
 16 25  1  0  0  0
 17 18  1  0  0  0
 17 46  1  0  0  0
 18 19  1  0  0  0
 19 20  1  0  0  0
 20 21  2  0  0  0
 20 24  1  0  0  0
 21 22  1  0  0  0
 22 23  3  0  0  0
 24 47  1  0  0  0
 24 48  1  0  0  0
 25 26  1  0  0  0
 26 27  2  0  0  0
 26 28  1  0  0  0
 28 33  2  0  0  0
 28 29  1  0  0  0
 29 30  2  0  0  0
 29 49  1  0  0  0
 30 31  1  0  0  0
 30 50  1  0  0  0
 31 32  2  0  0  0
 31 34  1  0  0  0
 32 33  1  0  0  0
 32 51  1  0  0  0
 33 52  1  0  0  0
M  END
> <i_i_glide_confnum>
90

> <i_i_glide_lignum>
6011

> <i_i_glide_posenum>
10

> <i_i_glide_rotatable_bonds>
8

> <i_m_Source_File_Index>
3191

> <b_m_subgroup_collapsed>
0

> <r_i_docking_score>
-5.02139

> <r_i_glide_ecoul>
-5.27351

> <r_i_glide_eff_state_penalty>
0

> <r_i_glide_einternal>
7.40015

> <r_i_glide_emodel>
-59.0086

> <r_i_glide_energy>
-50.7366

> <r_i_glide_erotb>
0.564721

> <r_i_glide_esite>
0

> <r_i_glide_evdw>
-45.4631

> <r_i_glide_gscore>
-5.02139

> <r_i_glide_hbond>
-0.225985

> <r_i_glide_ligand_efficiency>
-0.152163

> <r_i_glide_ligand_efficiency_ln>
-1.11673

> <r_i_glide_ligand_efficiency_sa>
-0.488069

> <r_i_glide_lipo>
-3.00059

> <r_i_glide_metal>
0

> <r_i_glide_rewards>
0.704651

> <s_i_glide_gridfile>
wee1_glide-grid

> <s_m_Source_File>
wee1_decoys_glide_SP.sdf

> <s_m_Source_Path>
/Users/zhangxujun/Desktop

> <s_m_entry_id>
3466

> <s_m_entry_name>
wee1_decoys_glide_SP.3191

> <s_m_subgroup_title>
wee1_decoys_glide_SP

> <s_m_subgroupid>
wee1_decoys_glide_SP


$$$$
