ZINC63374180_5363
                    3D
 Schrodinger Suite 2024-2.
 64 69  0  0  1  0            999 V2000
   -0.2982   50.0838   26.4874 C   0  0  0  0  0  0
    0.2558   50.7099   25.2233 C   0  0  0  0  0  0
    0.8708   49.9038   24.2647 C   0  0  0  0  0  0
    1.3827   50.4740   23.1063 C   0  0  0  0  0  0
    1.2594   51.8503   22.8862 C   0  0  0  0  0  0
    0.6610   52.6591   23.8580 C   0  0  0  0  0  0
    0.1634   52.0877   25.0261 C   0  0  0  0  0  0
    1.7660   52.4633   21.5760 C   0  0  1  0  0  0
    1.4899   53.5173   21.6475 H   0  0  0  0  0  0
    3.3159   52.3697   21.4390 C   0  0  1  0  0  0
    3.6510   51.3574   21.6770 H   0  0  0  0  0  0
    3.8000   52.7492   20.0648 C   0  0  0  0  0  0
    4.7705   53.6665   20.1639 C   0  0  0  0  0  0
    5.5814   54.3449   19.1447 C   0  0  0  0  0  0
    6.5272   55.2356   19.5081 C   0  0  0  0  0  0
    6.7145   55.4961   20.9293 C   0  0  0  0  0  0
    5.9513   54.8953   21.8801 C   0  0  0  0  0  0
    4.9605   53.9730   21.5147 C   0  0  0  0  0  0
    4.1172   53.2979   22.2671 N   0  3  0  0  0  0
    3.1073   52.0616   18.9170 C   0  0  0  0  0  0
    1.5899   52.3622   19.0253 C   0  0  2  0  0  0
    1.3822   53.4064   18.8023 H   0  0  0  0  0  0
    1.0696   51.9995   20.3312 N   0  0  0  0  0  0
   -0.1047   51.3336   20.2216 C   0  0  0  0  0  0
   -0.9346   51.1191   21.1055 O   0  0  0  0  0  0
   -0.1791   50.9228   18.9256 N   0  0  0  0  0  0
    0.7403   51.5039   18.1247 C   0  0  0  0  0  0
    0.8881   51.3775   16.9089 O   0  0  0  0  0  0
   -1.1380   50.0024   18.4516 C   0  0  0  0  0  0
   -0.8217   48.6388   18.5163 C   0  0  0  0  0  0
   -1.7048   47.6841   18.0151 C   0  0  0  0  0  0
   -2.9093   48.0808   17.4398 C   0  0  0  0  0  0
   -3.2368   49.4342   17.3669 C   0  0  0  0  0  0
   -2.3665   50.4100   17.8787 C   0  0  0  0  0  0
   -2.7671   51.8575   17.8336 C   0  0  0  0  0  0
   -2.8911   52.4998   18.8769 O   0  0  0  0  0  0
   -2.9017   52.3702   16.5992 N   0  0  0  0  0  0
   -2.9942   53.7991   16.3084 C   0  0  0  0  0  0
   -1.6516   54.5026   16.4087 C   0  0  0  0  0  0
   -1.3556   55.4810   17.2800 C   0  0  0  0  0  0
   -1.3174   49.7278   26.3284 H   0  0  0  0  0  0
    0.3052   49.2307   26.8015 H   0  0  0  0  0  0
   -0.2978   50.7882   27.3211 H   0  0  0  0  0  0
    0.9613   48.8378   24.4208 H   0  0  0  0  0  0
    1.8449   49.8389   22.3632 H   0  0  0  0  0  0
    0.5607   53.7241   23.7056 H   0  0  0  0  0  0
   -0.3102   52.7116   25.7704 H   0  0  0  0  0  0
    5.4441   54.1462   18.0922 H   0  0  0  0  0  0
    7.1284   55.7378   18.7650 H   0  0  0  0  0  0
    7.4968   56.1715   21.2390 H   0  0  0  0  0  0
    6.1463   55.1217   22.9175 H   0  0  0  0  0  0
    3.4938   52.3958   17.9540 H   0  0  0  0  0  0
    3.2967   50.9848   18.9454 H   0  0  0  0  0  0
    0.1180   48.3143   18.9430 H   0  0  0  0  0  0
   -1.4528   46.6326   18.0680 H   0  0  0  0  0  0
   -3.5938   47.3408   17.0501 H   0  0  0  0  0  0
   -4.1825   49.7207   16.9264 H   0  0  0  0  0  0
   -2.7620   51.7547   15.8117 H   0  0  0  0  0  0
   -3.3261   53.8948   15.2731 H   0  0  0  0  0  0
   -3.7637   54.2836   16.9125 H   0  0  0  0  0  0
   -0.8895   54.1687   15.7173 H   0  0  0  0  0  0
   -2.0804   55.8432   17.9936 H   0  0  0  0  0  0
   -0.3727   55.9333   17.2936 H   0  0  0  0  0  0
    4.0491   53.3544   23.2805 H   0  0  0  0  0  0
  1  2  1  0  0  0
  1 41  1  0  0  0
  1 42  1  0  0  0
  1 43  1  0  0  0
  2  7  2  0  0  0
  2  3  1  0  0  0
  3  4  2  0  0  0
  3 44  1  0  0  0
  4  5  1  0  0  0
  4 45  1  0  0  0
  5  6  2  0  0  0
  5  8  1  0  0  0
  6  7  1  0  0  0
  6 46  1  0  0  0
  7 47  1  0  0  0
  8  9  1  0  0  0
  8 23  1  0  0  0
  8 10  1  0  0  0
 10 11  1  0  0  0
 10 19  1  0  0  0
 10 12  1  0  0  0
 12 13  2  0  0  0
 12 20  1  0  0  0
 13 18  1  0  0  0
 13 14  1  0  0  0
 14 15  2  0  0  0
 14 48  1  0  0  0
 15 16  1  0  0  0
 15 49  1  0  0  0
 16 17  2  0  0  0
 16 50  1  0  0  0
 17 18  1  0  0  0
 17 51  1  0  0  0
 18 19  2  0  0  0
 19 64  1  0  0  0
 20 21  1  0  0  0
 20 52  1  0  0  0
 20 53  1  0  0  0
 21 22  1  0  0  0
 21 27  1  0  0  0
 21 23  1  0  0  0
 23 24  1  0  0  0
 24 25  2  0  0  0
 24 26  1  0  0  0
 26 27  1  0  0  0
 26 29  1  0  0  0
 27 28  2  0  0  0
 29 34  2  0  0  0
 29 30  1  0  0  0
 30 31  2  0  0  0
 30 54  1  0  0  0
 31 32  1  0  0  0
 31 55  1  0  0  0
 32 33  2  0  0  0
 32 56  1  0  0  0
 33 34  1  0  0  0
 33 57  1  0  0  0
 34 35  1  0  0  0
 35 36  2  0  0  0
 35 37  1  0  0  0
 37 38  1  0  0  0
 37 58  1  0  0  0
 38 39  1  0  0  0
 38 59  1  0  0  0
 38 60  1  0  0  0
 39 40  2  0  0  0
 39 61  1  0  0  0
 40 62  1  0  0  0
 40 63  1  0  0  0
M  CHG  1  19   1
M  END
> <i_i_glide_confnum>
40

> <i_i_glide_lignum>
5364

> <i_i_glide_posenum>
50

> <i_i_glide_rotatable_bonds>
6

> <i_m_Source_File_Index>
844

> <b_m_subgroup_collapsed>
0

> <r_i_docking_score>
-3.73201

> <r_i_glide_ecoul>
-6.88417

> <r_i_glide_eff_state_penalty>
0

> <r_i_glide_einternal>
0.870075

> <r_i_glide_emodel>
-49.9624

> <r_i_glide_energy>
-40.5993

> <r_i_glide_erotb>
0.505524

> <r_i_glide_esite>
-0.0568002

> <r_i_glide_evdw>
-33.7151

> <r_i_glide_gscore>
-3.73201

> <r_i_glide_hbond>
-0.32

> <r_i_glide_ligand_efficiency>
-0.100865

> <r_i_glide_ligand_efficiency_ln>
-0.809385

> <r_i_glide_ligand_efficiency_sa>
-0.336105

> <r_i_glide_lipo>
-1.09049

> <r_i_glide_metal>
0

> <r_i_glide_rewards>
-0.0518579

> <s_i_glide_gridfile>
wee1_glide-grid

> <s_m_Source_File>
wee1_decoys_glide_SP.sdf

> <s_m_Source_Path>
/Users/zhangxujun/Desktop

> <s_m_entry_id>
1119

> <s_m_entry_name>
wee1_decoys_glide_SP.844

> <s_m_subgroup_title>
wee1_decoys_glide_SP

> <s_m_subgroupid>
wee1_decoys_glide_SP


$$$$
