@<TRIPOS>MOLECULE
ZINC36618847_4963
60   64    1
SMALL
USER_CHARGES


@<TRIPOS>ATOM
      1 C1          0.4308   54.0011   29.6965 C.3       1 UNK         0.0000 
      2 C2          1.3265   54.9977   28.9319 C.3       1 UNK         0.0000 
      3 C3          1.6210   56.2337   29.8030 C.3       1 UNK         0.0000 
      4 C4          2.6334   54.3334   28.4062 C.3       1 UNK         0.0000 
      5 C5          2.6458   53.9943   26.9139 C.ar      1 UNK         0.0000 
      6 C6          3.7267   54.3928   26.1253 C.ar      1 UNK         0.0000 
      7 C7          3.7513   54.0906   24.7663 C.ar      1 UNK         0.0000 
      8 C8          2.7038   53.3731   24.1620 C.ar      1 UNK         0.0000 
      9 C9          1.6109   53.0194   24.9559 C.ar      1 UNK         0.0000 
     10 C10         1.5904   53.2967   26.3212 C.ar      1 UNK         0.0000 
     11 C11         2.8051   52.9984   22.6987 C.ar      1 UNK         0.0000 
     12 C12         2.3585   51.8399   21.9705 C.ar      1 UNK         0.0000 
     13 C13         2.9040   52.0510   20.7163 C.ar      1 UNK         0.0000 
     14 N14         3.5911   53.2157   20.7269 N.pl3     1 UNK         0.0000 
     15 H15         4.0798   53.6147   19.9390 H         1 UNK         0.0000 
     16 N16         3.5294   53.7963   21.9211 N.2       1 UNK         0.0000 
     17 O17         2.8361   51.2655   19.5977 O.3       1 UNK         0.0000 
     18 C18         1.9851   50.2140   19.7157 C.2       1 UNK         0.0000 
     19 C19         1.3278   49.8363   20.8415 C.2       1 UNK         0.0000 
     20 C20         1.5338   50.5469   22.2055 C.3       1 UNK         0.0000 
     21 H21         2.1682   49.8718   22.7831 H         1 UNK         0.0000 
     22 C22         0.2297   50.7032   22.9960 C.ar      1 UNK         0.0000 
     23 C23         0.1053   50.0587   24.2364 C.ar      1 UNK         0.0000 
     24 C24        -1.0374   50.2317   25.0149 C.ar      1 UNK         0.0000 
     25 C25        -2.0698   51.0487   24.5609 C.ar      1 UNK         0.0000 
     26 C26        -1.9735   51.6674   23.3151 C.ar      1 UNK         0.0000 
     27 C27        -0.8433   51.4748   22.5044 C.ar      1 UNK         0.0000 
     28 O28        -0.7622   52.0261   21.2368 O.3       1 UNK         0.0000 
     29 C29        -1.6863   51.6954   20.2776 C.2       1 UNK         0.0000 
     30 O30        -2.7748   51.1498   20.4767 O.2       1 UNK         0.0000 
     31 C31        -1.2359   52.0972   18.9491 C.2       1 UNK         0.0000 
     32 C32        -0.0700   52.6975   18.4818 C.2       1 UNK         0.0000 
     33 C33        -0.2069   52.8338   17.1003 C.2       1 UNK         0.0000 
     34 C34        -1.4499   52.3148   16.7805 C.2       1 UNK         0.0000 
     35 O35        -2.0750   51.8713   17.9016 O.3       1 UNK         0.0000 
     36 C36         0.3492   48.7974   20.7509 C.1       1 UNK         0.0000 
     37 N37        -0.4855   48.0015   20.6440 N.1       1 UNK         0.0000 
     38 N38         1.9044   49.6240   18.4821 N.pl3     1 UNK         0.0000 
     39 H39         0.9378   53.6047   30.5772 H         1 UNK         0.0000 
     40 H40         0.1448   53.1522   29.0765 H         1 UNK         0.0000 
     41 H41        -0.4905   54.4723   30.0410 H         1 UNK         0.0000 
     42 H42         0.7502   55.3643   28.0816 H         1 UNK         0.0000 
     43 H43         2.1760   55.9681   30.7004 H         1 UNK         0.0000 
     44 H44         2.2094   56.9696   29.2559 H         1 UNK         0.0000 
     45 H45         0.7042   56.7282   30.1229 H         1 UNK         0.0000 
     46 H46         3.4809   54.9896   28.6106 H         1 UNK         0.0000 
     47 H47         2.8536   53.4208   28.9618 H         1 UNK         0.0000 
     48 H48         4.5551   54.9318   26.5613 H         1 UNK         0.0000 
     49 H49         4.6140   54.3928   24.1906 H         1 UNK         0.0000 
     50 H50         0.7514   52.5468   24.5273 H         1 UNK         0.0000 
     51 H51         0.7356   52.9892   26.9033 H         1 UNK         0.0000 
     52 H52         0.9043   49.4374   24.6171 H         1 UNK         0.0000 
     53 H53        -1.1176   49.7384   25.9748 H         1 UNK         0.0000 
     54 H54        -2.9520   51.1881   25.1685 H         1 UNK         0.0000 
     55 H55        -2.7927   52.2773   22.9643 H         1 UNK         0.0000 
     56 H56         0.7804   53.0020   19.0758 H         1 UNK         0.0000 
     57 H57         0.5153   53.2567   16.4168 H         1 UNK         0.0000 
     58 H58        -1.9931   52.1978   15.8537 H         1 UNK         0.0000 
     59 H59         1.2582   48.8679   18.3175 H         1 UNK         0.0000 
     60 H60         2.6896   49.6969   17.8396 H         1 UNK         0.0000 
@<TRIPOS>BOND
     1    1    2 1    
     2    1   39 1    
     3    1   40 1    
     4    1   41 1    
     5    2    3 1    
     6    2    4 1    
     7    2   42 1    
     8    3   43 1    
     9    3   44 1    
    10    3   45 1    
    11    4    5 1    
    12    4   46 1    
    13    4   47 1    
    14    5   10 ar   
    15    5    6 ar   
    16    6    7 ar   
    17    6   48 1    
    18    7    8 ar   
    19    7   49 1    
    20    8    9 ar   
    21    8   11 1    
    22    9   10 ar   
    23    9   50 1    
    24   10   51 1    
    25   11   16 ar   
    26   11   12 ar   
    27   12   20 1    
    28   12   13 ar   
    29   13   14 ar   
    30   13   17 1    
    31   14   15 1    
    32   14   16 ar   
    33   17   18 1    
    34   18   19 2    
    35   18   38 1    
    36   19   20 1    
    37   19   36 1    
    38   20   21 1    
    39   20   22 1    
    40   22   27 ar   
    41   22   23 ar   
    42   23   24 ar   
    43   23   52 1    
    44   24   25 ar   
    45   24   53 1    
    46   25   26 ar   
    47   25   54 1    
    48   26   27 ar   
    49   26   55 1    
    50   27   28 1    
    51   28   29 1    
    52   29   30 2    
    53   29   31 1    
    54   31   35 1    
    55   31   32 2    
    56   32   33 1    
    57   32   56 1    
    58   33   34 2    
    59   33   57 1    
    60   34   35 1    
    61   34   58 1    
    62   36   37 3    
    63   38   59 1    
    64   38   60 1    
@<TRIPOS>SUBSTRUCTURE
     1 UNK         1 GROUP             0       ****    0 ROOT    
