@<TRIPOS>MOLECULE
ZINC49541798_4743
29   31    1
SMALL
USER_CHARGES


@<TRIPOS>ATOM
      1 C1          0.3708   53.5946   30.3173 C.ar      1 UNK         0.0000 
      2 C2          1.7101   53.6714   29.9619 C.ar      1 UNK         0.0000 
      3 C3          2.3365   52.6582   30.6994 C.ar      1 UNK         0.0000 
      4 N4          1.5039   52.0967   31.5394 N.2       1 UNK         0.0000 
      5 N5          0.3054   52.6277   31.2817 N.pl3     1 UNK         0.0000 
      6 N6          3.6451   52.2891   30.7021 N.pl3     1 UNK         0.0000 
      7 S7          2.4843   54.8966   28.8821 S.o2      1 UNK         0.0000 
      8 O8          3.8898   54.8965   29.3092 O.2       1 UNK         0.0000 
      9 O9          1.7194   56.1079   29.1936 O.2       1 UNK         0.0000 
     10 N10         2.0936   54.0969   27.3631 N.2       1 UNK         0.0000 
     11 C11         3.0029   54.0966   26.4746 C.2       1 UNK         0.0000 
     12 N12         4.3295   54.4962   26.5473 N.pl3     1 UNK         0.0000 
     13 C13         5.0247   54.5044   25.3711 C.2       1 UNK         0.0000 
     14 C14         4.3372   54.0969   24.3096 C.2       1 UNK         0.0000 
     15 S15         2.7035   53.6222   24.7607 S.3       1 UNK         0.0000 
     16 C16         5.1784   54.0481   23.0567 C.3       1 UNK         0.0000 
     17 C17         6.5878   54.3120   23.6120 C.3       1 UNK         0.0000 
     18 C18         6.4596   54.8357   25.0513 C.3       1 UNK         0.0000 
     19 H19        -0.4956   54.1624   30.0241 H         1 UNK         0.0000 
     20 H20         4.3107   52.7862   30.1252 H         1 UNK         0.0000 
     21 H21         4.0173   51.6975   31.4293 H         1 UNK         0.0000 
     22 H22         4.8624   54.8294   22.3644 H         1 UNK         0.0000 
     23 H23         5.1182   53.0912   22.5368 H         1 UNK         0.0000 
     24 H24         7.1432   55.0069   22.9809 H         1 UNK         0.0000 
     25 H25         7.1606   53.3828   23.6130 H         1 UNK         0.0000 
     26 H26         7.1643   54.3479   25.7244 H         1 UNK         0.0000 
     27 H27         6.6153   55.9137   25.1062 H         1 UNK         0.0000 
     28 H28         4.7283   54.7666   27.4378 H         1 UNK         0.0000 
     29 H29        -0.5254   52.3551   31.8126 H         1 UNK         0.0000 
@<TRIPOS>BOND
     1    1   19 1    
     2    1    2 ar   
     3    1    5 ar   
     4    2    7 1    
     5    2    3 ar   
     6    3    6 1    
     7    3    4 ar   
     8    4    5 ar   
     9    5   29 1    
    10    6   20 1    
    11    6   21 1    
    12    7    8 2    
    13    7    9 2    
    14    7   10 1    
    15   10   11 2    
    16   11   15 1    
    17   11   12 1    
    18   12   13 1    
    19   12   28 1    
    20   13   18 1    
    21   13   14 2    
    22   14   15 1    
    23   14   16 1    
    24   16   17 1    
    25   16   22 1    
    26   16   23 1    
    27   17   18 1    
    28   17   24 1    
    29   17   25 1    
    30   18   26 1    
    31   18   27 1    
@<TRIPOS>SUBSTRUCTURE
     1 UNK         1 GROUP             0       ****    0 ROOT    
