ZINC67263921_1415
                    3D
 Schrodinger Suite 2024-2.
 55 56  0  0  1  0            999 V2000
   -0.7311   52.7576   28.2688 C   0  0  0  0  0  0
    0.7675   52.4504   28.3181 C   0  0  0  0  0  0
    0.9880   51.3339   29.3554 C   0  0  0  0  0  0
    1.1612   51.8466   26.9501 C   0  0  0  0  0  0
    1.5453   53.7092   28.8547 C   0  0  0  0  0  0
    1.1028   54.2413   29.8805 O   0  0  0  0  0  0
    2.7241   54.1330   28.3256 N   0  0  0  0  0  0
    3.6389   54.9430   29.1366 C   0  0  0  0  0  0
    5.1014   54.4398   29.0568 C   0  0  0  0  0  0
    5.9284   54.7106   27.7788 C   0  0  0  0  0  0
    5.4512   54.1799   26.4818 N   0  0  0  0  0  0
    4.1890   53.4180   26.4577 C   0  0  0  0  0  0
    2.9695   54.2438   26.8905 C   0  0  0  0  0  0
    6.1094   54.5668   25.3478 C   0  0  0  0  0  0
    7.1036   55.2954   25.3939 O   0  0  0  0  0  0
    5.5851   54.0969   24.1883 N   0  0  0  0  0  0
    5.8244   54.4817   22.8571 C   0  0  0  0  0  0
    6.8861   55.2969   22.4507 C   0  0  0  0  0  0
    6.9912   55.7039   21.1278 C   0  0  0  0  0  0
    6.0099   55.3344   20.2037 C   0  0  0  0  0  0
    4.9891   54.4628   20.5837 C   0  0  0  0  0  0
    4.8991   54.0367   21.9081 C   0  0  0  0  0  0
    5.9950   55.8444   18.8987 N   0  0  0  0  0  0
    6.3006   57.1520   18.5369 C   0  0  0  0  0  0
    6.7059   58.0442   19.2882 O   0  0  0  0  0  0
    6.0460   57.3138   17.2268 O   0  0  0  0  0  0
    6.1359   58.6042   16.6327 C   0  0  0  0  0  0
   -1.3083   51.9473   27.8192 H   0  0  0  0  0  0
   -0.8982   53.6603   27.6819 H   0  0  0  0  0  0
   -1.1214   52.8966   29.2794 H   0  0  0  0  0  0
    1.9861   50.9008   29.2810 H   0  0  0  0  0  0
    0.8563   51.6965   30.3789 H   0  0  0  0  0  0
    0.2619   50.5338   29.2164 H   0  0  0  0  0  0
    2.2309   51.6973   26.8826 H   0  0  0  0  0  0
    0.7095   50.8624   26.8082 H   0  0  0  0  0  0
    0.8209   52.4462   26.1060 H   0  0  0  0  0  0
    3.5087   55.9914   28.8629 H   0  0  0  0  0  0
    3.3703   54.8848   30.1904 H   0  0  0  0  0  0
    5.6469   54.9252   29.8640 H   0  0  0  0  0  0
    5.1346   53.3733   29.2816 H   0  0  0  0  0  0
    5.9959   55.7886   27.6786 H   0  0  0  0  0  0
    6.9510   54.3645   27.9407 H   0  0  0  0  0  0
    4.3064   52.5902   27.1589 H   0  0  0  0  0  0
    3.9780   52.9010   25.5221 H   0  0  0  0  0  0
    2.1067   54.0064   26.2772 H   0  0  0  0  0  0
    3.1449   55.2920   26.6404 H   0  0  0  0  0  0
    4.8036   53.4710   24.2972 H   0  0  0  0  0  0
    7.6191   55.6669   23.1427 H   0  0  0  0  0  0
    7.8133   56.3413   20.8391 H   0  0  0  0  0  0
    4.2335   54.1544   19.8742 H   0  0  0  0  0  0
    4.0759   53.3983   22.1951 H   0  0  0  0  0  0
    5.5791   55.2699   18.1812 H   0  0  0  0  0  0
    5.9135   58.5400   15.5679 H   0  0  0  0  0  0
    5.4223   59.2963   17.0846 H   0  0  0  0  0  0
    7.1368   59.0245   16.7457 H   0  0  0  0  0  0
  1  2  1  0  0  0
  1 28  1  0  0  0
  1 29  1  0  0  0
  1 30  1  0  0  0
  2  3  1  0  0  0
  2  4  1  0  0  0
  2  5  1  0  0  0
  3 31  1  0  0  0
  3 32  1  0  0  0
  3 33  1  0  0  0
  4 34  1  0  0  0
  4 35  1  0  0  0
  4 36  1  0  0  0
  5  6  2  0  0  0
  5  7  1  0  0  0
  7 13  1  0  0  0
  7  8  1  0  0  0
  8  9  1  0  0  0
  8 37  1  0  0  0
  8 38  1  0  0  0
  9 10  1  0  0  0
  9 39  1  0  0  0
  9 40  1  0  0  0
 10 11  1  0  0  0
 10 41  1  0  0  0
 10 42  1  0  0  0
 11 12  1  0  0  0
 11 14  1  0  0  0
 12 13  1  0  0  0
 12 43  1  0  0  0
 12 44  1  0  0  0
 13 45  1  0  0  0
 13 46  1  0  0  0
 14 15  2  0  0  0
 14 16  1  0  0  0
 16 17  1  0  0  0
 16 47  1  0  0  0
 17 22  2  0  0  0
 17 18  1  0  0  0
 18 19  2  0  0  0
 18 48  1  0  0  0
 19 20  1  0  0  0
 19 49  1  0  0  0
 20 21  2  0  0  0
 20 23  1  0  0  0
 21 22  1  0  0  0
 21 50  1  0  0  0
 22 51  1  0  0  0
 23 24  1  0  0  0
 23 52  1  0  0  0
 24 25  2  0  0  0
 24 26  1  0  0  0
 26 27  1  0  0  0
 27 53  1  0  0  0
 27 54  1  0  0  0
 27 55  1  0  0  0
M  END
> <i_i_glide_confnum>
13

> <i_i_glide_lignum>
1416

> <i_i_glide_posenum>
388

> <i_i_glide_rotatable_bonds>
8

> <i_m_Source_File_Index>
2560

> <b_m_subgroup_collapsed>
0

> <r_i_docking_score>
-6.24999

> <r_i_glide_ecoul>
-7.50312

> <r_i_glide_eff_state_penalty>
0

> <r_i_glide_einternal>
9.69341

> <r_i_glide_emodel>
-53.082

> <r_i_glide_energy>
-44.1604

> <r_i_glide_erotb>
0.819582

> <r_i_glide_esite>
0

> <r_i_glide_evdw>
-36.6573

> <r_i_glide_gscore>
-6.24999

> <r_i_glide_hbond>
-0.477207

> <r_i_glide_ligand_efficiency>
-0.231481

> <r_i_glide_ligand_efficiency_ln>
-1.45489

> <r_i_glide_ligand_efficiency_sa>
-0.694443

> <r_i_glide_lipo>
-1.98388

> <r_i_glide_metal>
0

> <r_i_glide_rewards>
-1.65016

> <s_i_glide_gridfile>
wee1_glide-grid

> <s_m_Source_File>
wee1_decoys_glide_SP.sdf

> <s_m_Source_Path>
/Users/zhangxujun/Desktop

> <s_m_entry_id>
2835

> <s_m_entry_name>
wee1_decoys_glide_SP.2560

> <s_m_subgroup_title>
wee1_decoys_glide_SP

> <s_m_subgroupid>
wee1_decoys_glide_SP


$$$$
