@<TRIPOS>MOLECULE
ZINC39673281_641
69   72    1
SMALL
USER_CHARGES


@<TRIPOS>ATOM
      1 C1          3.5816   54.7359   16.4235 C.ar      1 UNK         0.0000 
      2 C2          2.5328   55.6034   16.1391 C.ar      1 UNK         0.0000 
      3 C3          2.6921   56.9833   16.3266 C.ar      1 UNK         0.0000 
      4 C4          3.9156   57.4782   16.7776 C.ar      1 UNK         0.0000 
      5 C5          4.9611   56.6097   17.0792 C.ar      1 UNK         0.0000 
      6 C6          4.7912   55.2327   16.9165 C.ar      1 UNK         0.0000 
      7 C7          5.9073   54.2639   17.3088 C.3       1 UNK         0.0000 
      8 N8          5.5148   53.2967   18.3383 N.am      1 UNK         0.0000 
      9 C9          5.1043   53.6228   19.5737 C.2       1 UNK         0.0000 
     10 O10         5.1731   54.7721   20.0130 O.2       1 UNK         0.0000 
     11 C11         4.6461   52.4536   20.4815 C.3       1 UNK         0.0000 
     12 H12         5.0643   51.5320   20.0817 H         1 UNK         0.0000 
     13 C13         5.0844   52.6718   21.9483 C.3       1 UNK         0.0000 
     14 N14         3.9324   53.3256   22.5718 N.am      1 UNK         0.0000 
     15 C15         2.7522   53.2960   21.7103 C.3       1 UNK         0.0000 
     16 C16         3.0836   52.3408   20.5456 C.3       1 UNK         0.0000 
     17 C17         2.2243   52.6717   19.2866 C.3       1 UNK         0.0000 
     18 C18         2.4882   51.7039   18.1148 C.3       1 UNK         0.0000 
     19 N19         2.2129   50.2529   18.5540 N.4       1 UNK         0.0000 
     20 C20         2.8511   49.8482   19.9017 C.3       1 UNK         0.0000 
     21 C21         2.5811   50.9291   20.9726 C.3       1 UNK         0.0000 
     22 C22         3.9831   54.0961   23.6849 C.2       1 UNK         0.0000 
     23 O23         2.9820   54.6702   24.1152 O.2       1 UNK         0.0000 
     24 C24         5.3296   54.2355   24.4319 C.3       1 UNK         0.0000 
     25 C25         5.2727   54.7942   25.8772 C.3       1 UNK         0.0000 
     26 C26         4.8137   53.7894   26.9598 C.3       1 UNK         0.0000 
     27 C27         5.1364   54.2410   28.3925 C.3       1 UNK         0.0000 
     28 C28         4.2021   53.4376   29.3056 C.3       1 UNK         0.0000 
     29 C29         3.0048   53.0220   28.4381 C.3       1 UNK         0.0000 
     30 C30         3.2987   53.5402   27.0253 C.3       1 UNK         0.0000 
     31 O31         1.7038   57.9126   16.0804 O.3       1 UNK         0.0000 
     32 C32         0.3323   57.5259   16.1371 C.3       1 UNK         0.0000 
     33 F33        -0.0417   56.8161   15.0715 F         1 UNK         0.0000 
     34 F34         0.0046   56.8971   17.2693 F         1 UNK         0.0000 
     35 H35         3.4501   53.6744   16.2798 H         1 UNK         0.0000 
     36 H36         1.6045   55.1915   15.7760 H         1 UNK         0.0000 
     37 H37         4.0460   58.5446   16.9076 H         1 UNK         0.0000 
     38 H38         5.8908   57.0102   17.4550 H         1 UNK         0.0000 
     39 H39         6.7977   54.8029   17.6347 H         1 UNK         0.0000 
     40 H40         6.2055   53.7079   16.4192 H         1 UNK         0.0000 
     41 H41         5.5105   52.3121   18.0815 H         1 UNK         0.0000 
     42 H42         5.9992   53.2611   21.9940 H         1 UNK         0.0000 
     43 H43         5.2638   51.6856   22.3720 H         1 UNK         0.0000 
     44 H44         1.7878   53.1314   22.1968 H         1 UNK         0.0000 
     45 H45         2.7045   54.3002   21.2966 H         1 UNK         0.0000 
     46 H46         1.1611   52.6841   19.5338 H         1 UNK         0.0000 
     47 H47         2.4332   53.6866   18.9377 H         1 UNK         0.0000 
     48 H48         1.8369   51.8924   17.2612 H         1 UNK         0.0000 
     49 H49         3.5157   51.6999   17.7679 H         1 UNK         0.0000 
     50 H50         1.2150   50.0975   18.5919 H         1 UNK         0.0000 
     51 H51         2.4288   48.8768   20.1654 H         1 UNK         0.0000 
     52 H52         3.9032   49.7136   19.6812 H         1 UNK         0.0000 
     53 H53         3.0644   50.6253   21.9029 H         1 UNK         0.0000 
     54 H54         1.5151   50.9514   21.2142 H         1 UNK         0.0000 
     55 H55         5.9153   54.9324   23.8294 H         1 UNK         0.0000 
     56 H56         5.8789   53.2967   24.4324 H         1 UNK         0.0000 
     57 H57         4.6642   55.6967   25.9156 H         1 UNK         0.0000 
     58 H58         6.2802   55.1236   26.1365 H         1 UNK         0.0000 
     59 H59         5.3039   52.8242   26.8280 H         1 UNK         0.0000 
     60 H60         4.8834   55.2966   28.5031 H         1 UNK         0.0000 
     61 H61         6.1940   54.1525   28.6394 H         1 UNK         0.0000 
     62 H62         3.8973   54.0221   30.1742 H         1 UNK         0.0000 
     63 H63         4.7110   52.5481   29.6789 H         1 UNK         0.0000 
     64 H64         2.0668   53.4231   28.8230 H         1 UNK         0.0000 
     65 H65         2.9079   51.9368   28.4272 H         1 UNK         0.0000 
     66 H66         2.9317   52.8958   26.2270 H         1 UNK         0.0000 
     67 H67         2.7741   54.4916   26.9104 H         1 UNK         0.0000 
     68 H68        -0.2691   58.4356   16.1174 H         1 UNK         0.0000 
     69 H69         2.5890   49.6459   17.8278 H         1 UNK         0.0000 
@<TRIPOS>BOND
     1    1    6 ar   
     2    1    2 ar   
     3    1   35 1    
     4    2    3 ar   
     5    2   36 1    
     6    3    4 ar   
     7    3   31 1    
     8    4    5 ar   
     9    4   37 1    
    10    5    6 ar   
    11    5   38 1    
    12    6    7 1    
    13    7    8 1    
    14    7   39 1    
    15    7   40 1    
    16    8    9 am   BACKBONE|DICT|INTERRES
    17    8   41 1    
    18    9   10 2    
    19    9   11 1    
    20   11   12 1    
    21   11   16 1    
    22   11   13 1    
    23   13   14 1    
    24   13   42 1    
    25   13   43 1    
    26   14   15 1    
    27   14   22 am   BACKBONE|DICT|INTERRES
    28   15   16 1    
    29   15   44 1    
    30   15   45 1    
    31   16   21 1    
    32   16   17 1    
    33   17   18 1    
    34   17   46 1    
    35   17   47 1    
    36   18   19 1    
    37   18   48 1    
    38   18   49 1    
    39   19   20 1    
    40   19   50 1    
    41   19   69 1    
    42   20   21 1    
    43   20   51 1    
    44   20   52 1    
    45   21   53 1    
    46   21   54 1    
    47   22   23 2    
    48   22   24 1    
    49   24   25 1    
    50   24   55 1    
    51   24   56 1    
    52   25   26 1    
    53   25   57 1    
    54   25   58 1    
    55   26   30 1    
    56   26   27 1    
    57   26   59 1    
    58   27   28 1    
    59   27   60 1    
    60   27   61 1    
    61   28   29 1    
    62   28   62 1    
    63   28   63 1    
    64   29   30 1    
    65   29   64 1    
    66   29   65 1    
    67   30   66 1    
    68   30   67 1    
    69   31   32 1    
    70   32   33 1    
    71   32   34 1    
    72   32   68 1    
@<TRIPOS>SUBSTRUCTURE
     1 UNK         1 GROUP             0       ****    0 ROOT    
