ZINC02501741_2387
                    3D
 Schrodinger Suite 2024-2.
 50 53  0  0  1  0            999 V2000
    6.5847   54.7177   27.2085 C   0  0  0  0  0  0
    5.2479   54.1482   27.5985 C   0  0  0  0  0  0
    3.9859   54.4421   27.1272 C   0  0  0  0  0  0
    2.9567   53.5728   27.5335 C   0  0  0  0  0  0
    3.4170   52.7241   28.5437 C   0  0  0  0  0  0
    5.1044   52.9376   28.8056 S   0  0  0  0  0  0
    2.7159   51.6966   29.3825 C   0  0  0  0  0  0
    1.5311   53.6314   26.9680 C   0  0  2  0  0  0
    1.3485   54.6955   26.8817 H   0  0  0  0  0  0
    0.4413   53.1709   27.9407 C   0  0  0  0  0  0
   -0.4315   52.1879   27.6305 C   0  0  0  0  0  0
   -0.4946   51.6174   26.3473 N   0  0  0  0  0  0
    0.4019   52.0093   25.3313 C   0  0  0  0  0  0
    1.3456   52.9805   25.5593 C   0  0  0  0  0  0
    2.1402   53.5419   24.4250 C   0  0  0  0  0  0
    2.7252   54.6162   24.4763 O   0  0  0  0  0  0
    2.0537   52.8301   23.0747 C   0  0  0  0  0  0
    0.6136   52.4062   22.8235 C   0  0  0  0  0  0
    0.1783   51.4252   23.9099 C   0  0  0  0  0  0
   -1.5728   50.7508   26.0019 C   0  0  0  0  0  0
   -1.3063   49.4111   25.6817 C   0  0  0  0  0  0
   -2.3271   48.5393   25.2806 C   0  0  0  0  0  0
   -3.6389   49.0206   25.2174 C   0  0  0  0  0  0
   -3.9152   50.3559   25.4973 C   0  0  0  0  0  0
   -2.8911   51.2298   25.8653 C   0  0  0  0  0  0
   -3.2894   52.8993   26.0994 Cl  0  0  0  0  0  0
   -2.0160   47.1413   24.9168 N   0  3  0  0  0  0
   -0.8957   46.8967   24.4817 O   0  0  0  0  0  0
   -2.9002   46.2922   25.0144 O   0  5  0  0  0  0
   -1.2965   51.6831   28.5769 N   0  0  0  0  0  0
    0.4228   53.7717   29.2401 C   0  0  0  0  0  0
    0.4185   54.2480   30.2953 N   0  0  0  0  0  0
    6.4934   55.6610   26.6718 H   0  0  0  0  0  0
    7.1267   54.0264   26.5653 H   0  0  0  0  0  0
    7.2080   54.8951   28.0812 H   0  0  0  0  0  0
    3.8397   55.2439   26.4215 H   0  0  0  0  0  0
    1.9155   51.1814   28.8534 H   0  0  0  0  0  0
    3.4162   50.9174   29.6804 H   0  0  0  0  0  0
    2.3061   52.1177   30.2999 H   0  0  0  0  0  0
    2.7041   51.9562   23.1122 H   0  0  0  0  0  0
    2.4397   53.4812   22.2894 H   0  0  0  0  0  0
    0.5039   51.9673   21.8306 H   0  0  0  0  0  0
   -0.0358   53.2819   22.8632 H   0  0  0  0  0  0
    0.6153   50.4307   23.8035 H   0  0  0  0  0  0
   -0.8833   51.3212   23.6860 H   0  0  0  0  0  0
   -0.2932   49.0434   25.7679 H   0  0  0  0  0  0
   -4.4479   48.3652   24.9254 H   0  0  0  0  0  0
   -4.9282   50.7211   25.4107 H   0  0  0  0  0  0
   -1.2757   52.0440   29.5192 H   0  0  0  0  0  0
   -1.6396   50.7329   28.4826 H   0  0  0  0  0  0
  1  2  1  0  0  0
  1 33  1  0  0  0
  1 34  1  0  0  0
  1 35  1  0  0  0
  2  6  1  0  0  0
  2  3  2  0  0  0
  3  4  1  0  0  0
  3 36  1  0  0  0
  4  5  2  0  0  0
  4  8  1  0  0  0
  5  6  1  0  0  0
  5  7  1  0  0  0
  7 37  1  0  0  0
  7 38  1  0  0  0
  7 39  1  0  0  0
  8  9  1  0  0  0
  8 14  1  0  0  0
  8 10  1  0  0  0
 10 11  2  0  0  0
 10 31  1  0  0  0
 11 12  1  0  0  0
 11 30  1  0  0  0
 12 13  1  0  0  0
 12 20  1  0  0  0
 13 19  1  0  0  0
 13 14  2  0  0  0
 14 15  1  0  0  0
 15 16  2  0  0  0
 15 17  1  0  0  0
 17 18  1  0  0  0
 17 40  1  0  0  0
 17 41  1  0  0  0
 18 19  1  0  0  0
 18 42  1  0  0  0
 18 43  1  0  0  0
 19 44  1  0  0  0
 19 45  1  0  0  0
 20 25  2  0  0  0
 20 21  1  0  0  0
 21 22  2  0  0  0
 21 46  1  0  0  0
 22 23  1  0  0  0
 22 27  1  0  0  0
 23 24  2  0  0  0
 23 47  1  0  0  0
 24 25  1  0  0  0
 24 48  1  0  0  0
 25 26  1  0  0  0
 27 28  2  0  0  0
 27 29  1  0  0  0
 30 49  1  0  0  0
 30 50  1  0  0  0
 31 32  3  0  0  0
M  CHG  2  27   1  29  -1
M  END
> <i_i_glide_confnum>
2

> <i_i_glide_lignum>
2388

> <i_i_glide_posenum>
218

> <i_i_glide_rotatable_bonds>
4

> <i_m_Source_File_Index>
5454

> <b_m_subgroup_collapsed>
0

> <r_i_docking_score>
-6.03282

> <r_i_glide_ecoul>
-4.24993

> <r_i_glide_eff_state_penalty>
0

> <r_i_glide_einternal>
14.7401

> <r_i_glide_emodel>
-47.704

> <r_i_glide_energy>
-41.347

> <r_i_glide_erotb>
0.194095

> <r_i_glide_esite>
-0.342879

> <r_i_glide_evdw>
-37.097

> <r_i_glide_gscore>
-6.03282

> <r_i_glide_hbond>
-0.0304656

> <r_i_glide_ligand_efficiency>
-0.194607

> <r_i_glide_ligand_efficiency_ln>
-1.36059

> <r_i_glide_ligand_efficiency_sa>
-0.611335

> <r_i_glide_lipo>
-2.42073

> <r_i_glide_metal>
0

> <r_i_glide_rewards>
-0.940498

> <s_i_glide_gridfile>
wee1_glide-grid

> <s_m_Source_File>
wee1_decoys_glide_SP.sdf

> <s_m_Source_Path>
/Users/zhangxujun/Desktop

> <s_m_entry_id>
5729

> <s_m_entry_name>
wee1_decoys_glide_SP.5454

> <s_m_subgroup_title>
wee1_decoys_glide_SP

> <s_m_subgroupid>
wee1_decoys_glide_SP


$$$$
