ZINC06462075_3095
                    3D
 Schrodinger Suite 2024-2.
 64 66  0  0  1  0            999 V2000
    5.4917   54.2722   21.8659 C   0  0  0  0  0  0
    4.6326   53.4681   22.8673 C   0  0  0  0  0  0
    3.0985   53.3454   22.5818 C   0  0  0  0  0  0
    2.8699   52.6534   21.2148 C   0  0  0  0  0  0
    2.5468   54.7683   22.5719 C   0  0  0  0  0  0
    2.4398   52.5880   23.6610 N   0  0  0  0  0  0
    1.1271   52.3067   23.8127 C   0  0  0  0  0  0
    0.2481   52.6834   23.0388 O   0  0  0  0  0  0
    0.7588   51.4112   25.0358 C   0  0  1  0  0  0
    1.5044   50.6231   24.9735 H   0  0  0  0  0  0
    0.9887   52.0537   26.4214 C   0  0  0  0  0  0
    0.7454   51.2896   27.5679 C   0  0  0  0  0  0
    0.8364   51.8377   28.8412 C   0  0  0  0  0  0
    1.2515   53.1612   29.0138 C   0  0  0  0  0  0
    1.6265   53.8946   27.8901 C   0  0  0  0  0  0
    1.5043   53.3487   26.6116 C   0  0  0  0  0  0
    1.3083   53.7983   30.2396 O   0  0  0  0  0  0
    0.7071   53.1666   31.3711 C   0  0  0  0  0  0
   -0.5259   50.6248   24.8655 N   0  0  0  0  0  0
   -1.7008   50.9022   25.7448 C   0  0  0  0  0  0
   -2.5797   52.0462   25.2956 C   0  0  0  0  0  0
   -2.7768   52.7433   24.1116 C   0  0  0  0  0  0
   -3.7630   53.6967   24.3667 C   0  0  0  0  0  0
   -4.1259   53.5447   25.6904 C   0  0  0  0  0  0
   -3.4038   52.5464   26.2536 O   0  0  0  0  0  0
   -0.5851   49.6792   23.8647 C   0  0  0  0  0  0
    0.3356   49.4500   23.0772 O   0  0  0  0  0  0
   -1.7761   48.8872   23.7283 C   0  0  0  0  0  0
   -2.2947   47.8830   24.5362 C   0  0  0  0  0  0
   -3.5069   47.3977   24.0107 C   0  0  0  0  0  0
   -3.9229   47.9139   22.8690 N   0  0  0  0  0  0
   -2.8047   49.1021   22.3544 S   0  0  0  0  0  0
   -4.3255   46.3718   24.5962 C   0  0  0  0  0  0
   -4.5145   45.2898   24.0465 O   0  0  0  0  0  0
   -4.8304   46.6695   25.7952 N   0  0  0  0  0  0
   -1.6956   47.4280   25.6816 N   0  0  0  0  0  0
    6.5254   54.3220   22.2084 H   0  0  0  0  0  0
    5.5048   53.8077   20.8798 H   0  0  0  0  0  0
    5.1532   55.2968   21.7415 H   0  0  0  0  0  0
    4.7859   53.8770   23.8676 H   0  0  0  0  0  0
    5.0976   52.4960   22.8815 H   0  0  0  0  0  0
    3.3348   53.2019   20.3957 H   0  0  0  0  0  0
    3.2783   51.6421   21.2069 H   0  0  0  0  0  0
    1.8112   52.5786   20.9663 H   0  0  0  0  0  0
    2.9605   55.2967   21.7210 H   0  0  0  0  0  0
    1.4641   54.8123   22.4814 H   0  0  0  0  0  0
    2.8165   55.2963   23.4876 H   0  0  0  0  0  0
    3.0649   52.2197   24.3621 H   0  0  0  0  0  0
    0.4179   50.2639   27.4683 H   0  0  0  0  0  0
    0.5570   51.2260   29.6813 H   0  0  0  0  0  0
    1.9739   54.9103   28.0060 H   0  0  0  0  0  0
    1.7616   53.9819   25.7770 H   0  0  0  0  0  0
    0.7044   53.8556   32.2153 H   0  0  0  0  0  0
    1.2619   52.2773   31.6735 H   0  0  0  0  0  0
   -0.3315   52.8891   31.1801 H   0  0  0  0  0  0
   -2.3469   50.0317   25.8137 H   0  0  0  0  0  0
   -1.4302   51.0416   26.7821 H   0  0  0  0  0  0
   -2.2672   52.5735   23.1754 H   0  0  0  0  0  0
   -4.1628   54.4238   23.6769 H   0  0  0  0  0  0
   -4.8318   54.0466   26.3356 H   0  0  0  0  0  0
   -4.6314   47.5579   26.2325 H   0  0  0  0  0  0
   -5.4074   45.9938   26.2728 H   0  0  0  0  0  0
   -2.1808   46.8662   26.3669 H   0  0  0  0  0  0
   -0.8064   47.7853   26.0117 H   0  0  0  0  0  0
  1  2  1  0  0  0
  1 37  1  0  0  0
  1 38  1  0  0  0
  1 39  1  0  0  0
  2  3  1  0  0  0
  2 40  1  0  0  0
  2 41  1  0  0  0
  3  4  1  0  0  0
  3  5  1  0  0  0
  3  6  1  0  0  0
  4 42  1  0  0  0
  4 43  1  0  0  0
  4 44  1  0  0  0
  5 45  1  0  0  0
  5 46  1  0  0  0
  5 47  1  0  0  0
  6  7  1  0  0  0
  6 48  1  0  0  0
  7  8  2  0  0  0
  7  9  1  0  0  0
  9 10  1  0  0  0
  9 11  1  0  0  0
  9 19  1  0  0  0
 11 16  2  0  0  0
 11 12  1  0  0  0
 12 13  2  0  0  0
 12 49  1  0  0  0
 13 14  1  0  0  0
 13 50  1  0  0  0
 14 15  2  0  0  0
 14 17  1  0  0  0
 15 16  1  0  0  0
 15 51  1  0  0  0
 16 52  1  0  0  0
 17 18  1  0  0  0
 18 53  1  0  0  0
 18 54  1  0  0  0
 18 55  1  0  0  0
 19 20  1  0  0  0
 19 26  1  0  0  0
 20 21  1  0  0  0
 20 56  1  0  0  0
 20 57  1  0  0  0
 21 25  1  0  0  0
 21 22  2  0  0  0
 22 23  1  0  0  0
 22 58  1  0  0  0
 23 24  2  0  0  0
 23 59  1  0  0  0
 24 25  1  0  0  0
 24 60  1  0  0  0
 26 27  2  0  0  0
 26 28  1  0  0  0
 28 32  1  0  0  0
 28 29  2  0  0  0
 29 30  1  0  0  0
 29 36  1  0  0  0
 30 31  2  0  0  0
 30 33  1  0  0  0
 31 32  1  0  0  0
 33 34  2  0  0  0
 33 35  1  0  0  0
 35 61  1  0  0  0
 35 62  1  0  0  0
 36 63  1  0  0  0
 36 64  1  0  0  0
M  END
> <i_i_glide_confnum>
224

> <i_i_glide_lignum>
3096

> <i_i_glide_posenum>
171

> <i_i_glide_rotatable_bonds>
12

> <i_m_Source_File_Index>
88

> <b_m_subgroup_collapsed>
0

> <r_i_docking_score>
-3.82311

> <r_i_glide_ecoul>
-4.86463

> <r_i_glide_eff_state_penalty>
0

> <r_i_glide_einternal>
16.5311

> <r_i_glide_emodel>
-35.7078

> <r_i_glide_energy>
-37.3473

> <r_i_glide_erotb>
0.654332

> <r_i_glide_esite>
-0.172546

> <r_i_glide_evdw>
-32.4827

> <r_i_glide_gscore>
-3.82311

> <r_i_glide_hbond>
-0.106866

> <r_i_glide_ligand_efficiency>
-0.109232

> <r_i_glide_ligand_efficiency_ln>
-0.839258

> <r_i_glide_ligand_efficiency_sa>
-0.357305

> <r_i_glide_lipo>
-1.64959

> <r_i_glide_metal>
0

> <r_i_glide_rewards>
-0.194612

> <s_i_glide_gridfile>
wee1_glide-grid

> <s_m_Source_File>
wee1_decoys_glide_SP.sdf

> <s_m_Source_Path>
/Users/zhangxujun/Desktop

> <s_m_entry_id>
363

> <s_m_entry_name>
wee1_decoys_glide_SP.88

> <s_m_subgroup_title>
wee1_decoys_glide_SP

> <s_m_subgroupid>
wee1_decoys_glide_SP


$$$$
