@<TRIPOS>MOLECULE
ZINC38905634_4851
60   63    1
SMALL
USER_CHARGES


@<TRIPOS>ATOM
      1 C1          3.9978   53.3661   30.2689 C.3       1 UNK         0.0000 
      2 C2          3.3322   53.6989   28.9192 C.3       1 UNK         0.0000 
      3 H3          2.7879   54.6335   29.0731 H         1 UNK         0.0000 
      4 C4          4.3470   53.9908   27.8053 C.ar      1 UNK         0.0000 
      5 C5          5.7242   53.7855   27.9712 C.ar      1 UNK         0.0000 
      6 C6          6.6103   54.0940   26.9491 C.ar      1 UNK         0.0000 
      7 C7          6.1461   54.6025   25.7402 C.ar      1 UNK         0.0000 
      8 C8          4.7687   54.7993   25.5629 C.ar      1 UNK         0.0000 
      9 C9          3.8806   54.4962   26.5888 C.ar      1 UNK         0.0000 
     10 O10         7.1044   54.8756   24.7890 O.3       1 UNK         0.0000 
     11 C11         6.7038   55.5023   23.5776 C.3       1 UNK         0.0000 
     12 N12         2.3403   52.7197   28.4625 N.am      1 UNK         0.0000 
     13 C13         1.3900   52.0967   29.1821 C.2       1 UNK         0.0000 
     14 O14         1.3133   52.1536   30.4082 O.2       1 UNK         0.0000 
     15 C15         0.3150   51.2970   28.4294 C.3       1 UNK         0.0000 
     16 H16         0.0548   50.4968   29.1197 H         1 UNK         0.0000 
     17 C17        -0.9119   52.2041   28.2474 C.3       1 UNK         0.0000 
     18 C18        -2.0339   51.4307   27.5261 C.3       1 UNK         0.0000 
     19 C19        -1.5577   50.8303   26.1906 C.3       1 UNK         0.0000 
     20 N20        -0.3558   49.8940   26.4810 N.4       1 UNK         0.0000 
     21 C21         0.8151   50.6859   27.1011 C.3       1 UNK         0.0000 
     22 C22         0.1155   49.1508   25.2012 C.3       1 UNK         0.0000 
     23 C23        -0.9456   48.1689   24.7473 C.2       1 UNK         0.0000 
     24 N24        -1.8753   47.6111   25.4670 N.2       1 UNK         0.0000 
     25 C25        -2.5588   46.9256   24.5789 C.2       1 UNK         0.0000 
     26 N26        -2.1175   47.0005   23.3373 N.2       1 UNK         0.0000 
     27 O27        -1.0126   47.8452   23.4339 O.3       1 UNK         0.0000 
     28 C28        -3.7370   46.0964   24.9816 C.ar      1 UNK         0.0000 
     29 C29        -3.8585   45.6573   26.3102 C.ar      1 UNK         0.0000 
     30 C30        -4.8958   44.8064   26.6762 C.ar      1 UNK         0.0000 
     31 C31        -5.8379   44.4159   25.7308 C.ar      1 UNK         0.0000 
     32 C32        -5.7509   44.8708   24.4170 C.ar      1 UNK         0.0000 
     33 C33        -4.6991   45.7039   24.0424 C.ar      1 UNK         0.0000 
     34 Br34       -7.2420   43.2356   26.2365 Br        1 UNK         0.0000 
     35 H35         4.6818   54.1697   30.5376 H         1 UNK         0.0000 
     36 H36         3.2947   53.2830   31.0888 H         1 UNK         0.0000 
     37 H37         4.5483   52.4265   30.2237 H         1 UNK         0.0000 
     38 H38         6.1420   53.3887   28.8818 H         1 UNK         0.0000 
     39 H39         7.6658   53.9321   27.0999 H         1 UNK         0.0000 
     40 H40         4.3706   55.1886   24.6387 H         1 UNK         0.0000 
     41 H41         2.8241   54.6580   26.4384 H         1 UNK         0.0000 
     42 H42         7.5469   55.6251   22.9034 H         1 UNK         0.0000 
     43 H43         6.3141   56.4966   23.7923 H         1 UNK         0.0000 
     44 H44         5.9554   54.9157   23.0439 H         1 UNK         0.0000 
     45 H45         2.2867   52.6329   27.4594 H         1 UNK         0.0000 
     46 H46        -1.2980   52.4983   29.2254 H         1 UNK         0.0000 
     47 H47        -0.6826   53.0724   27.6238 H         1 UNK         0.0000 
     48 H48        -2.4054   50.6312   28.1697 H         1 UNK         0.0000 
     49 H49        -2.8849   52.0872   27.3426 H         1 UNK         0.0000 
     50 H50        -2.3571   50.2277   25.7602 H         1 UNK         0.0000 
     51 H51        -1.2373   51.5829   25.4671 H         1 UNK         0.0000 
     52 H52         1.1047   51.4232   26.3493 H         1 UNK         0.0000 
     53 H53         1.6021   49.9535   27.2816 H         1 UNK         0.0000 
     54 H54         0.3394   49.9222   24.4633 H         1 UNK         0.0000 
     55 H55         1.0362   48.6272   25.4686 H         1 UNK         0.0000 
     56 H56        -3.1297   45.9387   27.0596 H         1 UNK         0.0000 
     57 H57        -4.9513   44.4346   27.6877 H         1 UNK         0.0000 
     58 H58        -6.4893   44.5665   23.6897 H         1 UNK         0.0000 
     59 H59        -4.6373   46.0384   23.0158 H         1 UNK         0.0000 
     60 H60        -0.6783   49.1872   27.1526 H         1 UNK         0.0000 
@<TRIPOS>BOND
     1    1    2 1    
     2    1   35 1    
     3    1   36 1    
     4    1   37 1    
     5    2    3 1    
     6    2    4 1    
     7    2   12 1    
     8    4    9 ar   
     9    4    5 ar   
    10    5    6 ar   
    11    5   38 1    
    12    6    7 ar   
    13    6   39 1    
    14    7    8 ar   
    15    7   10 1    
    16    8    9 ar   
    17    8   40 1    
    18    9   41 1    
    19   10   11 1    
    20   11   42 1    
    21   11   43 1    
    22   11   44 1    
    23   12   13 am   BACKBONE|DICT|INTERRES
    24   12   45 1    
    25   13   14 2    
    26   13   15 1    
    27   15   16 1    
    28   15   21 1    
    29   15   17 1    
    30   17   18 1    
    31   17   46 1    
    32   17   47 1    
    33   18   19 1    
    34   18   48 1    
    35   18   49 1    
    36   19   20 1    
    37   19   50 1    
    38   19   51 1    
    39   20   21 1    
    40   20   22 1    
    41   20   60 1    
    42   21   52 1    
    43   21   53 1    
    44   22   23 1    
    45   22   54 1    
    46   22   55 1    
    47   23   27 1    
    48   23   24 2    
    49   24   25 1    
    50   25   26 2    
    51   25   28 1    
    52   26   27 1    
    53   28   33 ar   
    54   28   29 ar   
    55   29   30 ar   
    56   29   56 1    
    57   30   31 ar   
    58   30   57 1    
    59   31   32 ar   
    60   31   34 1    
    61   32   33 ar   
    62   32   58 1    
    63   33   59 1    
@<TRIPOS>SUBSTRUCTURE
     1 UNK         1 GROUP             0       ****    0 ROOT    
