ZINC37756535_6149
                    3D
 Schrodinger Suite 2024-2.
 29 31  0  0  1  0            999 V2000
    5.0256   54.0455   22.2485 C   0  0  0  0  0  0
    3.6622   53.8425   22.1052 C   0  0  0  0  0  0
    2.8449   53.8526   23.6344 S   0  0  0  0  0  0
    4.3454   54.0967   24.4956 C   0  0  0  0  0  0
    5.4060   54.1748   23.5859 C   0  0  0  0  0  0
    6.7050   54.3725   23.9500 N   0  0  0  0  0  0
    4.3531   54.1852   25.9565 C   0  0  0  0  0  0
    3.3329   54.0837   26.7686 N   0  0  0  0  0  0
    3.9039   54.2069   27.9532 C   0  0  0  0  0  0
    5.2064   54.4028   27.9555 N   0  0  0  0  0  0
    5.5305   54.3933   26.6002 O   0  0  0  0  0  0
    3.1121   54.0945   29.2537 C   0  0  0  0  0  0
    1.9655   55.1138   29.4271 C   0  0  0  0  0  0
    0.8332   54.3892   30.1849 C   0  0  0  0  0  0
    1.3358   52.9669   30.4764 C   0  0  0  0  0  0
    2.4615   52.7203   29.4692 C   0  0  0  0  0  0
    5.7125   54.0966   21.4184 H   0  0  0  0  0  0
    3.1098   53.6978   21.1881 H   0  0  0  0  0  0
    6.9581   54.4238   24.9261 H   0  0  0  0  0  0
    7.4535   54.4851   23.2785 H   0  0  0  0  0  0
    3.8110   54.2412   30.0815 H   0  0  0  0  0  0
    2.3041   56.0202   29.9417 H   0  0  0  0  0  0
    1.5859   55.4448   28.4557 H   0  0  0  0  0  0
    0.5714   54.9108   31.1100 H   0  0  0  0  0  0
   -0.0704   54.3507   29.5711 H   0  0  0  0  0  0
    1.7240   52.8987   31.4970 H   0  0  0  0  0  0
    0.5383   52.2252   30.3898 H   0  0  0  0  0  0
    2.0413   52.3410   28.5309 H   0  0  0  0  0  0
    3.1826   51.9751   29.8171 H   0  0  0  0  0  0
  1  5  1  0  0  0
  1  2  2  0  0  0
  1 17  1  0  0  0
  2  3  1  0  0  0
  2 18  1  0  0  0
  3  4  1  0  0  0
  4  5  2  0  0  0
  4  7  1  0  0  0
  5  6  1  0  0  0
  6 19  1  0  0  0
  6 20  1  0  0  0
  7 11  1  0  0  0
  7  8  2  0  0  0
  8  9  1  0  0  0
  9 10  2  0  0  0
  9 12  1  0  0  0
 10 11  1  0  0  0
 12 16  1  0  0  0
 12 13  1  0  0  0
 12 21  1  0  0  0
 13 14  1  0  0  0
 13 22  1  0  0  0
 13 23  1  0  0  0
 14 15  1  0  0  0
 14 24  1  0  0  0
 14 25  1  0  0  0
 15 16  1  0  0  0
 15 26  1  0  0  0
 15 27  1  0  0  0
 16 28  1  0  0  0
 16 29  1  0  0  0
M  END
> <i_i_glide_confnum>
1

> <i_i_glide_lignum>
6150

> <i_i_glide_posenum>
25

> <i_i_glide_rotatable_bonds>
2

> <i_m_Source_File_Index>
3709

> <b_m_subgroup_collapsed>
0

> <r_i_docking_score>
-5.59851

> <r_i_glide_ecoul>
-0.783495

> <r_i_glide_eff_state_penalty>
0

> <r_i_glide_einternal>
0.018317

> <r_i_glide_emodel>
-46.7832

> <r_i_glide_energy>
-34.8768

> <r_i_glide_erotb>
0.621041

> <r_i_glide_esite>
0

> <r_i_glide_evdw>
-34.0933

> <r_i_glide_gscore>
-5.59851

> <r_i_glide_hbond>
-0.039582

> <r_i_glide_ligand_efficiency>
-0.349907

> <r_i_glide_ligand_efficiency_ln>
-1.484

> <r_i_glide_ligand_efficiency_sa>
-0.881711

> <r_i_glide_lipo>
-2.14947

> <r_i_glide_metal>
0

> <r_i_glide_rewards>
-2.20831

> <s_i_glide_gridfile>
wee1_glide-grid

> <s_m_Source_File>
wee1_decoys_glide_SP.sdf

> <s_m_Source_Path>
/Users/zhangxujun/Desktop

> <s_m_entry_id>
3984

> <s_m_entry_name>
wee1_decoys_glide_SP.3709

> <s_m_subgroup_title>
wee1_decoys_glide_SP

> <s_m_subgroupid>
wee1_decoys_glide_SP


$$$$
