ZINC09237766_2033
                    3D
 Schrodinger Suite 2024-2.
 49 52  0  0  1  0            999 V2000
    2.7097   53.9145   25.6352 C   0  0  0  0  0  0
    4.0980   54.0969   26.2314 C   0  0  0  0  0  0
    4.2409   53.9859   27.6176 C   0  0  0  0  0  0
    5.4919   54.1194   28.2128 C   0  0  0  0  0  0
    6.6118   54.3748   27.4294 C   0  0  0  0  0  0
    6.4827   54.4984   26.0486 C   0  0  0  0  0  0
    5.2292   54.3544   25.4322 C   0  0  0  0  0  0
    5.0665   54.4960   24.0404 N   0  0  0  0  0  0
    5.9698   54.2450   23.0670 C   0  0  0  0  0  0
    7.0531   53.6968   23.2817 O   0  0  0  0  0  0
    5.5605   54.6491   21.6229 C   0  0  2  0  0  0
    4.7989   55.4189   21.6815 H   0  0  0  0  0  0
    4.9808   53.4425   20.8091 C   0  0  2  0  0  0
    5.7404   52.6595   20.7836 H   0  0  0  0  0  0
    4.7356   53.8335   19.4233 N   0  0  0  0  0  0
    5.9043   54.2247   18.7794 N   0  0  0  0  0  0
    6.2667   53.9653   17.4790 C   0  0  0  0  0  0
    7.4362   54.4932   17.2161 N   0  0  0  0  0  0
    7.8689   55.1362   18.3724 N   0  0  0  0  0  0
    6.9430   54.9737   19.2843 C   0  0  0  0  0  0
    6.9929   55.5824   20.9370 S   0  0  0  0  0  0
    5.4257   53.1925   16.4847 C   0  0  0  0  0  0
    3.7346   52.7869   21.4159 C   0  0  0  0  0  0
    2.7429   53.5245   22.0770 C   0  0  0  0  0  0
    1.6262   52.8923   22.6195 C   0  0  0  0  0  0
    1.4765   51.5007   22.5221 C   0  0  0  0  0  0
    2.4556   50.7728   21.8369 C   0  0  0  0  0  0
    3.5655   51.4080   21.2822 C   0  0  0  0  0  0
    2.3041   48.8885   21.6551 Br  0  0  0  0  0  0
    0.4172   50.7987   23.0665 O   0  0  0  0  0  0
   -0.5564   51.4892   23.8418 C   0  0  0  0  0  0
    2.6289   52.9265   25.1823 H   0  0  0  0  0  0
    1.9244   54.0221   26.3845 H   0  0  0  0  0  0
    2.5164   54.6605   24.8665 H   0  0  0  0  0  0
    3.3794   53.7877   28.2387 H   0  0  0  0  0  0
    5.5963   54.0348   29.2816 H   0  0  0  0  0  0
    7.5762   54.4917   27.9011 H   0  0  0  0  0  0
    7.3645   54.7163   25.4666 H   0  0  0  0  0  0
    4.1350   54.7407   23.7471 H   0  0  0  0  0  0
    4.3859   53.0228   18.9277 H   0  0  0  0  0  0
    5.8811   53.1599   15.4939 H   0  0  0  0  0  0
    5.2797   52.1583   16.7952 H   0  0  0  0  0  0
    4.4359   53.6335   16.3634 H   0  0  0  0  0  0
    2.8064   54.5988   22.1484 H   0  0  0  0  0  0
    0.8874   53.5025   23.1148 H   0  0  0  0  0  0
    4.3019   50.8230   20.7504 H   0  0  0  0  0  0
   -1.2866   50.7745   24.2230 H   0  0  0  0  0  0
   -0.1066   51.9881   24.7015 H   0  0  0  0  0  0
   -1.0968   52.2234   23.2427 H   0  0  0  0  0  0
  1  2  1  0  0  0
  1 32  1  0  0  0
  1 33  1  0  0  0
  1 34  1  0  0  0
  2  7  2  0  0  0
  2  3  1  0  0  0
  3  4  2  0  0  0
  3 35  1  0  0  0
  4  5  1  0  0  0
  4 36  1  0  0  0
  5  6  2  0  0  0
  5 37  1  0  0  0
  6  7  1  0  0  0
  6 38  1  0  0  0
  7  8  1  0  0  0
  8  9  1  0  0  0
  8 39  1  0  0  0
  9 10  2  0  0  0
  9 11  1  0  0  0
 11 12  1  0  0  0
 11 21  1  0  0  0
 11 13  1  0  0  0
 13 14  1  0  0  0
 13 15  1  0  0  0
 13 23  1  0  0  0
 15 16  1  0  0  0
 15 40  1  0  0  0
 16 20  1  0  0  0
 16 17  1  0  0  0
 17 18  2  0  0  0
 17 22  1  0  0  0
 18 19  1  0  0  0
 19 20  2  0  0  0
 20 21  1  0  0  0
 22 41  1  0  0  0
 22 42  1  0  0  0
 22 43  1  0  0  0
 23 28  2  0  0  0
 23 24  1  0  0  0
 24 25  2  0  0  0
 24 44  1  0  0  0
 25 26  1  0  0  0
 25 45  1  0  0  0
 26 27  2  0  0  0
 26 30  1  0  0  0
 27 28  1  0  0  0
 27 29  1  0  0  0
 28 46  1  0  0  0
 30 31  1  0  0  0
 31 47  1  0  0  0
 31 48  1  0  0  0
 31 49  1  0  0  0
M  END
> <i_i_glide_confnum>
6

> <i_i_glide_lignum>
2034

> <i_i_glide_posenum>
350

> <i_i_glide_rotatable_bonds>
5

> <i_m_Source_File_Index>
2047

> <b_m_subgroup_collapsed>
0

> <r_i_docking_score>
-5.35539

> <r_i_glide_ecoul>
1.28783

> <r_i_glide_eff_state_penalty>
0

> <r_i_glide_einternal>
3.82989

> <r_i_glide_emodel>
-56.6681

> <r_i_glide_energy>
-43.3409

> <r_i_glide_erotb>
0.359674

> <r_i_glide_esite>
-0.039431

> <r_i_glide_evdw>
-44.6288

> <r_i_glide_gscore>
-5.35539

> <r_i_glide_hbond>
0

> <r_i_glide_ligand_efficiency>
-0.184669

> <r_i_glide_ligand_efficiency_ln>
-1.22625

> <r_i_glide_ligand_efficiency_sa>
-0.56736

> <r_i_glide_lipo>
-2.88586

> <r_i_glide_metal>
0

> <r_i_glide_rewards>
-0.751512

> <s_i_glide_gridfile>
wee1_glide-grid

> <s_m_Source_File>
wee1_decoys_glide_SP.sdf

> <s_m_Source_Path>
/Users/zhangxujun/Desktop

> <s_m_entry_id>
2322

> <s_m_entry_name>
wee1_decoys_glide_SP.2047

> <s_m_subgroup_title>
wee1_decoys_glide_SP

> <s_m_subgroupid>
wee1_decoys_glide_SP


$$$$
