@<TRIPOS>MOLECULE
ZINC13250946_5788
55   56    1
SMALL
USER_CHARGES


@<TRIPOS>ATOM
      1 C1         -1.7948   53.1387   23.8844 C.3       1 UNK         0.0000 
      2 C2         -1.4622   51.6622   24.1606 C.3       1 UNK         0.0000 
      3 C3         -0.1797   51.1285   23.4711 C.3       1 UNK         0.0000 
      4 H4          0.6497   51.5165   24.0614 H         1 UNK         0.0000 
      5 C5         -0.0876   49.5941   23.5714 C.3       1 UNK         0.0000 
      6 N6         -0.0062   51.6201   22.0552 N.pl3     1 UNK         0.0000 
      7 C7          1.3793   51.8502   21.6021 C.3       1 UNK         0.0000 
      8 C8          2.1665   52.9407   22.3695 C.2       1 UNK         0.0000 
      9 O9          1.6512   53.6025   23.2730 O.2       1 UNK         0.0000 
     10 N10         3.4450   53.0875   21.9664 N.am      1 UNK         0.0000 
     11 C11         4.4726   53.8653   22.5373 C.ar      1 UNK         0.0000 
     12 C12         4.5398   54.0965   23.9216 C.ar      1 UNK         0.0000 
     13 C13         5.6304   54.7568   24.4822 C.ar      1 UNK         0.0000 
     14 C14         6.6607   55.2066   23.6625 C.ar      1 UNK         0.0000 
     15 C15         6.5952   55.0108   22.2842 C.ar      1 UNK         0.0000 
     16 C16         5.5032   54.3471   21.7022 C.ar      1 UNK         0.0000 
     17 C17         5.4496   54.1664   20.1756 C.3       1 UNK         0.0000 
     18 F18         6.4645   54.7700   19.5522 F         1 UNK         0.0000 
     19 F19         5.4942   52.8688   19.8812 F         1 UNK         0.0000 
     20 F20         4.3147   54.6685   19.6855 F         1 UNK         0.0000 
     21 S21        -1.1986   51.1620   20.8019 S.o2      1 UNK         0.0000 
     22 O22        -0.9839   52.0446   19.6494 O.2       1 UNK         0.0000 
     23 O23        -2.5299   51.0875   21.4134 O.2       1 UNK         0.0000 
     24 C24        -0.7649   49.4995   20.2635 C.ar      1 UNK         0.0000 
     25 C25         0.3698   49.2886   19.4747 C.ar      1 UNK         0.0000 
     26 C26         0.7070   47.9958   19.0772 C.ar      1 UNK         0.0000 
     27 C27        -0.0843   46.9052   19.4582 C.ar      1 UNK         0.0000 
     28 C28        -1.2239   47.1269   20.2409 C.ar      1 UNK         0.0000 
     29 C29        -1.5649   48.4161   20.6372 C.ar      1 UNK         0.0000 
     30 C30         0.3308   45.5451   19.0553 C.2       1 UNK         0.0000 
     31 C31         0.0016   44.3908   19.6800 C.2       1 UNK         0.0000 
     32 C32         0.4718   42.9960   19.2258 C.2       1 UNK         0.0000 
     33 O33         0.9268   42.9139   18.0642 O.co2     1 UNK         0.0000 
     34 H34        -2.6266   53.4704   24.5050 H         1 UNK         0.0000 
     35 H35        -0.9393   53.7841   24.0816 H         1 UNK         0.0000 
     36 H36        -2.0916   53.2953   22.8490 H         1 UNK         0.0000 
     37 H37        -2.3267   51.0522   23.8940 H         1 UNK         0.0000 
     38 H38        -1.3513   51.5297   25.2379 H         1 UNK         0.0000 
     39 H39        -0.0156   49.2778   24.6131 H         1 UNK         0.0000 
     40 H40        -0.9653   49.1043   23.1564 H         1 UNK         0.0000 
     41 H41         0.7928   49.2067   23.0576 H         1 UNK         0.0000 
     42 H42         1.9428   50.9167   21.6502 H         1 UNK         0.0000 
     43 H43         1.3959   52.1367   20.5497 H         1 UNK         0.0000 
     44 H44         3.7147   52.5843   21.1330 H         1 UNK         0.0000 
     45 H45         3.7700   53.7238   24.5811 H         1 UNK         0.0000 
     46 H46         5.6758   54.9136   25.5504 H         1 UNK         0.0000 
     47 H47         7.5042   55.7217   24.0920 H         1 UNK         0.0000 
     48 H48         7.4090   55.3774   21.6750 H         1 UNK         0.0000 
     49 H49         0.9901   50.1198   19.1699 H         1 UNK         0.0000 
     50 H50         1.5939   47.8467   18.4752 H         1 UNK         0.0000 
     51 H51        -1.8556   46.3050   20.5458 H         1 UNK         0.0000 
     52 H52        -2.4494   48.5682   21.2408 H         1 UNK         0.0000 
     53 H53         0.9487   45.4908   18.1685 H         1 UNK         0.0000 
     54 H54        -0.6177   44.4300   20.5633 H         1 UNK         0.0000 
     55 O55         0.3042   42.0970   20.0812 O.co2     1 UNK         0.0000 
@<TRIPOS>BOND
     1    1    2 1    
     2    1   34 1    
     3    1   35 1    
     4    1   36 1    
     5    2    3 1    
     6    2   37 1    
     7    2   38 1    
     8    3    4 1    
     9    3    5 1    
    10    3    6 1    
    11    5   39 1    
    12    5   40 1    
    13    5   41 1    
    14    6    7 1    
    15    6   21 1    
    16    7    8 1    
    17    7   42 1    
    18    7   43 1    
    19    8    9 2    
    20    8   10 am   BACKBONE|DICT|INTERRES
    21   10   11 1    
    22   10   44 1    
    23   11   16 ar   
    24   11   12 ar   
    25   12   13 ar   
    26   12   45 1    
    27   13   14 ar   
    28   13   46 1    
    29   14   15 ar   
    30   14   47 1    
    31   15   16 ar   
    32   15   48 1    
    33   16   17 1    
    34   17   18 1    
    35   17   19 1    
    36   17   20 1    
    37   21   22 2    
    38   21   23 2    
    39   21   24 1    
    40   24   29 ar   
    41   24   25 ar   
    42   25   26 ar   
    43   25   49 1    
    44   26   27 ar   
    45   26   50 1    
    46   27   28 ar   
    47   27   30 1    
    48   28   29 ar   
    49   28   51 1    
    50   29   52 1    
    51   30   31 2    
    52   30   53 1    
    53   31   32 1    
    54   31   54 1    
    55   32   33 2    
    56   32   55 1    
@<TRIPOS>SUBSTRUCTURE
     1 UNK         1 GROUP             0       ****    0 ROOT    
