@<TRIPOS>MOLECULE
ZINC33766598_959
52   54    1
SMALL
USER_CHARGES


@<TRIPOS>ATOM
      1 C1          8.6988   58.4975   16.1686 C.3       1 UNK         0.0000 
      2 C2          7.3451   59.0156   16.6781 C.3       1 UNK         0.0000 
      3 N3          6.4573   57.9282   17.0747 N.am      1 UNK         0.0000 
      4 C4          6.4122   57.3874   18.3043 C.2       1 UNK         0.0000 
      5 O5          7.1050   57.7898   19.2379 O.2       1 UNK         0.0000 
      6 C6          5.4131   56.2335   18.4970 C.3       1 UNK         0.0000 
      7 C7          5.9044   54.9854   19.3137 C.3       1 UNK         0.0000 
      8 H8          6.8781   54.6537   18.9491 H         1 UNK         0.0000 
      9 C9          6.0148   55.2228   20.8125 C.2       1 UNK         0.0000 
     10 O10         6.6862   56.0972   21.3604 O.2       1 UNK         0.0000 
     11 N11         5.2529   54.2602   21.3888 N.am      1 UNK         0.0000 
     12 C12         4.6708   53.3510   20.5293 C.2       1 UNK         0.0000 
     13 S13         3.8213   51.9439   20.8804 S.2       1 UNK         0.0000 
     14 N14         4.9641   53.8791   19.2995 N.pl3     1 UNK         0.0000 
     15 N15         4.6981   53.2603   18.0634 N.am      1 UNK         0.0000 
     16 C16         3.6078   53.6380   17.3534 C.2       1 UNK         0.0000 
     17 O17         2.8669   54.5692   17.6798 O.2       1 UNK         0.0000 
     18 C18         3.3469   52.9059   16.0557 C.ar      1 UNK         0.0000 
     19 C19         4.3655   52.2160   15.3769 C.ar      1 UNK         0.0000 
     20 C20         4.1017   51.5774   14.1683 C.ar      1 UNK         0.0000 
     21 C21         2.8211   51.6288   13.6218 C.ar      1 UNK         0.0000 
     22 C22         1.8024   52.3138   14.2790 C.ar      1 UNK         0.0000 
     23 C23         2.0654   52.9490   15.4869 C.ar      1 UNK         0.0000 
     24 Br24        2.4565   50.7533   11.9714 Br        1 UNK         0.0000 
     25 C25         5.1707   54.1846   22.8141 C.ar      1 UNK         0.0000 
     26 C26         6.3335   54.0971   23.5931 C.ar      1 UNK         0.0000 
     27 C27         6.2527   54.0973   24.9815 C.ar      1 UNK         0.0000 
     28 C28         5.0082   54.1794   25.6228 C.ar      1 UNK         0.0000 
     29 C29         3.8519   54.2455   24.8464 C.ar      1 UNK         0.0000 
     30 C30         3.9260   54.2508   23.4556 C.ar      1 UNK         0.0000 
     31 O31         4.8413   54.2028   26.9964 O.3       1 UNK         0.0000 
     32 C32         5.9899   54.1425   27.8388 C.3       1 UNK         0.0000 
     33 H33         9.3392   59.3253   15.8623 H         1 UNK         0.0000 
     34 H34         8.5713   57.8404   15.3069 H         1 UNK         0.0000 
     35 H35         9.2307   57.9449   16.9460 H         1 UNK         0.0000 
     36 H36         7.5052   59.6972   17.5134 H         1 UNK         0.0000 
     37 H37         6.8489   59.6036   15.9046 H         1 UNK         0.0000 
     38 H38         5.8118   57.5952   16.3727 H         1 UNK         0.0000 
     39 H39         4.4817   56.6424   18.8821 H         1 UNK         0.0000 
     40 H40         5.1530   55.8934   17.4955 H         1 UNK         0.0000 
     41 H41         5.1041   52.3298   17.9989 H         1 UNK         0.0000 
     42 H42         5.3690   52.1510   15.7796 H         1 UNK         0.0000 
     43 H43         4.8866   51.0372   13.6582 H         1 UNK         0.0000 
     44 H44         0.8117   52.3544   13.8484 H         1 UNK         0.0000 
     45 H45         1.2618   53.4820   15.9816 H         1 UNK         0.0000 
     46 H46         7.3078   54.0546   23.1263 H         1 UNK         0.0000 
     47 H47         7.1716   54.0438   25.5442 H         1 UNK         0.0000 
     48 H48         2.8861   54.3064   25.3291 H         1 UNK         0.0000 
     49 H49         3.0165   54.3261   22.8755 H         1 UNK         0.0000 
     50 H50         5.6755   54.1608   28.8803 H         1 UNK         0.0000 
     51 H51         6.5583   53.2236   27.6833 H         1 UNK         0.0000 
     52 H52         6.6445   55.0034   27.6797 H         1 UNK         0.0000 
@<TRIPOS>BOND
     1    1    2 1    
     2    1   33 1    
     3    1   34 1    
     4    1   35 1    
     5    2    3 1    
     6    2   36 1    
     7    2   37 1    
     8    3    4 am   BACKBONE|DICT|INTERRES
     9    3   38 1    
    10    4    5 2    
    11    4    6 1    
    12    6    7 1    
    13    6   39 1    
    14    6   40 1    
    15    7    8 1    
    16    7   14 1    
    17    7    9 1    
    18    9   10 2    
    19    9   11 am   BACKBONE|DICT|INTERRES
    20   11   12 am   BACKBONE|DICT|INTERRES
    21   11   25 1    
    22   12   13 2    
    23   12   14 1    
    24   14   15 1    
    25   15   16 am   BACKBONE|DICT|INTERRES
    26   15   41 1    
    27   16   17 2    
    28   16   18 1    
    29   18   23 ar   
    30   18   19 ar   
    31   19   20 ar   
    32   19   42 1    
    33   20   21 ar   
    34   20   43 1    
    35   21   22 ar   
    36   21   24 1    
    37   22   23 ar   
    38   22   44 1    
    39   23   45 1    
    40   25   30 ar   
    41   25   26 ar   
    42   26   27 ar   
    43   26   46 1    
    44   27   28 ar   
    45   27   47 1    
    46   28   29 ar   
    47   28   31 1    
    48   29   30 ar   
    49   29   48 1    
    50   30   49 1    
    51   31   32 1    
    52   32   50 1    
    53   32   51 1    
    54   32   52 1    
@<TRIPOS>SUBSTRUCTURE
     1 UNK         1 GROUP             0       ****    0 ROOT    
