@<TRIPOS>MOLECULE
ZINC64518594_4103
69   73    1
SMALL
USER_CHARGES


@<TRIPOS>ATOM
      1 C1          1.2430   55.3235   28.9187 C.3       1 UNK         0.0000 
      2 C2          1.2861   53.8278   28.6713 C.2       1 UNK         0.0000 
      3 C3          2.2802   52.9180   28.6310 C.2       1 UNK         0.0000 
      4 C4          1.7157   51.5489   28.4158 C.3       1 UNK         0.0000 
      5 N5          0.3649   51.7978   27.9708 N.pl3     1 UNK         0.0000 
      6 N6          0.0891   53.1566   28.4210 N.pl3     1 UNK         0.0000 
      7 C7         -0.2935   51.3096   26.8239 C.ar      1 UNK         0.0000 
      8 C8         -1.4900   51.8813   26.3577 C.ar      1 UNK         0.0000 
      9 C9         -2.1253   51.3792   25.2247 C.ar      1 UNK         0.0000 
     10 C10        -1.5816   50.2876   24.5548 C.ar      1 UNK         0.0000 
     11 C11        -0.4156   49.6850   25.0186 C.ar      1 UNK         0.0000 
     12 C12         0.2197   50.1917   26.1483 C.ar      1 UNK         0.0000 
     13 C13         3.6854   53.2159   28.7862 C.2       1 UNK         0.0000 
     14 O14         4.3041   52.6460   29.6842 O.2       1 UNK         0.0000 
     15 N15         4.2734   54.1013   27.9280 N.am      1 UNK         0.0000 
     16 C16         3.6314   54.6099   26.6889 C.3       1 UNK         0.0000 
     17 C17         4.4712   54.1265   25.4920 C.3       1 UNK         0.0000 
     18 C18         5.9573   54.5499   25.5906 C.3       1 UNK         0.0000 
     19 C19         6.4945   53.9870   26.9228 C.3       1 UNK         0.0000 
     20 C20         5.6868   54.4944   28.1330 C.3       1 UNK         0.0000 
     21 C21         6.8549   54.1049   24.4022 C.3       1 UNK         0.0000 
     22 C22         6.3417   54.4999   23.0142 C.2       1 UNK         0.0000 
     23 O23         6.7044   55.5620   22.5099 O.2       1 UNK         0.0000 
     24 N24         5.4763   53.6596   22.4231 N.am      1 UNK         0.0000 
     25 C25         4.7204   53.9482   21.2035 C.3       1 UNK         0.0000 
     26 C26         5.5527   54.0411   19.9083 C.3       1 UNK         0.0000 
     27 C27         4.7839   54.7005   18.7775 C.2       1 UNK         0.0000 
     28 C28         4.9517   55.8928   18.1740 C.2       1 UNK         0.0000 
     29 C29         5.9528   56.9490   18.3875 C.2       1 UNK         0.0000 
     30 C30         5.9053   58.0974   17.6823 C.2       1 UNK         0.0000 
     31 C31         4.8267   58.2660   16.7185 C.2       1 UNK         0.0000 
     32 C32         3.8959   57.2986   16.5044 C.2       1 UNK         0.0000 
     33 C33         3.9452   56.0962   17.2233 C.2       1 UNK         0.0000 
     34 N34         3.1495   55.0547   17.1689 N.pl3     1 UNK         0.0000 
     35 C35         3.5876   54.0297   18.1326 C.3       1 UNK         0.0000 
     36 H36         0.7030   55.5331   29.8407 H         1 UNK         0.0000 
     37 H37         2.2428   55.7435   29.0222 H         1 UNK         0.0000 
     38 H38         0.7391   55.8274   28.0931 H         1 UNK         0.0000 
     39 H39         2.2920   50.9948   27.6818 H         1 UNK         0.0000 
     40 H40         1.6981   50.9638   29.3336 H         1 UNK         0.0000 
     41 H41        -0.5705   53.5090   27.7445 H         1 UNK         0.0000 
     42 H42        -1.9490   52.7121   26.8699 H         1 UNK         0.0000 
     43 H43        -3.0435   51.8277   24.8733 H         1 UNK         0.0000 
     44 H44        -2.0771   49.8922   23.6799 H         1 UNK         0.0000 
     45 H45        -0.0079   48.8203   24.5163 H         1 UNK         0.0000 
     46 H46         1.1014   49.6798   26.5016 H         1 UNK         0.0000 
     47 H47         3.6351   55.6964   26.7115 H         1 UNK         0.0000 
     48 H48         2.5975   54.2971   26.5612 H         1 UNK         0.0000 
     49 H49         4.0244   54.5098   24.5753 H         1 UNK         0.0000 
     50 H50         4.3817   53.0469   25.4066 H         1 UNK         0.0000 
     51 H51         5.9857   55.6400   25.6560 H         1 UNK         0.0000 
     52 H52         6.5187   52.8965   26.9078 H         1 UNK         0.0000 
     53 H53         7.5341   54.2774   27.0521 H         1 UNK         0.0000 
     54 H54         5.7328   55.5823   28.1615 H         1 UNK         0.0000 
     55 H55         6.1029   54.1605   29.0852 H         1 UNK         0.0000 
     56 H56         7.0098   53.0349   24.4159 H         1 UNK         0.0000 
     57 H57         7.8509   54.5189   24.5317 H         1 UNK         0.0000 
     58 H58         5.2527   52.7990   22.8989 H         1 UNK         0.0000 
     59 H59         4.1918   54.8911   21.3647 H         1 UNK         0.0000 
     60 H60         3.9327   53.2031   21.0858 H         1 UNK         0.0000 
     61 H61         5.8809   53.0509   19.5891 H         1 UNK         0.0000 
     62 H62         6.4546   54.6281   20.0819 H         1 UNK         0.0000 
     63 H63         6.7518   56.8316   19.1052 H         1 UNK         0.0000 
     64 H64         6.6318   58.8852   17.8321 H         1 UNK         0.0000 
     65 H65         4.7570   59.2036   16.1778 H         1 UNK         0.0000 
     66 H66         3.1113   57.4901   15.7854 H         1 UNK         0.0000 
     67 H67         2.7634   53.8328   18.8197 H         1 UNK         0.0000 
     68 H68         3.8427   53.1212   17.5823 H         1 UNK         0.0000 
     69 H69         2.3424   54.9592   16.5577 H         1 UNK         0.0000 
@<TRIPOS>BOND
     1    1    2 1    
     2    1   36 1    
     3    1   37 1    
     4    1   38 1    
     5    2    6 1    
     6    2    3 2    
     7    3    4 1    
     8    3   13 1    
     9    4    5 1    
    10    4   39 1    
    11    4   40 1    
    12    5    6 1    
    13    5    7 1    
    14    6   41 1    
    15    7   12 ar   
    16    7    8 ar   
    17    8    9 ar   
    18    8   42 1    
    19    9   10 ar   
    20    9   43 1    
    21   10   11 ar   
    22   10   44 1    
    23   11   12 ar   
    24   11   45 1    
    25   12   46 1    
    26   13   14 2    
    27   13   15 am   BACKBONE|DICT|INTERRES
    28   15   20 1    
    29   15   16 1    
    30   16   17 1    
    31   16   47 1    
    32   16   48 1    
    33   17   18 1    
    34   17   49 1    
    35   17   50 1    
    36   18   19 1    
    37   18   21 1    
    38   18   51 1    
    39   19   20 1    
    40   19   52 1    
    41   19   53 1    
    42   20   54 1    
    43   20   55 1    
    44   21   22 1    
    45   21   56 1    
    46   21   57 1    
    47   22   23 2    
    48   22   24 am   BACKBONE|DICT|INTERRES
    49   24   25 1    
    50   24   58 1    
    51   25   26 1    
    52   25   59 1    
    53   25   60 1    
    54   26   27 1    
    55   26   61 1    
    56   26   62 1    
    57   27   35 1    
    58   27   28 2    
    59   28   33 1    
    60   28   29 1    
    61   29   30 2    
    62   29   63 1    
    63   30   31 1    
    64   30   64 1    
    65   31   32 2    
    66   31   65 1    
    67   32   33 1    
    68   32   66 1    
    69   33   34 2    
    70   34   35 1    
    71   34   69 1    
    72   35   67 1    
    73   35   68 1    
@<TRIPOS>SUBSTRUCTURE
     1 UNK         1 GROUP             0       ****    0 ROOT    
