@<TRIPOS>MOLECULE
ZINC44784609_4737
50   51    1
SMALL
USER_CHARGES


@<TRIPOS>ATOM
      1 C1          4.9674   54.6120   28.7891 C.3       1 UNK         0.0000 
      2 C2          3.9823   53.6997   28.0526 C.3       1 UNK         0.0000 
      3 C3          3.2609   54.4938   26.9517 C.3       1 UNK         0.0000 
      4 C4          2.3184   53.5884   26.1446 C.3       1 UNK         0.0000 
      5 C5          1.3066   52.8334   27.0350 C.3       1 UNK         0.0000 
      6 C6          1.9385   52.1864   28.2988 C.3       1 UNK         0.0000 
      7 C7          2.9272   53.1270   29.0183 C.3       1 UNK         0.0000 
      8 N8          0.4297   51.9875   26.2353 N.am      1 UNK         0.0000 
      9 C9         -0.7312   51.4262   26.6196 C.2       1 UNK         0.0000 
     10 O10        -1.1420   51.5266   27.7771 O.2       1 UNK         0.0000 
     11 C11        -1.5582   50.6568   25.5198 C.3       1 UNK         0.0000 
     12 C12        -3.1051   50.8263   25.8321 C.3       1 UNK         0.0000 
     13 C13        -3.6689   52.2550   26.0698 C.3       1 UNK         0.0000 
     14 C14        -3.9712   53.1102   24.8270 C.3       1 UNK         0.0000 
     15 C15        -3.1312   52.8519   23.5673 C.3       1 UNK         0.0000 
     16 C16        -1.6222   52.6421   23.7473 C.3       1 UNK         0.0000 
     17 C17        -1.2421   51.1859   24.0739 C.3       1 UNK         0.0000 
     18 C18        -1.1448   49.1335   25.5059 C.2       1 UNK         0.0000 
     19 N19        -2.0688   48.2733   25.2822 N.2       1 UNK         0.0000 
     20 O20        -1.6959   46.9242   25.4595 O.3       1 UNK         0.0000 
     21 N21         0.2143   48.8964   25.6830 N.pl3     1 UNK         0.0000 
     22 H22         4.4478   55.4312   29.2836 H         1 UNK         0.0000 
     23 H23         5.5043   54.0745   29.5545 H         1 UNK         0.0000 
     24 H24         5.7088   55.0370   28.1114 H         1 UNK         0.0000 
     25 H25         4.5278   52.8740   27.5903 H         1 UNK         0.0000 
     26 H26         3.9874   54.9606   26.2870 H         1 UNK         0.0000 
     27 H27         2.7079   55.3239   27.3913 H         1 UNK         0.0000 
     28 H28         2.9334   52.8670   25.6060 H         1 UNK         0.0000 
     29 H29         1.7970   54.1741   25.3884 H         1 UNK         0.0000 
     30 H30         0.6657   53.6226   27.4429 H         1 UNK         0.0000 
     31 H31         1.1667   51.8711   29.0011 H         1 UNK         0.0000 
     32 H32         2.4843   51.2932   28.0041 H         1 UNK         0.0000 
     33 H33         2.3804   53.9423   29.4957 H         1 UNK         0.0000 
     34 H34         3.4157   52.6052   29.8423 H         1 UNK         0.0000 
     35 H35         0.7440   51.8102   25.2946 H         1 UNK         0.0000 
     36 H36        -3.3363   50.2507   26.7320 H         1 UNK         0.0000 
     37 H37        -3.7002   50.3575   25.0467 H         1 UNK         0.0000 
     38 H38        -3.0194   52.8297   26.7292 H         1 UNK         0.0000 
     39 H39        -4.5937   52.1619   26.6405 H         1 UNK         0.0000 
     40 H40        -3.8891   54.1621   25.1033 H         1 UNK         0.0000 
     41 H41        -5.0208   52.9725   24.5564 H         1 UNK         0.0000 
     42 H42        -3.2832   53.6884   22.8835 H         1 UNK         0.0000 
     43 H43        -3.5463   51.9918   23.0403 H         1 UNK         0.0000 
     44 H44        -1.2219   53.3399   24.4819 H         1 UNK         0.0000 
     45 H45        -1.1311   52.8968   22.8070 H         1 UNK         0.0000 
     46 H46        -1.7337   50.5469   23.3361 H         1 UNK         0.0000 
     47 H47        -0.1797   51.0632   23.8475 H         1 UNK         0.0000 
     48 H48        -0.8760   47.0014   25.9667 H         1 UNK         0.0000 
     49 H49         0.5753   47.9514   25.7283 H         1 UNK         0.0000 
     50 H50         0.7554   49.5985   26.1599 H         1 UNK         0.0000 
@<TRIPOS>BOND
     1    1    2 1    
     2    1   22 1    
     3    1   23 1    
     4    1   24 1    
     5    2    7 1    
     6    2    3 1    
     7    2   25 1    
     8    3    4 1    
     9    3   26 1    
    10    3   27 1    
    11    4    5 1    
    12    4   28 1    
    13    4   29 1    
    14    5    6 1    
    15    5    8 1    
    16    5   30 1    
    17    6    7 1    
    18    6   31 1    
    19    6   32 1    
    20    7   33 1    
    21    7   34 1    
    22    8    9 am   BACKBONE|DICT|INTERRES
    23    8   35 1    
    24    9   10 2    
    25    9   11 1    
    26   11   17 1    
    27   11   12 1    
    28   11   18 1    
    29   12   13 1    
    30   12   36 1    
    31   12   37 1    
    32   13   14 1    
    33   13   38 1    
    34   13   39 1    
    35   14   15 1    
    36   14   40 1    
    37   14   41 1    
    38   15   16 1    
    39   15   42 1    
    40   15   43 1    
    41   16   17 1    
    42   16   44 1    
    43   16   45 1    
    44   17   46 1    
    45   17   47 1    
    46   18   19 2    
    47   18   21 1    
    48   19   20 1    
    49   20   48 1    
    50   21   49 1    
    51   21   50 1    
@<TRIPOS>SUBSTRUCTURE
     1 UNK         1 GROUP             0       ****    0 ROOT    
