ZINC46659270_38
                    3D
 Schrodinger Suite 2024-2.
 57 60  0  0  1  0            999 V2000
    6.8074   53.7098   25.6915 C   0  0  0  0  0  0
    5.7934   54.7480   25.1779 C   0  0  0  0  0  0
    4.9789   55.2095   26.4019 C   0  0  0  0  0  0
    6.5708   55.9742   24.6533 C   0  0  0  0  0  0
    4.9028   54.1351   24.0644 C   0  0  0  0  0  0
    5.4848   53.6939   22.8683 C   0  0  0  0  0  0
    4.7192   53.0654   21.8857 C   0  0  0  0  0  0
    3.3439   52.8634   22.0780 C   0  0  0  0  0  0
    2.7513   53.3594   23.2453 C   0  0  0  0  0  0
    3.5164   53.9848   24.2219 C   0  0  0  0  0  0
    2.4828   52.1228   21.0747 C   0  0  0  0  0  0
    1.2541   52.1305   21.1902 O   0  0  0  0  0  0
    3.1043   51.4519   20.0813 N   0  0  0  0  0  0
    2.3819   50.7388   19.0156 C   0  0  0  0  0  0
    1.7179   51.7035   18.0090 C   0  0  0  0  0  0
    0.7355   51.3153   17.3750 O   0  0  0  0  0  0
    2.2682   52.9292   17.8569 N   0  0  0  0  0  0
    1.6967   54.0627   17.2606 C   0  0  0  0  0  0
    2.5624   55.0286   16.7341 C   0  0  0  0  0  0
    2.0566   56.2181   16.2037 C   0  0  0  0  0  0
    0.6854   56.4568   16.2198 C   0  0  0  0  0  0
   -0.1797   55.5044   16.7684 C   0  0  0  0  0  0
    0.3141   54.3033   17.2817 C   0  0  0  0  0  0
   -1.6536   55.8281   16.8358 C   0  0  0  0  0  0
   -2.4927   55.1220   17.3961 O   0  0  0  0  0  0
   -1.9629   57.0160   16.2289 N   0  0  0  0  0  0
   -1.0505   57.8990   15.6949 C   0  0  0  0  0  0
    0.2084   57.6626   15.6841 N   0  0  0  0  0  0
   -1.7682   59.1276   15.1928 C   0  0  0  0  0  0
   -3.2219   58.6755   15.1075 C   0  0  0  0  0  0
   -3.3425   57.4616   16.0248 C   0  0  0  0  0  0
    6.2959   52.8978   26.2029 H   0  0  0  0  0  0
    7.4081   53.2963   24.8817 H   0  0  0  0  0  0
    7.4973   54.1405   26.4193 H   0  0  0  0  0  0
    5.6149   55.6723   27.1577 H   0  0  0  0  0  0
    4.2306   55.9315   26.0817 H   0  0  0  0  0  0
    4.4603   54.3819   26.8884 H   0  0  0  0  0  0
    7.1101   55.7724   23.7279 H   0  0  0  0  0  0
    5.9045   56.8161   24.4817 H   0  0  0  0  0  0
    7.3064   56.3148   25.3802 H   0  0  0  0  0  0
    6.5465   53.8057   22.7078 H   0  0  0  0  0  0
    5.2181   52.7239   20.9907 H   0  0  0  0  0  0
    1.6912   53.2398   23.4221 H   0  0  0  0  0  0
    3.0025   54.3133   25.1110 H   0  0  0  0  0  0
    4.1102   51.4528   20.0069 H   0  0  0  0  0  0
    3.0906   50.1079   18.4817 H   0  0  0  0  0  0
    1.6333   50.0681   19.4399 H   0  0  0  0  0  0
    3.1651   53.0723   18.2939 H   0  0  0  0  0  0
    3.6303   54.8631   16.7343 H   0  0  0  0  0  0
    2.7239   56.9615   15.7937 H   0  0  0  0  0  0
   -0.3582   53.5835   17.7292 H   0  0  0  0  0  0
   -1.6374   59.9419   15.9060 H   0  0  0  0  0  0
   -1.3751   59.4500   14.2282 H   0  0  0  0  0  0
   -3.9275   59.4617   15.3790 H   0  0  0  0  0  0
   -3.4497   58.3827   14.0799 H   0  0  0  0  0  0
   -3.9527   56.6706   15.5846 H   0  0  0  0  0  0
   -3.8180   57.6964   16.9757 H   0  0  0  0  0  0
  1  2  1  0  0  0
  1 32  1  0  0  0
  1 33  1  0  0  0
  1 34  1  0  0  0
  2  3  1  0  0  0
  2  4  1  0  0  0
  2  5  1  0  0  0
  3 35  1  0  0  0
  3 36  1  0  0  0
  3 37  1  0  0  0
  4 38  1  0  0  0
  4 39  1  0  0  0
  4 40  1  0  0  0
  5 10  2  0  0  0
  5  6  1  0  0  0
  6  7  2  0  0  0
  6 41  1  0  0  0
  7  8  1  0  0  0
  7 42  1  0  0  0
  8  9  2  0  0  0
  8 11  1  0  0  0
  9 10  1  0  0  0
  9 43  1  0  0  0
 10 44  1  0  0  0
 11 12  2  0  0  0
 11 13  1  0  0  0
 13 14  1  0  0  0
 13 45  1  0  0  0
 14 15  1  0  0  0
 14 46  1  0  0  0
 14 47  1  0  0  0
 15 16  2  0  0  0
 15 17  1  0  0  0
 17 18  1  0  0  0
 17 48  1  0  0  0
 18 23  2  0  0  0
 18 19  1  0  0  0
 19 20  2  0  0  0
 19 49  1  0  0  0
 20 21  1  0  0  0
 20 50  1  0  0  0
 21 28  1  0  0  0
 21 22  2  0  0  0
 22 23  1  0  0  0
 22 24  1  0  0  0
 23 51  1  0  0  0
 24 25  2  0  0  0
 24 26  1  0  0  0
 26 31  1  0  0  0
 26 27  1  0  0  0
 27 28  2  0  0  0
 27 29  1  0  0  0
 29 30  1  0  0  0
 29 52  1  0  0  0
 29 53  1  0  0  0
 30 31  1  0  0  0
 30 54  1  0  0  0
 30 55  1  0  0  0
 31 56  1  0  0  0
 31 57  1  0  0  0
M  END
> <i_i_glide_confnum>
4

> <i_i_glide_lignum>
39

> <i_i_glide_posenum>
329

> <i_i_glide_rotatable_bonds>
7

> <i_m_Source_File_Index>
774

> <b_m_subgroup_collapsed>
0

> <r_i_docking_score>
-4.81952

> <r_i_glide_ecoul>
-2.64558

> <r_i_glide_eff_state_penalty>
0

> <r_i_glide_einternal>
1.38521

> <r_i_glide_emodel>
-49.8196

> <r_i_glide_energy>
-35.631

> <r_i_glide_erotb>
0.564565

> <r_i_glide_esite>
-0.112984

> <r_i_glide_evdw>
-32.9854

> <r_i_glide_gscore>
-4.81952

> <r_i_glide_hbond>
-0.247125

> <r_i_glide_ligand_efficiency>
-0.155468

> <r_i_glide_ligand_efficiency_ln>
-1.08695

> <r_i_glide_ligand_efficiency_sa>
-0.488386

> <r_i_glide_lipo>
-2.3661

> <r_i_glide_metal>
0

> <r_i_glide_rewards>
-0.611773

> <s_i_glide_gridfile>
wee1_glide-grid

> <s_m_Source_File>
wee1_decoys_glide_SP.sdf

> <s_m_Source_Path>
/Users/zhangxujun/Desktop

> <s_m_entry_id>
1049

> <s_m_entry_name>
wee1_decoys_glide_SP.774

> <s_m_subgroup_title>
wee1_decoys_glide_SP

> <s_m_subgroupid>
wee1_decoys_glide_SP


$$$$
