@<TRIPOS>MOLECULE
ZINC12642276_5515
68   72    1
SMALL
USER_CHARGES


@<TRIPOS>ATOM
      1 C1          6.1606   54.4967   23.8732 C.3       1 UNK         0.0000 
      2 C2          5.8693   54.9423   25.3020 C.2       1 UNK         0.0000 
      3 O3          6.7044   55.6474   25.8672 O.2       1 UNK         0.0000 
      4 C4          4.6307   54.4221   25.9676 C.ar      1 UNK         0.0000 
      5 C5          4.5258   54.4960   27.3624 C.ar      1 UNK         0.0000 
      6 C6          3.3907   54.0191   28.0099 C.ar      1 UNK         0.0000 
      7 C7          2.3616   53.4359   27.2770 C.ar      1 UNK         0.0000 
      8 C8          2.4402   53.3210   25.8755 C.ar      1 UNK         0.0000 
      9 C9          3.5679   53.8643   25.2381 C.ar      1 UNK         0.0000 
     10 N10         1.4027   52.6817   25.1203 N.am      1 UNK         0.0000 
     11 C11         1.0934   52.9676   23.6858 C.3       1 UNK         0.0000 
     12 H12         1.0532   54.0406   23.5003 H         1 UNK         0.0000 
     13 C13        -0.2881   52.3370   23.5167 C.3       1 UNK         0.0000 
     14 C14        -0.9211   52.0641   22.1625 C.2       1 UNK         0.0000 
     15 C15        -2.2321   51.9766   22.4282 C.2       1 UNK         0.0000 
     16 C16        -2.3746   52.2365   23.9311 C.3       1 UNK         0.0000 
     17 O17        -1.3086   53.1459   24.0816 O.3       1 UNK         0.0000 
     18 C18        -1.8047   51.0863   24.8322 C.3       1 UNK         0.0000 
     19 H19        -1.9879   51.2983   25.8863 H         1 UNK         0.0000 
     20 C20        -0.2941   51.1772   24.4790 C.3       1 UNK         0.0000 
     21 H21         0.1120   50.2596   24.0471 H         1 UNK         0.0000 
     22 C22         0.6382   51.6432   25.6036 C.2       1 UNK         0.0000 
     23 O23         0.6698   51.1133   26.7167 O.2       1 UNK         0.0000 
     24 C24        -2.4161   49.6863   24.5310 C.2       1 UNK         0.0000 
     25 O25        -2.5354   49.3043   23.3620 O.2       1 UNK         0.0000 
     26 N26        -2.7877   48.9246   25.5843 N.am      1 UNK         0.0000 
     27 C27        -3.5379   47.7303   25.5247 C.ar      1 UNK         0.0000 
     28 C28        -4.5639   47.5223   24.5860 C.ar      1 UNK         0.0000 
     29 C29        -5.3111   46.3465   24.6165 C.ar      1 UNK         0.0000 
     30 C30        -5.0453   45.3806   25.5834 C.ar      1 UNK         0.0000 
     31 C31        -4.0347   45.5797   26.5203 C.ar      1 UNK         0.0000 
     32 C32        -3.2844   46.7529   26.4890 C.ar      1 UNK         0.0000 
     33 C33        -3.6947   52.8906   24.3630 C.3       1 UNK         0.0000 
     34 C34         2.0908   52.3297   22.6778 C.2       1 UNK         0.0000 
     35 O35         2.2648   51.1108   22.6842 O.2       1 UNK         0.0000 
     36 N36         2.7109   53.1585   21.8122 N.am      1 UNK         0.0000 
     37 C37         3.6333   52.8005   20.7199 C.3       1 UNK         0.0000 
     38 C38         4.7737   51.8754   21.1878 C.3       1 UNK         0.0000 
     39 C39         4.2914   54.0891   20.1834 C.3       1 UNK         0.0000 
     40 C40         2.8526   52.1183   19.5738 C.3       1 UNK         0.0000 
     41 H41         5.4126   54.8962   23.1880 H         1 UNK         0.0000 
     42 H42         7.1465   54.8297   23.5542 H         1 UNK         0.0000 
     43 H43         6.1309   53.4105   23.8165 H         1 UNK         0.0000 
     44 H44         5.3222   54.9287   27.9558 H         1 UNK         0.0000 
     45 H45         3.3162   54.0933   29.0846 H         1 UNK         0.0000 
     46 H46         1.4992   53.0814   27.8247 H         1 UNK         0.0000 
     47 H47         3.6492   53.8186   24.1679 H         1 UNK         0.0000 
     48 H48        -0.3912   51.8875   21.2387 H         1 UNK         0.0000 
     49 H49        -3.0400   51.6999   21.7714 H         1 UNK         0.0000 
     50 H50        -2.4151   49.1513   26.5015 H         1 UNK         0.0000 
     51 H51        -4.8016   48.2747   23.8460 H         1 UNK         0.0000 
     52 H52        -6.1095   46.1959   23.9010 H         1 UNK         0.0000 
     53 H53        -5.6385   44.4763   25.6164 H         1 UNK         0.0000 
     54 H54        -3.8331   44.8378   27.2810 H         1 UNK         0.0000 
     55 H55        -2.5012   46.8939   27.2228 H         1 UNK         0.0000 
     56 H56        -4.5283   52.1963   24.2444 H         1 UNK         0.0000 
     57 H57        -3.6559   53.1966   25.4072 H         1 UNK         0.0000 
     58 H58        -3.9092   53.7760   23.7656 H         1 UNK         0.0000 
     59 H59         2.4168   54.1245   21.7990 H         1 UNK         0.0000 
     60 H60         5.5018   51.7052   20.3924 H         1 UNK         0.0000 
     61 H61         4.4066   50.8965   21.4792 H         1 UNK         0.0000 
     62 H62         5.3097   52.2910   22.0387 H         1 UNK         0.0000 
     63 H63         3.5511   54.7705   19.7608 H         1 UNK         0.0000 
     64 H64         4.8246   54.6303   20.9647 H         1 UNK         0.0000 
     65 H65         5.0075   53.8734   19.3892 H         1 UNK         0.0000 
     66 H66         2.0558   52.7608   19.1951 H         1 UNK         0.0000 
     67 H67         3.5048   51.8732   18.7322 H         1 UNK         0.0000 
     68 H68         2.3912   51.1845   19.8980 H         1 UNK         0.0000 
@<TRIPOS>BOND
     1    1    2 1    
     2    1   41 1    
     3    1   42 1    
     4    1   43 1    
     5    2    3 2    
     6    2    4 1    
     7    4    9 ar   
     8    4    5 ar   
     9    5    6 ar   
    10    5   44 1    
    11    6    7 ar   
    12    6   45 1    
    13    7    8 ar   
    14    7   46 1    
    15    8    9 ar   
    16    8   10 1    
    17    9   47 1    
    18   10   22 am   BACKBONE|DICT|INTERRES
    19   10   11 1    
    20   11   12 1    
    21   11   13 1    
    22   11   34 1    
    23   13   17 1    
    24   13   20 1    
    25   13   14 1    
    26   14   15 2    
    27   14   48 1    
    28   15   16 1    
    29   15   49 1    
    30   16   17 1    
    31   16   18 1    
    32   16   33 1    
    33   18   19 1    
    34   18   20 1    
    35   18   24 1    
    36   20   21 1    
    37   20   22 1    
    38   22   23 2    
    39   24   25 2    
    40   24   26 am   BACKBONE|DICT|INTERRES
    41   26   27 1    
    42   26   50 1    
    43   27   32 ar   
    44   27   28 ar   
    45   28   29 ar   
    46   28   51 1    
    47   29   30 ar   
    48   29   52 1    
    49   30   31 ar   
    50   30   53 1    
    51   31   32 ar   
    52   31   54 1    
    53   32   55 1    
    54   33   56 1    
    55   33   57 1    
    56   33   58 1    
    57   34   35 2    
    58   34   36 am   BACKBONE|DICT|INTERRES
    59   36   37 1    
    60   36   59 1    
    61   37   38 1    
    62   37   39 1    
    63   37   40 1    
    64   38   60 1    
    65   38   61 1    
    66   38   62 1    
    67   39   63 1    
    68   39   64 1    
    69   39   65 1    
    70   40   66 1    
    71   40   67 1    
    72   40   68 1    
@<TRIPOS>SUBSTRUCTURE
     1 UNK         1 GROUP             0       ****    0 ROOT    
