@<TRIPOS>MOLECULE
ZINC15673896_261
58   62    1
SMALL
USER_CHARGES


@<TRIPOS>ATOM
      1 C1          0.3925   51.1129   26.4711 C.3       1 UNK         0.0000 
      2 C2         -0.8993   51.5717   25.8306 C.ar      1 UNK         0.0000 
      3 C3         -1.1519   51.9048   24.4824 C.ar      1 UNK         0.0000 
      4 C4         -2.4948   52.2509   24.4603 C.ar      1 UNK         0.0000 
      5 N5         -2.9508   52.0940   25.7489 N.pl3     1 UNK         0.0000 
      6 N6         -1.9742   51.7013   26.5756 N.2       1 UNK         0.0000 
      7 C7         -4.2564   52.3123   26.2482 C.ar      1 UNK         0.0000 
      8 C8         -4.8260   53.5836   26.0831 C.ar      1 UNK         0.0000 
      9 C9         -6.0950   53.8605   26.5902 C.ar      1 UNK         0.0000 
     10 C10        -6.8042   52.8735   27.2667 C.ar      1 UNK         0.0000 
     11 C11        -6.2537   51.6033   27.4234 C.ar      1 UNK         0.0000 
     12 C12        -4.9852   51.2957   26.9087 C.ar      1 UNK         0.0000 
     13 N13        -4.4820   49.9092   27.0487 N.pl3     1 UNK         0.0000 
     14 O14        -3.9369   49.3857   26.0809 O.co2     1 UNK         0.0000 
     15 O15        -4.6959   49.3302   28.1094 O.co2     1 UNK         0.0000 
     16 C16        -3.3794   52.6905   23.3193 C.3       1 UNK         0.0000 
     17 C17        -0.2036   51.9154   23.2921 C.3       1 UNK         0.0000 
     18 H18        -0.8008   52.0772   22.3979 H         1 UNK         0.0000 
     19 C19         0.8611   53.0074   23.3746 C.3       1 UNK         0.0000 
     20 C20         2.2281   52.3300   23.3256 C.3       1 UNK         0.0000 
     21 H21         2.7289   52.4157   24.2878 H         1 UNK         0.0000 
     22 C22         1.9042   50.8762   23.0474 C.2       1 UNK         0.0000 
     23 C23         0.5833   50.6439   23.0752 C.2       1 UNK         0.0000 
     24 C24         3.6874   54.3368   22.5601 C.3       1 UNK         0.0000 
     25 C25         4.8596   54.3424   23.5263 C.ar      1 UNK         0.0000 
     26 C26         6.1997   54.4323   23.1985 C.ar      1 UNK         0.0000 
     27 N27         6.9771   54.4500   24.3256 N.pl3     1 UNK         0.0000 
     28 H28         7.9869   54.5233   24.2760 H         1 UNK         0.0000 
     29 C29         6.1732   54.4005   25.4438 C.ar      1 UNK         0.0000 
     30 C30         4.8232   54.3476   24.9713 C.ar      1 UNK         0.0000 
     31 C31         3.7875   54.3227   25.9200 C.ar      1 UNK         0.0000 
     32 C32         4.1029   54.3266   27.2773 C.ar      1 UNK         0.0000 
     33 C33         5.4256   54.3669   27.7052 C.ar      1 UNK         0.0000 
     34 C34         6.4905   54.4067   26.8069 C.ar      1 UNK         0.0000 
     35 H35         0.7003   50.1386   26.0943 H         1 UNK         0.0000 
     36 H36         1.2062   51.8081   26.2685 H         1 UNK         0.0000 
     37 H37         0.3182   51.0183   27.5557 H         1 UNK         0.0000 
     38 H38        -4.2760   54.3707   25.5886 H         1 UNK         0.0000 
     39 H39        -6.5284   54.8432   26.4798 H         1 UNK         0.0000 
     40 H40        -7.7878   53.0870   27.6614 H         1 UNK         0.0000 
     41 H41        -6.8261   50.8415   27.9346 H         1 UNK         0.0000 
     42 H42        -2.8955   52.5749   22.3519 H         1 UNK         0.0000 
     43 H43        -4.2947   52.0993   23.2817 H         1 UNK         0.0000 
     44 H44        -3.6667   53.7381   23.4042 H         1 UNK         0.0000 
     45 H45         0.7604   53.6222   24.2708 H         1 UNK         0.0000 
     46 H46         0.7457   53.6917   22.5353 H         1 UNK         0.0000 
     47 H47         2.6700   50.1249   22.9030 H         1 UNK         0.0000 
     48 H48         0.0998   49.6853   22.9471 H         1 UNK         0.0000 
     49 H49         2.8141   54.8972   22.8899 H         1 UNK         0.0000 
     50 H50         3.9661   54.6877   21.5648 H         1 UNK         0.0000 
     51 H51         6.6748   54.5085   22.2310 H         1 UNK         0.0000 
     52 H52         2.7555   54.2990   25.6102 H         1 UNK         0.0000 
     53 H53         3.3082   54.2995   28.0102 H         1 UNK         0.0000 
     54 H54         5.6345   54.3745   28.7654 H         1 UNK         0.0000 
     55 H55         7.5039   54.4387   27.1701 H         1 UNK         0.0000 
     56 N56         3.2172   52.8962   22.2923 N.4       1 UNK         0.0000 
     57 H57         2.7492   52.8785   21.3951 H         1 UNK         0.0000 
     58 H58         4.0286   52.2991   22.2210 H         1 UNK         0.0000 
@<TRIPOS>BOND
     1    1    2 1    
     2    1   35 1    
     3    1   36 1    
     4    1   37 1    
     5    2    6 ar   
     6    2    3 ar   
     7    3    4 ar   
     8    3   17 1    
     9    4    5 ar   
    10    4   16 1    
    11    5    6 ar   
    12    5    7 1    
    13    7   12 ar   
    14    7    8 ar   
    15    8    9 ar   
    16    8   38 1    
    17    9   10 ar   
    18    9   39 1    
    19   10   11 ar   
    20   10   40 1    
    21   11   12 ar   
    22   11   41 1    
    23   12   13 1    
    24   13   14 2    
    25   13   15 1    
    26   16   42 1    
    27   16   43 1    
    28   16   44 1    
    29   17   18 1    
    30   17   23 1    
    31   17   19 1    
    32   19   20 1    
    33   19   45 1    
    34   19   46 1    
    35   20   21 1    
    36   20   22 1    
    37   20   56 1    
    38   22   23 2    
    39   22   47 1    
    40   23   48 1    
    41   24   25 1    
    42   24   49 1    
    43   24   50 1    
    44   24   56 1    
    45   25   30 ar   
    46   25   26 ar   
    47   26   27 ar   
    48   26   51 1    
    49   27   28 1    
    50   27   29 ar   
    51   29   34 ar   
    52   29   30 ar   
    53   30   31 ar   
    54   31   32 ar   
    55   31   52 1    
    56   32   33 ar   
    57   32   53 1    
    58   33   34 ar   
    59   33   54 1    
    60   34   55 1    
    61   56   57 1    
    62   56   58 1    
@<TRIPOS>SUBSTRUCTURE
     1 UNK         1 GROUP             0       ****    0 ROOT    
