@<TRIPOS>MOLECULE
ZINC41062467_1744
24   25    1
SMALL
USER_CHARGES


@<TRIPOS>ATOM
      1 C1          1.0931   49.8837   23.0044 C.3       1 UNK         0.0000 
      2 C2          0.3574   49.9135   24.3251 C.ar      1 UNK         0.0000 
      3 N3         -0.0101   51.0546   24.8945 N.2       1 UNK         0.0000 
      4 H4         -0.8507   48.7227   26.8484 H         1 UNK         0.0000 
      5 C5         -0.5468   50.6588   26.0225 C.ar      1 UNK         0.0000 
      6 N6         -0.4956   49.2970   26.0817 N.pl3     1 UNK         0.0000 
      7 N7          0.0876   48.8092   24.9888 N.2       1 UNK         0.0000 
      8 S8         -1.2364   51.6967   27.2678 S.3       1 UNK         0.0000 
      9 C9          0.2135   52.1413   28.2036 C.ar      1 UNK         0.0000 
     10 C10         1.3620   52.5647   27.5253 C.ar      1 UNK         0.0000 
     11 C11         2.5002   52.9429   28.2302 C.ar      1 UNK         0.0000 
     12 C12         2.4943   52.9165   29.6211 C.ar      1 UNK         0.0000 
     13 C13         1.3537   52.5127   30.3128 C.ar      1 UNK         0.0000 
     14 C14         0.2130   52.1189   29.6126 C.ar      1 UNK         0.0000 
     15 N15        -0.8956   51.6967   30.3476 N.pl3     1 UNK         0.0000 
     16 Cl16        3.9044   53.3891   30.4817 Cl        1 UNK         0.0000 
     17 H17         1.6105   48.9414   22.8188 H         1 UNK         0.0000 
     18 H18         1.8790   50.6396   23.0013 H         1 UNK         0.0000 
     19 H19         0.4519   50.1462   22.1632 H         1 UNK         0.0000 
     20 H20         1.3812   52.6141   26.4477 H         1 UNK         0.0000 
     21 H21         3.3837   53.2598   27.6950 H         1 UNK         0.0000 
     22 H22         1.3573   52.4967   31.3937 H         1 UNK         0.0000 
     23 H23        -0.8956   51.6967   31.3710 H         1 UNK         0.0000 
     24 H24        -1.5813   51.1256   29.8694 H         1 UNK         0.0000 
@<TRIPOS>BOND
     1    1   17 1    
     2    1   18 1    
     3    1   19 1    
     4    1    2 1    
     5    2    3 ar   
     6    2    7 ar   
     7    3    5 ar   
     8    4    6 1    
     9    5    8 1    
    10    5    6 ar   
    11    6    7 ar   
    12    8    9 1    
    13    9   14 ar   
    14    9   10 ar   
    15   10   11 ar   
    16   10   20 1    
    17   11   12 ar   
    18   11   21 1    
    19   12   13 ar   
    20   12   16 1    
    21   13   14 ar   
    22   13   22 1    
    23   14   15 1    
    24   15   23 1    
    25   15   24 1    
@<TRIPOS>SUBSTRUCTURE
     1 UNK         1 GROUP             0       ****    0 ROOT    
