ZINC45599194_92
                    3D
 Schrodinger Suite 2024-2.
 54 58  0  0  1  0            999 V2000
   -3.2197   49.2275   22.3214 C   0  0  0  0  0  0
   -2.6297   50.0880   23.4536 C   0  0  1  0  0  0
   -3.1917   51.0242   23.4625 H   0  0  0  0  0  0
   -2.7474   49.3784   24.8169 C   0  0  0  0  0  0
   -2.3645   50.3054   25.9899 C   0  0  0  0  0  0
   -1.0584   51.0377   25.6756 C   0  0  0  0  0  0
   -0.5417   51.1012   24.3800 C   0  0  0  0  0  0
    0.9363   52.0134   24.2580 S   0  0  0  0  0  0
    0.8414   52.4340   25.9489 C   0  0  0  0  0  0
   -0.2526   51.7886   26.6010 C   0  0  0  0  0  0
   -0.3311   52.0322   27.9961 C   0  0  0  0  0  0
    0.5233   52.8810   28.6207 N   0  0  0  0  0  0
    1.4825   53.4618   27.8584 C   0  0  0  0  0  0
    1.7150   53.2578   26.5372 N   0  0  0  0  0  0
    2.4182   54.4260   28.5685 C   0  0  0  0  0  0
    3.8625   53.5722   29.2812 S   0  0  0  0  0  0
    5.0997   53.9136   28.0702 C   0  0  0  0  0  0
    6.3867   53.6960   28.1673 N   0  0  0  0  0  0
    6.9403   54.1011   26.9598 N   0  0  0  0  0  0
    5.9395   54.5183   26.2288 C   0  0  0  0  0  0
    4.7450   54.4319   26.8667 O   0  0  0  0  0  0
    5.9973   55.1183   24.8446 C   0  0  0  0  0  0
    5.1886   54.3494   23.8089 C   0  0  0  0  0  0
    5.8361   53.5438   22.8735 C   0  0  0  0  0  0
    5.1034   52.9004   21.8767 C   0  0  0  0  0  0
    3.7174   53.0859   21.7862 C   0  0  0  0  0  0
    3.0838   53.9037   22.7177 C   0  0  0  0  0  0
    3.8020   54.4966   23.7495 C   0  0  0  0  0  0
    2.9110   52.5038   20.8280 O   0  0  0  0  0  0
    3.5033   51.6916   19.8183 C   0  0  0  0  0  0
   -1.2765   51.4149   28.8126 N   0  0  0  0  0  0
   -1.1429   50.4017   23.1660 C   0  0  0  0  0  0
   -2.7055   48.2691   22.2355 H   0  0  0  0  0  0
   -4.2772   49.0209   22.4926 H   0  0  0  0  0  0
   -3.1404   49.7332   21.3584 H   0  0  0  0  0  0
   -3.7725   49.0362   24.9662 H   0  0  0  0  0  0
   -2.1556   48.4606   24.8203 H   0  0  0  0  0  0
   -2.2724   49.6964   26.8820 H   0  0  0  0  0  0
   -3.1609   51.0247   26.1839 H   0  0  0  0  0  0
    1.8814   54.9298   29.3728 H   0  0  0  0  0  0
    2.7087   55.2374   27.9015 H   0  0  0  0  0  0
    7.0316   55.2073   24.5060 H   0  0  0  0  0  0
    5.6104   56.1357   24.8853 H   0  0  0  0  0  0
    6.9092   53.4219   22.8953 H   0  0  0  0  0  0
    5.6161   52.2705   21.1684 H   0  0  0  0  0  0
    2.0202   54.0724   22.6387 H   0  0  0  0  0  0
    3.2846   55.1159   24.4673 H   0  0  0  0  0  0
    2.7319   51.3446   19.1302 H   0  0  0  0  0  0
    3.9814   50.8090   20.2458 H   0  0  0  0  0  0
    4.2374   52.2486   19.2335 H   0  0  0  0  0  0
   -1.7512   50.5899   28.4611 H   0  0  0  0  0  0
   -1.2256   51.5668   29.8104 H   0  0  0  0  0  0
   -1.0440   51.0167   22.2703 H   0  0  0  0  0  0
   -0.5920   49.4790   22.9772 H   0  0  0  0  0  0
  1  2  1  0  0  0
  1 33  1  0  0  0
  1 34  1  0  0  0
  1 35  1  0  0  0
  2  3  1  0  0  0
  2 32  1  0  0  0
  2  4  1  0  0  0
  4  5  1  0  0  0
  4 36  1  0  0  0
  4 37  1  0  0  0
  5  6  1  0  0  0
  5 38  1  0  0  0
  5 39  1  0  0  0
  6 10  1  0  0  0
  6  7  2  0  0  0
  7  8  1  0  0  0
  7 32  1  0  0  0
  8  9  1  0  0  0
  9 14  2  0  0  0
  9 10  1  0  0  0
 10 11  2  0  0  0
 11 12  1  0  0  0
 11 31  1  0  0  0
 12 13  2  0  0  0
 13 14  1  0  0  0
 13 15  1  0  0  0
 15 16  1  0  0  0
 15 40  1  0  0  0
 15 41  1  0  0  0
 16 17  1  0  0  0
 17 21  1  0  0  0
 17 18  2  0  0  0
 18 19  1  0  0  0
 19 20  2  0  0  0
 20 21  1  0  0  0
 20 22  1  0  0  0
 22 23  1  0  0  0
 22 42  1  0  0  0
 22 43  1  0  0  0
 23 28  2  0  0  0
 23 24  1  0  0  0
 24 25  2  0  0  0
 24 44  1  0  0  0
 25 26  1  0  0  0
 25 45  1  0  0  0
 26 27  2  0  0  0
 26 29  1  0  0  0
 27 28  1  0  0  0
 27 46  1  0  0  0
 28 47  1  0  0  0
 29 30  1  0  0  0
 30 48  1  0  0  0
 30 49  1  0  0  0
 30 50  1  0  0  0
 31 51  1  0  0  0
 31 52  1  0  0  0
 32 53  1  0  0  0
 32 54  1  0  0  0
M  END
> <i_i_glide_confnum>
70

> <i_i_glide_lignum>
93

> <i_i_glide_posenum>
236

> <i_i_glide_rotatable_bonds>
6

> <i_m_Source_File_Index>
5007

> <b_m_subgroup_collapsed>
0

> <r_i_docking_score>
-5.30377

> <r_i_glide_ecoul>
-1.25963

> <r_i_glide_eff_state_penalty>
0

> <r_i_glide_einternal>
1.54912

> <r_i_glide_emodel>
-61.321

> <r_i_glide_energy>
-46.0427

> <r_i_glide_erotb>
0.487863

> <r_i_glide_esite>
-0.0885991

> <r_i_glide_evdw>
-44.783

> <r_i_glide_gscore>
-5.30377

> <r_i_glide_hbond>
-0.0641703

> <r_i_glide_ligand_efficiency>
-0.171089

> <r_i_glide_ligand_efficiency_ln>
-1.19616

> <r_i_glide_ligand_efficiency_sa>
-0.537456

> <r_i_glide_lipo>
-2.58148

> <r_i_glide_metal>
0

> <r_i_glide_rewards>
-0.629288

> <s_i_glide_gridfile>
wee1_glide-grid

> <s_m_Source_File>
wee1_decoys_glide_SP.sdf

> <s_m_Source_Path>
/Users/zhangxujun/Desktop

> <s_m_entry_id>
5282

> <s_m_entry_name>
wee1_decoys_glide_SP.5007

> <s_m_subgroup_title>
wee1_decoys_glide_SP

> <s_m_subgroupid>
wee1_decoys_glide_SP


$$$$
