@<TRIPOS>MOLECULE
ZINC13360642_3211
53   56    1
SMALL
USER_CHARGES


@<TRIPOS>ATOM
      1 C1          2.4674   51.7431   16.3306 C.3       1 UNK         0.0000 
      2 C2          1.9054   51.2982   17.6706 C.ar      1 UNK         0.0000 
      3 C3          2.5304   51.6966   18.8539 C.ar      1 UNK         0.0000 
      4 C4          2.0433   51.2641   20.0869 C.ar      1 UNK         0.0000 
      5 C5          0.9318   50.4199   20.1529 C.ar      1 UNK         0.0000 
      6 C6          0.2993   50.0272   18.9627 C.ar      1 UNK         0.0000 
      7 C7          0.7852   50.4633   17.7308 C.ar      1 UNK         0.0000 
      8 F8          0.1589   50.0723   16.5959 F         1 UNK         0.0000 
      9 N9          0.5155   50.0432   21.4402 N.am      1 UNK         0.0000 
     10 C10        -0.3480   49.0752   21.8234 C.2       1 UNK         0.0000 
     11 O11        -0.8944   48.2882   21.0550 O.2       1 UNK         0.0000 
     12 N12        -0.5740   48.9603   23.1502 N.am      1 UNK         0.0000 
     13 C13        -0.1021   49.7711   24.1736 C.2       1 UNK         0.0000 
     14 N14         0.0612   51.0732   24.1348 N.2       1 UNK         0.0000 
     15 C15         0.5132   51.5385   25.2819 C.2       1 UNK         0.0000 
     16 C16         0.7010   50.5968   26.3032 C.2       1 UNK         0.0000 
     17 S17         0.2915   49.0255   25.6820 S.3       1 UNK         0.0000 
     18 C18         1.1907   50.9236   27.7156 C.3       1 UNK         0.0000 
     19 N19         1.5681   52.3614   27.7685 N.pl3     1 UNK         0.0000 
     20 C20         0.7047   53.2964   27.0147 C.3       1 UNK         0.0000 
     21 C21         0.8166   53.0116   25.4869 C.3       1 UNK         0.0000 
     22 S22         2.8232   52.9789   28.8738 S.o2      1 UNK         0.0000 
     23 O23         2.2875   54.1615   29.5577 O.2       1 UNK         0.0000 
     24 O24         3.3704   51.8539   29.6444 O.2       1 UNK         0.0000 
     25 C25         4.1357   53.5925   27.8067 C.ar      1 UNK         0.0000 
     26 C26         3.8226   54.3649   26.6897 C.ar      1 UNK         0.0000 
     27 C27         4.8143   54.7702   25.8117 C.ar      1 UNK         0.0000 
     28 C28         6.1545   54.4850   26.0868 C.ar      1 UNK         0.0000 
     29 C29         6.4737   53.7542   27.2320 C.ar      1 UNK         0.0000 
     30 C30         5.4691   53.2975   28.0823 C.ar      1 UNK         0.0000 
     31 O31         7.1997   54.8928   25.2874 O.3       1 UNK         0.0000 
     32 C32         6.9446   55.6878   24.1372 C.3       1 UNK         0.0000 
     33 H33         1.8182   52.4849   15.8658 H         1 UNK         0.0000 
     34 H34         2.5387   50.8899   15.6549 H         1 UNK         0.0000 
     35 H35         3.4753   52.1503   16.4291 H         1 UNK         0.0000 
     36 H36         3.4078   52.3259   18.8190 H         1 UNK         0.0000 
     37 H37         2.5473   51.5824   20.9881 H         1 UNK         0.0000 
     38 H38        -0.5719   49.3913   18.9638 H         1 UNK         0.0000 
     39 H39         0.9633   50.5442   22.1918 H         1 UNK         0.0000 
     40 H40        -1.0530   48.1214   23.4406 H         1 UNK         0.0000 
     41 H41         0.3900   50.7706   28.4401 H         1 UNK         0.0000 
     42 H42         2.0448   50.3259   28.0258 H         1 UNK         0.0000 
     43 H43        -0.3176   53.1544   27.3694 H         1 UNK         0.0000 
     44 H44         0.9841   54.3149   27.2824 H         1 UNK         0.0000 
     45 H45         1.8257   53.2059   25.1261 H         1 UNK         0.0000 
     46 H46         0.1602   53.6401   24.8817 H         1 UNK         0.0000 
     47 H47         2.8153   54.6521   26.4674 H         1 UNK         0.0000 
     48 H48         4.5188   55.2981   24.9210 H         1 UNK         0.0000 
     49 H49         7.5038   53.5204   27.4516 H         1 UNK         0.0000 
     50 H50         5.7254   52.7055   28.9443 H         1 UNK         0.0000 
     51 H51         7.8862   56.0970   23.7694 H         1 UNK         0.0000 
     52 H52         6.4871   55.1006   23.3389 H         1 UNK         0.0000 
     53 H53         6.3040   56.5362   24.3714 H         1 UNK         0.0000 
@<TRIPOS>BOND
     1    1    2 1    
     2    1   33 1    
     3    1   34 1    
     4    1   35 1    
     5    2    7 ar   
     6    2    3 ar   
     7    3    4 ar   
     8    3   36 1    
     9    4    5 ar   
    10    4   37 1    
    11    5    6 ar   
    12    5    9 1    
    13    6    7 ar   
    14    6   38 1    
    15    7    8 1    
    16    9   10 am   BACKBONE|DICT|INTERRES
    17    9   39 1    
    18   10   11 2    
    19   10   12 am   BACKBONE|DICT|INTERRES
    20   12   13 am   BACKBONE|DICT|INTERRES
    21   12   40 1    
    22   13   17 1    
    23   13   14 2    
    24   14   15 1    
    25   15   21 1    
    26   15   16 2    
    27   16   17 1    
    28   16   18 1    
    29   18   19 1    
    30   18   41 1    
    31   18   42 1    
    32   19   20 1    
    33   19   22 1    
    34   20   21 1    
    35   20   43 1    
    36   20   44 1    
    37   21   45 1    
    38   21   46 1    
    39   22   23 2    
    40   22   24 2    
    41   22   25 1    
    42   25   30 ar   
    43   25   26 ar   
    44   26   27 ar   
    45   26   47 1    
    46   27   28 ar   
    47   27   48 1    
    48   28   29 ar   
    49   28   31 1    
    50   29   30 ar   
    51   29   49 1    
    52   30   50 1    
    53   31   32 1    
    54   32   51 1    
    55   32   52 1    
    56   32   53 1    
@<TRIPOS>SUBSTRUCTURE
     1 UNK         1 GROUP             0       ****    0 ROOT    
