ZINC39696162_3696
                    3D
 Schrodinger Suite 2024-2.
 68 71  0  0  1  0            999 V2000
    2.4029   52.8345   30.4085 C   0  0  0  0  0  0
    3.9046   53.0598   30.1519 C   0  0  0  0  0  0
    4.3071   53.5173   28.7487 C   0  0  0  0  0  0
    3.3729   53.7264   27.7323 C   0  0  0  0  0  0
    3.7978   54.0970   26.4611 C   0  0  0  0  0  0
    5.1623   54.2538   26.1718 C   0  0  0  0  0  0
    6.0891   54.0812   27.2089 C   0  0  0  0  0  0
    5.6621   53.7200   28.4818 C   0  0  0  0  0  0
    5.6148   54.5644   24.7295 C   0  0  1  0  0  0
    5.4916   55.6464   24.6432 H   0  0  0  0  0  0
    7.1044   54.2731   24.4386 C   0  0  0  0  0  0
    4.7013   53.9722   23.7439 N   0  0  0  0  0  0
    4.6272   54.2414   22.4306 C   0  0  0  0  0  0
    5.5009   54.8715   21.8360 O   0  0  0  0  0  0
    3.3264   53.8501   21.6876 C   0  0  2  0  0  0
    3.2118   54.6822   21.0043 H   0  0  0  0  0  0
    2.0753   53.8460   22.5824 C   0  0  0  0  0  0
    1.6686   52.4446   22.6401 N   0  0  0  0  0  0
    2.5271   51.5590   21.8355 C   0  0  0  0  0  0
    3.3236   52.5025   20.9053 C   0  0  0  0  0  0
    2.4800   52.5506   19.5918 C   0  0  0  0  0  0
    3.0948   53.4487   18.5021 C   0  0  0  0  0  0
    4.4966   52.8968   18.1790 N   0  3  0  0  0  0
    5.4025   52.7704   19.4172 C   0  0  0  0  0  0
    4.6850   51.8975   20.4797 C   0  0  0  0  0  0
    0.5078   52.1026   23.2523 C   0  0  0  0  0  0
   -0.1445   52.8946   23.9370 O   0  0  0  0  0  0
   -0.0511   50.7249   23.0106 C   0  0  0  0  0  0
    0.0244   49.7747   24.0385 C   0  0  0  0  0  0
   -0.5541   48.5161   23.8826 C   0  0  0  0  0  0
   -1.2067   48.1903   22.6987 C   0  0  0  0  0  0
   -1.2879   49.1241   21.6693 C   0  0  0  0  0  0
   -0.7273   50.3979   21.8130 C   0  0  0  0  0  0
   -0.9228   51.3852   20.6638 C   0  0  0  0  0  0
   -0.4952   47.6106   24.8815 F   0  0  0  0  0  0
    2.2293   52.4965   31.4316 H   0  0  0  0  0  0
    1.9932   52.0715   29.7429 H   0  0  0  0  0  0
    1.8282   53.7506   30.2641 H   0  0  0  0  0  0
    4.2893   53.7894   30.8651 H   0  0  0  0  0  0
    4.4320   52.1262   30.3587 H   0  0  0  0  0  0
    2.3163   53.5931   27.9044 H   0  0  0  0  0  0
    3.0470   54.2433   25.6995 H   0  0  0  0  0  0
    7.1486   54.2056   27.0520 H   0  0  0  0  0  0
    6.3858   53.5973   29.2810 H   0  0  0  0  0  0
    7.7457   54.9094   25.0419 H   0  0  0  0  0  0
    7.3655   53.2421   24.6558 H   0  0  0  0  0  0
    7.3817   54.4656   23.4030 H   0  0  0  0  0  0
    3.9532   53.4247   24.1419 H   0  0  0  0  0  0
    2.2152   54.3255   23.5521 H   0  0  0  0  0  0
    1.2936   54.4128   22.0817 H   0  0  0  0  0  0
    2.0331   50.7551   21.2873 H   0  0  0  0  0  0
    3.2628   51.0954   22.4817 H   0  0  0  0  0  0
    2.3403   51.5469   19.1840 H   0  0  0  0  0  0
    1.4687   52.8967   19.8049 H   0  0  0  0  0  0
    2.5307   53.4148   17.5684 H   0  0  0  0  0  0
    3.2231   54.4903   18.7989 H   0  0  0  0  0  0
    4.4320   51.9519   17.8003 H   0  0  0  0  0  0
    6.3057   52.2899   19.0480 H   0  0  0  0  0  0
    5.6414   53.7865   19.7165 H   0  0  0  0  0  0
    5.3334   51.7611   21.3458 H   0  0  0  0  0  0
    4.5328   50.8950   20.0818 H   0  0  0  0  0  0
    0.5146   50.0070   24.9741 H   0  0  0  0  0  0
   -1.6537   47.2144   22.5849 H   0  0  0  0  0  0
   -1.8049   48.8575   20.7585 H   0  0  0  0  0  0
   -1.9227   51.2784   20.2423 H   0  0  0  0  0  0
   -0.8418   52.4288   20.9681 H   0  0  0  0  0  0
   -0.2088   51.1843   19.8670 H   0  0  0  0  0  0
    4.9497   53.4596   17.4729 H   0  0  0  0  0  0
  1  2  1  0  0  0
  1 36  1  0  0  0
  1 37  1  0  0  0
  1 38  1  0  0  0
  2  3  1  0  0  0
  2 39  1  0  0  0
  2 40  1  0  0  0
  3  8  2  0  0  0
  3  4  1  0  0  0
  4  5  2  0  0  0
  4 41  1  0  0  0
  5  6  1  0  0  0
  5 42  1  0  0  0
  6  7  2  0  0  0
  6  9  1  0  0  0
  7  8  1  0  0  0
  7 43  1  0  0  0
  8 44  1  0  0  0
  9 10  1  0  0  0
  9 11  1  0  0  0
  9 12  1  0  0  0
 11 45  1  0  0  0
 11 46  1  0  0  0
 11 47  1  0  0  0
 12 13  1  0  0  0
 12 48  1  0  0  0
 13 14  2  0  0  0
 13 15  1  0  0  0
 15 16  1  0  0  0
 15 20  1  0  0  0
 15 17  1  0  0  0
 17 18  1  0  0  0
 17 49  1  0  0  0
 17 50  1  0  0  0
 18 19  1  0  0  0
 18 26  1  0  0  0
 19 20  1  0  0  0
 19 51  1  0  0  0
 19 52  1  0  0  0
 20 25  1  0  0  0
 20 21  1  0  0  0
 21 22  1  0  0  0
 21 53  1  0  0  0
 21 54  1  0  0  0
 22 23  1  0  0  0
 22 55  1  0  0  0
 22 56  1  0  0  0
 23 24  1  0  0  0
 23 57  1  0  0  0
 23 68  1  0  0  0
 24 25  1  0  0  0
 24 58  1  0  0  0
 24 59  1  0  0  0
 25 60  1  0  0  0
 25 61  1  0  0  0
 26 27  2  0  0  0
 26 28  1  0  0  0
 28 33  2  0  0  0
 28 29  1  0  0  0
 29 30  2  0  0  0
 29 62  1  0  0  0
 30 31  1  0  0  0
 30 35  1  0  0  0
 31 32  2  0  0  0
 31 63  1  0  0  0
 32 33  1  0  0  0
 32 64  1  0  0  0
 33 34  1  0  0  0
 34 65  1  0  0  0
 34 66  1  0  0  0
 34 67  1  0  0  0
M  CHG  1  23   1
M  END
> <i_i_glide_confnum>
299

> <i_i_glide_lignum>
3697

> <i_i_glide_posenum>
348

> <i_i_glide_rotatable_bonds>
7

> <i_m_Source_File_Index>
3003

> <b_m_subgroup_collapsed>
0

> <r_i_docking_score>
-4.98214

> <r_i_glide_ecoul>
-1.3696

> <r_i_glide_eff_state_penalty>
0

> <r_i_glide_einternal>
22.2496

> <r_i_glide_emodel>
-44.3724

> <r_i_glide_energy>
-41.0611

> <r_i_glide_erotb>
0.587787

> <r_i_glide_esite>
-0.183641

> <r_i_glide_evdw>
-39.6915

> <r_i_glide_gscore>
-4.98214

> <r_i_glide_hbond>
-0.133677

> <r_i_glide_ligand_efficiency>
-0.150974

> <r_i_glide_ligand_efficiency_ln>
-1.108

> <r_i_glide_ligand_efficiency_sa>
-0.484254

> <r_i_glide_lipo>
-2.20394

> <r_i_glide_metal>
0

> <r_i_glide_rewards>
-0.858657

> <s_i_glide_gridfile>
wee1_glide-grid

> <s_m_Source_File>
wee1_decoys_glide_SP.sdf

> <s_m_Source_Path>
/Users/zhangxujun/Desktop

> <s_m_entry_id>
3278

> <s_m_entry_name>
wee1_decoys_glide_SP.3003

> <s_m_subgroup_title>
wee1_decoys_glide_SP

> <s_m_subgroupid>
wee1_decoys_glide_SP


$$$$
