ZINC02242418_5982
                    3D
 Schrodinger Suite 2024-2.
 60 64  0  0  1  0            999 V2000
   -7.7366   52.3381   31.7108 C   0  0  0  0  0  0
   -8.4602   51.3964   30.7243 C   0  0  0  0  0  0
   -8.1335   51.5702   29.2174 C   0  0  2  0  0  0
   -6.6198   51.2905   28.9326 C   0  0  0  0  0  0
   -6.1468   52.0096   27.6690 C   0  0  0  0  0  0
   -6.9178   52.9877   27.0571 C   0  0  0  0  0  0
   -6.1916   53.6969   25.6350 S   0  0  0  0  0  0
   -4.7443   52.7533   25.9060 C   0  0  0  0  0  0
   -4.8758   51.8662   27.0195 C   0  0  0  0  0  0
   -3.7372   51.0662   27.2782 C   0  0  0  0  0  0
   -2.6010   51.2142   26.5578 N   0  0  0  0  0  0
   -2.5957   52.1375   25.5648 C   0  0  0  0  0  0
   -3.6431   52.8973   25.1606 N   0  0  0  0  0  0
   -1.0305   52.4967   24.8299 S   0  0  0  0  0  0
    0.1078   52.3596   26.2509 C   0  0  0  0  0  0
    1.5401   52.8966   26.0421 C   0  0  0  0  0  0
    1.9821   52.8750   24.8911 O   0  0  0  0  0  0
    2.2787   53.3279   27.1254 N   0  0  0  0  0  0
    3.6484   53.7301   27.0153 C   0  0  0  0  0  0
    4.1241   54.4968   25.9371 C   0  0  0  0  0  0
    5.4633   54.8746   25.8729 C   0  0  0  0  0  0
    6.3350   54.4959   26.8902 C   0  0  0  0  0  0
    5.8837   53.7477   27.9719 C   0  0  0  0  0  0
    4.5463   53.3671   28.0344 C   0  0  0  0  0  0
    1.6728   53.4700   28.4013 C   0  0  0  0  0  0
    1.5397   54.7555   28.9423 C   0  0  0  0  0  0
    0.9374   54.9280   30.1848 C   0  0  0  0  0  0
    0.4603   53.8211   30.8823 C   0  0  0  0  0  0
    0.6011   52.5386   30.3608 C   0  0  0  0  0  0
    1.2264   52.3551   29.1290 C   0  0  0  0  0  0
   -3.6956   50.1062   28.2909 N   0  0  0  0  0  0
   -8.2789   53.3903   27.5760 C   0  0  0  0  0  0
   -8.4283   52.9481   28.9269 O   0  0  0  0  0  0
   -9.0016   50.6384   28.3348 C   0  0  0  0  0  0
   -8.1669   52.2479   32.7072 H   0  0  0  0  0  0
   -6.6792   52.0960   31.8043 H   0  0  0  0  0  0
   -7.8254   53.3826   31.4143 H   0  0  0  0  0  0
   -9.5335   51.5391   30.8576 H   0  0  0  0  0  0
   -8.2712   50.3615   31.0184 H   0  0  0  0  0  0
   -6.4468   50.2143   28.8845 H   0  0  0  0  0  0
   -5.9975   51.6468   29.7501 H   0  0  0  0  0  0
    0.1756   51.3088   26.5367 H   0  0  0  0  0  0
   -0.3912   52.8953   27.0569 H   0  0  0  0  0  0
    3.4622   54.8190   25.1464 H   0  0  0  0  0  0
    5.8209   55.4608   25.0385 H   0  0  0  0  0  0
    7.3727   54.7854   26.8481 H   0  0  0  0  0  0
    6.5677   53.4646   28.7580 H   0  0  0  0  0  0
    4.2147   52.7777   28.8768 H   0  0  0  0  0  0
    1.8959   55.6193   28.3988 H   0  0  0  0  0  0
    0.8302   55.9185   30.6027 H   0  0  0  0  0  0
   -0.0230   53.9534   31.8411 H   0  0  0  0  0  0
    0.2122   51.6973   30.9163 H   0  0  0  0  0  0
    1.3374   51.3548   28.7345 H   0  0  0  0  0  0
   -4.4975   49.9456   28.8807 H   0  0  0  0  0  0
   -2.8472   49.5373   28.4074 H   0  0  0  0  0  0
   -8.3851   54.4749   27.5686 H   0  0  0  0  0  0
   -9.0745   52.9973   26.9422 H   0  0  0  0  0  0
   -8.9073   49.5966   28.6467 H   0  0  0  0  0  0
  -10.0574   50.9050   28.4025 H   0  0  0  0  0  0
   -8.7250   50.6802   27.2811 H   0  0  0  0  0  0
  1  2  1  0  0  0
  1 35  1  0  0  0
  1 36  1  0  0  0
  1 37  1  0  0  0
  2  3  1  0  0  0
  2 38  1  0  0  0
  2 39  1  0  0  0
  3 33  1  0  0  0
  3  4  1  0  0  0
  3 34  1  0  0  0
  4  5  1  0  0  0
  4 40  1  0  0  0
  4 41  1  0  0  0
  5  9  1  0  0  0
  5  6  2  0  0  0
  6  7  1  0  0  0
  6 32  1  0  0  0
  7  8  1  0  0  0
  8 13  2  0  0  0
  8  9  1  0  0  0
  9 10  2  0  0  0
 10 11  1  0  0  0
 10 31  1  0  0  0
 11 12  2  0  0  0
 12 13  1  0  0  0
 12 14  1  0  0  0
 14 15  1  0  0  0
 15 16  1  0  0  0
 15 42  1  0  0  0
 15 43  1  0  0  0
 16 17  2  0  0  0
 16 18  1  0  0  0
 18 19  1  0  0  0
 18 25  1  0  0  0
 19 24  2  0  0  0
 19 20  1  0  0  0
 20 21  2  0  0  0
 20 44  1  0  0  0
 21 22  1  0  0  0
 21 45  1  0  0  0
 22 23  2  0  0  0
 22 46  1  0  0  0
 23 24  1  0  0  0
 23 47  1  0  0  0
 24 48  1  0  0  0
 25 30  2  0  0  0
 25 26  1  0  0  0
 26 27  2  0  0  0
 26 49  1  0  0  0
 27 28  1  0  0  0
 27 50  1  0  0  0
 28 29  2  0  0  0
 28 51  1  0  0  0
 29 30  1  0  0  0
 29 52  1  0  0  0
 30 53  1  0  0  0
 31 54  1  0  0  0
 31 55  1  0  0  0
 32 33  1  0  0  0
 32 56  1  0  0  0
 32 57  1  0  0  0
 34 58  1  0  0  0
 34 59  1  0  0  0
 34 60  1  0  0  0
M  END
> <i_i_glide_confnum>
38

> <i_i_glide_lignum>
5983

> <i_i_glide_posenum>
259

> <i_i_glide_rotatable_bonds>
7

> <i_m_Source_File_Index>
3665

> <b_m_subgroup_collapsed>
0

> <r_i_docking_score>
-4.35676

> <r_i_glide_ecoul>
-2.90875

> <r_i_glide_eff_state_penalty>
0

> <r_i_glide_einternal>
4.06626

> <r_i_glide_emodel>
-56.8825

> <r_i_glide_energy>
-48.8863

> <r_i_glide_erotb>
0.507257

> <r_i_glide_esite>
-0.10166

> <r_i_glide_evdw>
-45.9775

> <r_i_glide_gscore>
-4.35676

> <r_i_glide_hbond>
-0.16

> <r_i_glide_ligand_efficiency>
-0.12814

> <r_i_glide_ligand_efficiency_ln>
-0.96253

> <r_i_glide_ligand_efficiency_sa>
-0.415124

> <r_i_glide_lipo>
-2.90186

> <r_i_glide_metal>
0

> <r_i_glide_rewards>
1.03469

> <s_i_glide_gridfile>
wee1_glide-grid

> <s_m_Source_File>
wee1_decoys_glide_SP.sdf

> <s_m_Source_Path>
/Users/zhangxujun/Desktop

> <s_m_entry_id>
3940

> <s_m_entry_name>
wee1_decoys_glide_SP.3665

> <s_m_subgroup_title>
wee1_decoys_glide_SP

> <s_m_subgroupid>
wee1_decoys_glide_SP


$$$$
