@<TRIPOS>MOLECULE
ZINC05946680_5718
67   71    1
SMALL
USER_CHARGES


@<TRIPOS>ATOM
      1 C1          2.1863   59.1167   15.6812 C.3       1 UNK         0.0000 
      2 C2          3.3799   58.1931   15.9607 C.3       1 UNK         0.0000 
      3 C3          3.2642   56.8312   15.2401 C.3       1 UNK         0.0000 
      4 C4          4.4814   55.8908   15.4167 C.3       1 UNK         0.0000 
      5 C5          4.6854   55.4531   16.8592 C.2       1 UNK         0.0000 
      6 N6          5.6574   55.8647   17.5536 N.2       1 UNK         0.0000 
      7 N7          5.5605   55.3857   18.8211 N.pl3     1 UNK         0.0000 
      8 C8          6.5487   55.8058   19.8460 C.ar      1 UNK         0.0000 
      9 O9          7.4985   56.5312   19.5473 O.2       1 UNK         0.0000 
     10 C10         6.1816   55.2978   21.1440 C.ar      1 UNK         0.0000 
     11 C11         5.1115   54.5023   21.3914 C.ar      1 UNK         0.0000 
     12 N12         4.3051   54.1272   20.3300 N.pl3     1 UNK         0.0000 
     13 C13         4.5074   54.5949   19.0885 C.ar      1 UNK         0.0000 
     14 S14         3.5445   54.3492   17.6818 S.3       1 UNK         0.0000 
     15 N15         4.6822   54.0981   22.6494 N.pl3     1 UNK         0.0000 
     16 C16         3.2849   53.8304   23.0221 C.3       1 UNK         0.0000 
     17 C17         2.8470   54.6112   24.2838 C.3       1 UNK         0.0000 
     18 N18         3.7600   54.4686   25.4353 N.pl3     1 UNK         0.0000 
     19 C19         5.1417   54.7582   25.0128 C.3       1 UNK         0.0000 
     20 C20         5.5919   53.9421   23.7878 C.3       1 UNK         0.0000 
     21 C21         3.4104   53.9419   26.6856 C.ar      1 UNK         0.0000 
     22 C22         4.3111   53.9295   27.7561 C.ar      1 UNK         0.0000 
     23 C23         3.9625   53.3810   28.9824 C.ar      1 UNK         0.0000 
     24 C24         2.6918   52.8362   29.2102 C.ar      1 UNK         0.0000 
     25 C25         1.7621   52.8302   28.1439 C.ar      1 UNK         0.0000 
     26 C26         2.1401   53.4016   26.9229 C.ar      1 UNK         0.0000 
     27 N27         0.4930   52.2257   28.2825 N.pl3     1 UNK         0.0000 
     28 C28        -0.5822   52.2572   27.2819 C.3       1 UNK         0.0000 
     29 C29        -0.2761   51.4436   26.0228 C.ar      1 UNK         0.0000 
     30 C30        -0.0275   50.0740   26.1199 C.ar      1 UNK         0.0000 
     31 C31         0.2999   49.3342   24.9880 C.ar      1 UNK         0.0000 
     32 C32         0.3531   49.9657   23.7472 C.ar      1 UNK         0.0000 
     33 C33         0.0657   51.3252   23.6303 C.ar      1 UNK         0.0000 
     34 C34        -0.2599   52.0615   24.7659 C.ar      1 UNK         0.0000 
     35 N35         2.3895   52.3035   30.5651 N.pl3     1 UNK         0.0000 
     36 O36         1.2282   52.0972   30.8937 O.co2     1 UNK         0.0000 
     37 O37         3.3299   52.0964   31.3268 O.co2     1 UNK         0.0000 
     38 H38         2.3047   60.0751   16.1909 H         1 UNK         0.0000 
     39 H39         1.2521   58.6758   16.0301 H         1 UNK         0.0000 
     40 H40         2.0841   59.3249   14.6163 H         1 UNK         0.0000 
     41 H41         4.2973   58.7001   15.6540 H         1 UNK         0.0000 
     42 H42         3.4615   58.0454   17.0392 H         1 UNK         0.0000 
     43 H43         2.3539   56.3238   15.5678 H         1 UNK         0.0000 
     44 H44         3.1249   57.0098   14.1727 H         1 UNK         0.0000 
     45 H45         4.3463   55.0043   14.7951 H         1 UNK         0.0000 
     46 H46         5.3791   56.3786   15.0328 H         1 UNK         0.0000 
     47 H47         6.8047   55.6371   21.9579 H         1 UNK         0.0000 
     48 H48         2.6227   54.1604   22.2210 H         1 UNK         0.0000 
     49 H49         3.0961   52.7601   23.1139 H         1 UNK         0.0000 
     50 H50         2.7936   55.6802   24.0807 H         1 UNK         0.0000 
     51 H51         1.8128   54.3571   24.4885 H         1 UNK         0.0000 
     52 H52         5.8748   54.5757   25.7923 H         1 UNK         0.0000 
     53 H53         5.2048   55.8272   24.8156 H         1 UNK         0.0000 
     54 H54         5.7198   52.8967   24.0367 H         1 UNK         0.0000 
     55 H55         6.5996   54.2619   23.5291 H         1 UNK         0.0000 
     56 H56         5.2990   54.3497   27.6819 H         1 UNK         0.0000 
     57 H57         4.7043   53.4047   29.7664 H         1 UNK         0.0000 
     58 H58         1.4208   53.3966   26.1362 H         1 UNK         0.0000 
     59 H59         0.2491   51.8909   29.2085 H         1 UNK         0.0000 
     60 H60        -1.4830   51.8464   27.7422 H         1 UNK         0.0000 
     61 H61        -0.8184   53.2915   27.0331 H         1 UNK         0.0000 
     62 H62        -0.0943   49.5844   27.0794 H         1 UNK         0.0000 
     63 H63         0.5124   48.2781   25.0787 H         1 UNK         0.0000 
     64 H64         0.6144   49.3927   22.8700 H         1 UNK         0.0000 
     65 H65         0.0993   51.8043   22.6625 H         1 UNK         0.0000 
     66 H66        -0.4760   53.1144   24.6709 H         1 UNK         0.0000 
     67 H67         3.5049   53.5360   20.5078 H         1 UNK         0.0000 
@<TRIPOS>BOND
     1    1    2 1    
     2    1   38 1    
     3    1   39 1    
     4    1   40 1    
     5    2    3 1    
     6    2   41 1    
     7    2   42 1    
     8    3    4 1    
     9    3   43 1    
    10    3   44 1    
    11    4    5 1    
    12    4   45 1    
    13    4   46 1    
    14    5   14 1    
    15    5    6 2    
    16    6    7 1    
    17    7   13 ar   
    18    7    8 ar   
    19    8    9 2    
    20    8   10 ar   
    21   10   11 ar   
    22   10   47 1    
    23   11   12 ar   
    24   11   15 1    
    25   12   13 ar   
    26   12   67 1    
    27   13   14 1    
    28   15   20 1    
    29   15   16 1    
    30   16   17 1    
    31   16   48 1    
    32   16   49 1    
    33   17   18 1    
    34   17   50 1    
    35   17   51 1    
    36   18   19 1    
    37   18   21 1    
    38   19   20 1    
    39   19   52 1    
    40   19   53 1    
    41   20   54 1    
    42   20   55 1    
    43   21   26 ar   
    44   21   22 ar   
    45   22   23 ar   
    46   22   56 1    
    47   23   24 ar   
    48   23   57 1    
    49   24   25 ar   
    50   24   35 1    
    51   25   26 ar   
    52   25   27 1    
    53   26   58 1    
    54   27   28 1    
    55   27   59 1    
    56   28   29 1    
    57   28   60 1    
    58   28   61 1    
    59   29   34 ar   
    60   29   30 ar   
    61   30   31 ar   
    62   30   62 1    
    63   31   32 ar   
    64   31   63 1    
    65   32   33 ar   
    66   32   64 1    
    67   33   34 ar   
    68   33   65 1    
    69   34   66 1    
    70   35   36 2    
    71   35   37 1    
@<TRIPOS>SUBSTRUCTURE
     1 UNK         1 GROUP             0       ****    0 ROOT    
