@<TRIPOS>MOLECULE
ZINC46757757_2830
64   68    1
SMALL
USER_CHARGES


@<TRIPOS>ATOM
      1 C1          3.3886   52.8297   30.4487 C.3       1 UNK         0.0000 
      2 C2          3.2216   53.0541   28.9632 C.ar      1 UNK         0.0000 
      3 C3          4.2848   53.5407   28.2003 C.ar      1 UNK         0.0000 
      4 C4          4.1634   53.6971   26.8057 C.ar      1 UNK         0.0000 
      5 C5          2.8899   53.3597   26.2692 C.ar      1 UNK         0.0000 
      6 C6          1.8916   52.8579   27.1398 C.ar      1 UNK         0.0000 
      7 N7          2.0103   52.7054   28.4610 N.ar      1 UNK         0.0000 
      8 N8          0.8303   52.4972   26.3310 N.pl3     1 UNK         0.0000 
      9 C9          1.2054   52.8514   25.0386 C.ar      1 UNK         0.0000 
     10 N10         2.4064   53.3818   24.9852 N.2       1 UNK         0.0000 
     11 C11         0.3617   52.5941   23.7958 C.3       1 UNK         0.0000 
     12 C12        -1.1559   52.7672   23.9543 C.3       1 UNK         0.0000 
     13 C13        -1.8689   51.5966   24.6557 C.3       1 UNK         0.0000 
     14 C14        -1.1014   50.9308   25.8119 C.3       1 UNK         0.0000 
     15 C15        -0.4242   51.8945   26.8041 C.3       1 UNK         0.0000 
     16 C16         5.3890   54.1094   26.0165 C.2       1 UNK         0.0000 
     17 O17         6.4749   54.2854   26.5784 O.2       1 UNK         0.0000 
     18 N18         5.2352   54.2437   24.6835 N.am      1 UNK         0.0000 
     19 C19         6.3060   54.5092   23.7081 C.3       1 UNK         0.0000 
     20 H20         7.0579   53.7239   23.8358 H         1 UNK         0.0000 
     21 C21         7.0162   55.8451   24.0018 C.3       1 UNK         0.0000 
     22 C22         5.8392   54.3240   22.2486 C.ar      1 UNK         0.0000 
     23 C23         6.1624   55.2164   21.2132 C.ar      1 UNK         0.0000 
     24 C24         5.7718   54.9559   19.8988 C.ar      1 UNK         0.0000 
     25 C25         5.0419   53.8071   19.5933 C.ar      1 UNK         0.0000 
     26 C26         4.6712   52.9215   20.6059 C.ar      1 UNK         0.0000 
     27 C27         5.0872   53.1872   21.9211 C.ar      1 UNK         0.0000 
     28 N28         3.9042   51.7954   20.2394 N.am      1 UNK         0.0000 
     29 C29         2.9454   51.1944   20.9810 C.2       1 UNK         0.0000 
     30 O30         2.7086   51.5096   22.1442 O.2       1 UNK         0.0000 
     31 C31         2.1104   50.1083   20.3253 C.ar      1 UNK         0.0000 
     32 C32         1.0909   49.4797   21.0608 C.ar      1 UNK         0.0000 
     33 C33         0.2909   48.4965   20.4821 C.ar      1 UNK         0.0000 
     34 C34         0.5063   48.1234   19.1587 C.ar      1 UNK         0.0000 
     35 C35         1.5110   48.7291   18.4128 C.ar      1 UNK         0.0000 
     36 C36         2.3042   49.7174   18.9920 C.ar      1 UNK         0.0000 
     37 H37         3.8240   51.8484   30.6341 H         1 UNK         0.0000 
     38 H38         4.0462   53.5817   30.8799 H         1 UNK         0.0000 
     39 H39         2.4242   52.8804   30.9504 H         1 UNK         0.0000 
     40 H40         5.2233   53.7601   28.6931 H         1 UNK         0.0000 
     41 H41         0.6970   53.2642   23.0022 H         1 UNK         0.0000 
     42 H42         0.5568   51.5918   23.4184 H         1 UNK         0.0000 
     43 H43        -1.3530   53.6966   24.4827 H         1 UNK         0.0000 
     44 H44        -1.6052   52.8967   22.9696 H         1 UNK         0.0000 
     45 H45        -2.8344   51.9496   25.0211 H         1 UNK         0.0000 
     46 H46        -2.1041   50.8282   23.9175 H         1 UNK         0.0000 
     47 H47        -1.7941   50.2903   26.3613 H         1 UNK         0.0000 
     48 H48        -0.3519   50.2474   25.4129 H         1 UNK         0.0000 
     49 H49        -0.2082   51.3423   27.7210 H         1 UNK         0.0000 
     50 H50        -1.1034   52.7011   27.0851 H         1 UNK         0.0000 
     51 H51         4.3289   54.0065   24.3013 H         1 UNK         0.0000 
     52 H52         7.7661   56.0969   23.2535 H         1 UNK         0.0000 
     53 H53         6.3046   56.6598   24.0821 H         1 UNK         0.0000 
     54 H54         7.5374   55.8212   24.9524 H         1 UNK         0.0000 
     55 H55         6.7306   56.1126   21.3978 H         1 UNK         0.0000 
     56 H56         6.0379   55.6457   19.1106 H         1 UNK         0.0000 
     57 H57         4.7446   53.6202   18.5707 H         1 UNK         0.0000 
     58 H58         4.8530   52.4972   22.7110 H         1 UNK         0.0000 
     59 H59         4.0494   51.4570   19.2966 H         1 UNK         0.0000 
     60 H60         0.9069   49.7449   22.0915 H         1 UNK         0.0000 
     61 H61        -0.4919   48.0274   21.0596 H         1 UNK         0.0000 
     62 H62        -0.1090   47.3599   18.7072 H         1 UNK         0.0000 
     63 H63         1.6882   48.4328   17.3873 H         1 UNK         0.0000 
     64 H64         3.0859   50.1577   18.3881 H         1 UNK         0.0000 
@<TRIPOS>BOND
     1    1    2 1    
     2    1   37 1    
     3    1   38 1    
     4    1   39 1    
     5    2    7 ar   
     6    2    3 ar   
     7    3    4 ar   
     8    3   40 1    
     9    4    5 ar   
    10    4   16 1    
    11    5   10 ar   
    12    5    6 ar   
    13    6    7 ar   
    14    6    8 ar   
    15    8   15 1    
    16    8    9 ar   
    17    9   10 ar   
    18    9   11 1    
    19   11   12 1    
    20   11   41 1    
    21   11   42 1    
    22   12   13 1    
    23   12   43 1    
    24   12   44 1    
    25   13   14 1    
    26   13   45 1    
    27   13   46 1    
    28   14   15 1    
    29   14   47 1    
    30   14   48 1    
    31   15   49 1    
    32   15   50 1    
    33   16   17 2    
    34   16   18 am   BACKBONE|DICT|INTERRES
    35   18   19 1    
    36   18   51 1    
    37   19   20 1    
    38   19   21 1    
    39   19   22 1    
    40   21   52 1    
    41   21   53 1    
    42   21   54 1    
    43   22   27 ar   
    44   22   23 ar   
    45   23   24 ar   
    46   23   55 1    
    47   24   25 ar   
    48   24   56 1    
    49   25   26 ar   
    50   25   57 1    
    51   26   27 ar   
    52   26   28 1    
    53   27   58 1    
    54   28   29 am   BACKBONE|DICT|INTERRES
    55   28   59 1    
    56   29   30 2    
    57   29   31 1    
    58   31   36 ar   
    59   31   32 ar   
    60   32   33 ar   
    61   32   60 1    
    62   33   34 ar   
    63   33   61 1    
    64   34   35 ar   
    65   34   62 1    
    66   35   36 ar   
    67   35   63 1    
    68   36   64 1    
@<TRIPOS>SUBSTRUCTURE
     1 UNK         1 GROUP             0       ****    0 ROOT    
