@<TRIPOS>MOLECULE
ZINC38737721_1091
79   83    1
SMALL
USER_CHARGES


@<TRIPOS>ATOM
      1 C1         -3.4477   50.4967   29.8849 C.3       1 UNK         0.0000 
      2 O2         -4.1410   51.2908   28.9355 O.3       1 UNK         0.0000 
      3 C3         -3.6000   51.4382   27.6739 C.ar      1 UNK         0.0000 
      4 C4         -2.2301   51.2918   27.4032 C.ar      1 UNK         0.0000 
      5 C5         -1.7167   51.4881   26.1175 C.ar      1 UNK         0.0000 
      6 C6         -2.5965   51.8345   25.0873 C.ar      1 UNK         0.0000 
      7 C7         -3.9593   51.9867   25.3389 C.ar      1 UNK         0.0000 
      8 C8         -4.4669   51.8030   26.6325 C.ar      1 UNK         0.0000 
      9 O9         -5.8099   52.0301   26.8535 O.3       1 UNK         0.0000 
     10 C10        -6.5746   50.9141   27.3039 C.3       1 UNK         0.0000 
     11 O11        -4.7859   52.3490   24.3069 O.3       1 UNK         0.0000 
     12 C12        -5.5637   51.2848   23.7722 C.3       1 UNK         0.0000 
     13 C13        -0.2070   51.3560   25.8532 C.3       1 UNK         0.0000 
     14 H14         0.2341   51.1265   26.8238 H         1 UNK         0.0000 
     15 C15         0.4133   52.6726   25.3540 C.3       1 UNK         0.0000 
     16 N16         1.4724   52.3248   24.4157 N.3       1 UNK         0.0000 
     17 C17         0.9771   51.1480   23.7094 C.3       1 UNK         0.0000 
     18 C18         0.3043   50.3196   24.8177 C.3       1 UNK         0.0000 
     19 H19         1.1040   49.7595   25.3046 H         1 UNK         0.0000 
     20 C20        -0.6379   49.2048   24.3315 C.2       1 UNK         0.0000 
     21 O21        -0.9386   49.0951   23.1426 O.2       1 UNK         0.0000 
     22 N22        -1.1370   48.3968   25.2818 N.am      1 UNK         0.0000 
     23 C23        -2.0915   47.3163   25.0507 C.3       1 UNK         0.0000 
     24 H24        -1.7828   46.6854   24.2132 H         1 UNK         0.0000 
     25 C25        -3.5178   47.8588   24.8231 C.3       1 UNK         0.0000 
     26 C26        -4.4058   47.2782   25.9221 C.3       1 UNK         0.0000 
     27 N27        -3.4223   46.8968   27.0385 N.4       1 UNK         0.0000 
     28 C28        -2.1692   46.4173   26.2968 C.3       1 UNK         0.0000 
     29 C29        -3.9693   45.9170   28.0918 C.3       1 UNK         0.0000 
     30 C30        -5.1319   46.4967   28.8822 C.ar      1 UNK         0.0000 
     31 C31        -6.4473   46.2482   28.4815 C.ar      1 UNK         0.0000 
     32 C32        -7.5085   46.7586   29.2261 C.ar      1 UNK         0.0000 
     33 C33        -7.2486   47.5128   30.3704 C.ar      1 UNK         0.0000 
     34 C34        -5.9403   47.7562   30.7787 C.ar      1 UNK         0.0000 
     35 C35        -4.8793   47.2420   30.0372 C.ar      1 UNK         0.0000 
     36 C36         1.9083   53.4312   23.5549 C.3       1 UNK         0.0000 
     37 C37         3.3735   53.7821   23.7829 C.ar      1 UNK         0.0000 
     38 C38         3.8183   54.1697   25.0525 C.ar      1 UNK         0.0000 
     39 C39         5.1526   54.5163   25.2497 C.ar      1 UNK         0.0000 
     40 C40         6.0400   54.4872   24.1763 C.ar      1 UNK         0.0000 
     41 C41         5.6041   54.1071   22.9080 C.ar      1 UNK         0.0000 
     42 C42         4.2688   53.7607   22.7085 C.ar      1 UNK         0.0000 
     43 H43        -4.0475   50.3957   30.7895 H         1 UNK         0.0000 
     44 H44        -3.3025   49.5029   29.4697 H         1 UNK         0.0000 
     45 H45        -2.4779   50.8971   30.1773 H         1 UNK         0.0000 
     46 H46        -1.5480   51.0220   28.1945 H         1 UNK         0.0000 
     47 H47        -2.2214   51.9890   24.0863 H         1 UNK         0.0000 
     48 H48        -7.6215   51.0700   27.0422 H         1 UNK         0.0000 
     49 H49        -6.2567   49.9749   26.8489 H         1 UNK         0.0000 
     50 H50        -6.5238   50.8070   28.3881 H         1 UNK         0.0000 
     51 H51        -6.4440   51.6965   23.2811 H         1 UNK         0.0000 
     52 H52        -4.9882   50.7232   23.0337 H         1 UNK         0.0000 
     53 H53        -5.9255   50.5845   24.5266 H         1 UNK         0.0000 
     54 H54         0.7348   53.3154   26.1715 H         1 UNK         0.0000 
     55 H55        -0.3225   53.2962   24.8387 H         1 UNK         0.0000 
     56 H56         0.3013   51.4426   22.9043 H         1 UNK         0.0000 
     57 H57         1.8411   50.6543   23.2619 H         1 UNK         0.0000 
     58 H58        -0.8664   48.5413   26.2488 H         1 UNK         0.0000 
     59 H59        -3.5551   48.9491   24.8829 H         1 UNK         0.0000 
     60 H60        -3.8963   47.5764   23.8392 H         1 UNK         0.0000 
     61 H61        -5.1451   47.9639   26.3369 H         1 UNK         0.0000 
     62 H62        -4.9066   46.3566   25.6193 H         1 UNK         0.0000 
     63 H63        -2.3410   45.3666   26.0735 H         1 UNK         0.0000 
     64 H64        -1.3396   46.4958   27.0018 H         1 UNK         0.0000 
     65 H65        -4.2381   45.0013   27.5605 H         1 UNK         0.0000 
     66 H66        -3.1146   45.6978   28.7362 H         1 UNK         0.0000 
     67 H67        -6.6541   45.6658   27.5952 H         1 UNK         0.0000 
     68 H68        -8.5273   46.5733   28.9186 H         1 UNK         0.0000 
     69 H69        -8.0714   47.9106   30.9466 H         1 UNK         0.0000 
     70 H70        -5.7491   48.3383   31.6684 H         1 UNK         0.0000 
     71 H71        -3.8624   47.4232   30.3606 H         1 UNK         0.0000 
     72 H72         1.3152   54.3342   23.7105 H         1 UNK         0.0000 
     73 H73         1.7648   53.1731   22.5029 H         1 UNK         0.0000 
     74 H74         3.1295   54.1943   25.8853 H         1 UNK         0.0000 
     75 H75         5.4955   54.8059   26.2325 H         1 UNK         0.0000 
     76 H76         7.0770   54.7537   24.3249 H         1 UNK         0.0000 
     77 H77         6.2969   54.0942   22.0808 H         1 UNK         0.0000 
     78 H78         3.9335   53.4747   21.7215 H         1 UNK         0.0000 
     79 H79        -3.1274   47.7258   27.5538 H         1 UNK         0.0000 
@<TRIPOS>BOND
     1    1    2 1    
     2    1   43 1    
     3    1   44 1    
     4    1   45 1    
     5    2    3 1    
     6    3    8 ar   
     7    3    4 ar   
     8    4    5 ar   
     9    4   46 1    
    10    5    6 ar   
    11    5   13 1    
    12    6    7 ar   
    13    6   47 1    
    14    7    8 ar   
    15    7   11 1    
    16    8    9 1    
    17    9   10 1    
    18   10   48 1    
    19   10   49 1    
    20   10   50 1    
    21   11   12 1    
    22   12   51 1    
    23   12   52 1    
    24   12   53 1    
    25   13   14 1    
    26   13   18 1    
    27   13   15 1    
    28   15   16 1    
    29   15   54 1    
    30   15   55 1    
    31   16   17 1    
    32   16   36 1    
    33   17   18 1    
    34   17   56 1    
    35   17   57 1    
    36   18   19 1    
    37   18   20 1    
    38   20   21 2    
    39   20   22 am   BACKBONE|DICT|INTERRES
    40   22   23 1    
    41   22   58 1    
    42   23   24 1    
    43   23   28 1    
    44   23   25 1    
    45   25   26 1    
    46   25   59 1    
    47   25   60 1    
    48   26   27 1    
    49   26   61 1    
    50   26   62 1    
    51   27   28 1    
    52   27   29 1    
    53   27   79 1    
    54   28   63 1    
    55   28   64 1    
    56   29   30 1    
    57   29   65 1    
    58   29   66 1    
    59   30   35 ar   
    60   30   31 ar   
    61   31   32 ar   
    62   31   67 1    
    63   32   33 ar   
    64   32   68 1    
    65   33   34 ar   
    66   33   69 1    
    67   34   35 ar   
    68   34   70 1    
    69   35   71 1    
    70   36   37 1    
    71   36   72 1    
    72   36   73 1    
    73   37   42 ar   
    74   37   38 ar   
    75   38   39 ar   
    76   38   74 1    
    77   39   40 ar   
    78   39   75 1    
    79   40   41 ar   
    80   40   76 1    
    81   41   42 ar   
    82   41   77 1    
    83   42   78 1    
@<TRIPOS>SUBSTRUCTURE
     1 UNK         1 GROUP             0       ****    0 ROOT    
