@<TRIPOS>MOLECULE
ZINC62361553_1870
37   38    1
SMALL
USER_CHARGES


@<TRIPOS>ATOM
      1 C1          3.5138   53.7143   24.0756 C.2       1 UNK         0.0000 
      2 C2          2.2944   53.0791   24.3601 C.2       1 UNK         0.0000 
      3 N3          1.6287   52.6673   23.2910 N.2       1 UNK         0.0000 
      4 C4          2.2847   52.8961   22.1820 C.2       1 UNK         0.0000 
      5 S5          3.8045   53.6990   22.3637 S.3       1 UNK         0.0000 
      6 C6          1.6580   52.9546   25.6544 C.2       1 UNK         0.0000 
      7 O7          0.4358   52.8967   25.7708 O.2       1 UNK         0.0000 
      8 N8          2.5116   52.9684   26.7018 N.am      1 UNK         0.0000 
      9 C9          2.2334   53.1205   28.1564 C.3       1 UNK         0.0000 
     10 C10         1.5855   54.5377   28.3798 C.3       1 UNK         0.0000 
     11 C11         1.5531   55.1413   29.8037 C.3       1 UNK         0.0000 
     12 C12         0.5230   54.5391   30.7741 C.3       1 UNK         0.0000 
     13 C13         0.5171   53.0097   30.9225 C.3       1 UNK         0.0000 
     14 C14         0.1463   52.2447   29.6389 C.3       1 UNK         0.0000 
     15 C15         1.2811   51.9414   28.6304 C.3       1 UNK         0.0000 
     16 C16         3.6578   53.0729   28.8870 C.2       1 UNK         0.0000 
     17 N17         4.7310   53.6563   28.4958 N.2       1 UNK         0.0000 
     18 O18         4.6373   54.5000   27.3732 O.3       1 UNK         0.0000 
     19 N19         3.6873   52.3539   30.0600 N.pl3     1 UNK         0.0000 
     20 H20         4.2269   54.1707   24.7455 H         1 UNK         0.0000 
     21 H21         1.9089   52.6353   21.2037 H         1 UNK         0.0000 
     22 H22         3.4568   52.6778   26.4845 H         1 UNK         0.0000 
     23 H23         2.0998   55.2687   27.7547 H         1 UNK         0.0000 
     24 H24         0.5652   54.5311   27.9993 H         1 UNK         0.0000 
     25 H25         2.5451   55.1175   30.2509 H         1 UNK         0.0000 
     26 H26         1.3283   56.2059   29.7139 H         1 UNK         0.0000 
     27 H27         0.6856   54.9813   31.7577 H         1 UNK         0.0000 
     28 H28        -0.4753   54.8650   30.4819 H         1 UNK         0.0000 
     29 H29         1.4513   52.6510   31.3478 H         1 UNK         0.0000 
     30 H30        -0.2299   52.7730   31.6797 H         1 UNK         0.0000 
     31 H31        -0.3105   51.2967   29.9250 H         1 UNK         0.0000 
     32 H32        -0.6547   52.7783   29.1257 H         1 UNK         0.0000 
     33 H33         0.7612   51.5069   27.7776 H         1 UNK         0.0000 
     34 H34         1.8486   51.0761   28.9726 H         1 UNK         0.0000 
     35 H35         3.7077   54.4256   27.1298 H         1 UNK         0.0000 
     36 H36         4.5515   52.3135   30.5793 H         1 UNK         0.0000 
     37 H37         2.8235   52.0992   30.5133 H         1 UNK         0.0000 
@<TRIPOS>BOND
     1    1    5 1    
     2    1    2 2    
     3    1   20 1    
     4    2    3 1    
     5    2    6 1    
     6    3    4 2    
     7    4    5 1    
     8    4   21 1    
     9    6    7 2    
    10    6    8 am   BACKBONE|DICT|INTERRES
    11    8    9 1    
    12    8   22 1    
    13    9   15 1    
    14    9   10 1    
    15    9   16 1    
    16   10   11 1    
    17   10   23 1    
    18   10   24 1    
    19   11   12 1    
    20   11   25 1    
    21   11   26 1    
    22   12   13 1    
    23   12   27 1    
    24   12   28 1    
    25   13   14 1    
    26   13   29 1    
    27   13   30 1    
    28   14   15 1    
    29   14   31 1    
    30   14   32 1    
    31   15   33 1    
    32   15   34 1    
    33   16   17 2    
    34   16   19 1    
    35   17   18 1    
    36   18   35 1    
    37   19   36 1    
    38   19   37 1    
@<TRIPOS>SUBSTRUCTURE
     1 UNK         1 GROUP             0       ****    0 ROOT    
