ZINC12408395_4267
                    3D
 Schrodinger Suite 2024-2.
 54 57  0  0  1  0            999 V2000
    1.2473   52.9003   23.1385 C   0  0  0  0  0  0
    0.0145   52.8242   23.7790 C   0  0  0  0  0  0
   -0.5774   51.5824   24.0061 C   0  0  0  0  0  0
    0.0825   50.4072   23.6347 C   0  0  0  0  0  0
    1.3211   50.4849   23.0004 C   0  0  0  0  0  0
    1.8886   51.7306   22.7382 C   0  0  0  0  0  0
    3.0676   51.8071   22.0819 F   0  0  0  0  0  0
   -2.2088   51.5259   24.7449 S   0  0  0  0  0  0
   -2.6234   50.1208   24.8047 O   0  0  0  0  0  0
   -3.0156   52.5272   24.0385 O   0  0  0  0  0  0
   -1.9928   52.1073   26.3866 N   0  0  0  0  0  0
   -1.1461   51.3402   27.3204 C   0  0  0  0  0  0
   -0.6381   52.1715   28.5208 C   0  0  2  0  0  0
   -0.0956   53.5588   28.1496 C   0  0  0  0  0  0
    0.3548   54.3585   29.3852 C   0  0  0  0  0  0
    1.3902   53.6111   30.2430 C   0  0  1  0  0  0
    0.8995   52.1813   30.5698 C   0  0  0  0  0  0
    0.4181   51.4048   29.3196 C   0  0  0  0  0  0
    2.8270   53.5841   29.6345 C   0  0  0  0  0  0
    3.7389   53.0672   30.2800 O   0  0  0  0  0  0
    2.9748   54.0870   28.3896 N   0  0  0  0  0  0
    4.1024   54.1561   27.5624 C   0  0  0  0  0  0
    5.4126   54.2771   28.0378 C   0  0  0  0  0  0
    6.5045   54.3977   27.1737 C   0  0  0  0  0  0
    6.2362   54.3942   25.7988 C   0  0  0  0  0  0
    4.9079   54.2701   25.2893 C   0  0  0  0  0  0
    3.8423   54.1619   26.1916 C   0  0  0  0  0  0
    5.0004   54.2862   23.8597 C   0  0  0  0  0  0
    6.3314   54.4361   23.5409 C   0  0  0  0  0  0
    7.0675   54.4964   24.6972 N   0  0  0  0  0  0
    8.0744   54.5994   24.6692 H   0  0  0  0  0  0
    1.6973   53.8605   22.9324 H   0  0  0  0  0  0
   -0.4967   53.7230   24.0802 H   0  0  0  0  0  0
   -0.3631   49.4402   23.8221 H   0  0  0  0  0  0
    1.8368   49.5848   22.6983 H   0  0  0  0  0  0
   -1.9999   53.1216   26.5062 H   0  0  0  0  0  0
   -0.3117   50.9152   26.7606 H   0  0  0  0  0  0
   -1.7326   50.4967   27.6793 H   0  0  0  0  0  0
   -1.4691   52.3279   29.2092 H   0  0  0  0  0  0
   -0.8963   54.0973   27.6817 H   0  0  0  0  0  0
    0.6895   53.4643   27.4003 H   0  0  0  0  0  0
   -0.4952   54.5462   30.0428 H   0  0  0  0  0  0
    0.7045   55.3699   29.1639 H   0  0  0  0  0  0
    1.5048   54.1384   31.1830 H   0  0  0  0  0  0
    1.6449   51.6591   31.1677 H   0  0  0  0  0  0
    0.0954   52.2570   31.3052 H   0  0  0  0  0  0
   -0.0897   50.4967   29.6122 H   0  0  0  0  0  0
    1.2614   51.1177   28.6890 H   0  0  0  0  0  0
    2.1185   54.3703   27.9425 H   0  0  0  0  0  0
    5.5975   54.3080   29.1005 H   0  0  0  0  0  0
    7.5041   54.4950   27.5687 H   0  0  0  0  0  0
    2.8333   54.0753   25.8173 H   0  0  0  0  0  0
    4.1953   54.2038   23.1445 H   0  0  0  0  0  0
    6.8287   54.5014   22.5825 H   0  0  0  0  0  0
  1  6  2  0  0  0
  1  2  1  0  0  0
  1 32  1  0  0  0
  2  3  2  0  0  0
  2 33  1  0  0  0
  3  4  1  0  0  0
  3  8  1  0  0  0
  4  5  2  0  0  0
  4 34  1  0  0  0
  5  6  1  0  0  0
  5 35  1  0  0  0
  6  7  1  0  0  0
  8  9  2  0  0  0
  8 10  2  0  0  0
  8 11  1  0  0  0
 11 12  1  0  0  0
 11 36  1  0  0  0
 12 13  1  0  0  0
 12 37  1  0  0  0
 12 38  1  0  0  0
 13 18  1  0  0  0
 13 14  1  0  0  0
 13 39  1  0  0  0
 14 15  1  0  0  0
 14 40  1  0  0  0
 14 41  1  0  0  0
 15 16  1  0  0  0
 15 42  1  0  0  0
 15 43  1  0  0  0
 16 17  1  0  0  0
 16 19  1  0  0  0
 16 44  1  0  0  0
 17 18  1  0  0  0
 17 45  1  0  0  0
 17 46  1  0  0  0
 18 47  1  0  0  0
 18 48  1  0  0  0
 19 20  2  0  0  0
 19 21  1  0  0  0
 21 22  1  0  0  0
 21 49  1  0  0  0
 22 27  2  0  0  0
 22 23  1  0  0  0
 23 24  2  0  0  0
 23 50  1  0  0  0
 24 25  1  0  0  0
 24 51  1  0  0  0
 25 30  1  0  0  0
 25 26  2  0  0  0
 26 27  1  0  0  0
 26 28  1  0  0  0
 27 52  1  0  0  0
 28 29  2  0  0  0
 28 53  1  0  0  0
 29 30  1  0  0  0
 29 54  1  0  0  0
 30 31  1  0  0  0
M  END
> <i_i_glide_confnum>
165

> <i_i_glide_lignum>
4268

> <i_i_glide_posenum>
93

> <i_i_glide_rotatable_bonds>
7

> <i_m_Source_File_Index>
4140

> <b_m_subgroup_collapsed>
0

> <r_i_docking_score>
-5.37116

> <r_i_glide_ecoul>
-2.30949

> <r_i_glide_eff_state_penalty>
0

> <r_i_glide_einternal>
7.4505

> <r_i_glide_emodel>
-53.2023

> <r_i_glide_energy>
-43.2778

> <r_i_glide_erotb>
0.646357

> <r_i_glide_esite>
-0.0426192

> <r_i_glide_evdw>
-40.9683

> <r_i_glide_gscore>
-5.37116

> <r_i_glide_hbond>
-0.505213

> <r_i_glide_ligand_efficiency>
-0.179039

> <r_i_glide_ligand_efficiency_ln>
-1.22039

> <r_i_glide_ligand_efficiency_sa>
-0.556314

> <r_i_glide_lipo>
-3.08495

> <r_i_glide_metal>
0

> <r_i_glide_rewards>
0.0101133

> <s_i_glide_gridfile>
wee1_glide-grid

> <s_m_Source_File>
wee1_decoys_glide_SP.sdf

> <s_m_Source_Path>
/Users/zhangxujun/Desktop

> <s_m_entry_id>
4415

> <s_m_entry_name>
wee1_decoys_glide_SP.4140

> <s_m_subgroup_title>
wee1_decoys_glide_SP

> <s_m_subgroupid>
wee1_decoys_glide_SP


$$$$
