ZINC33259876_1954
                    3D
 Schrodinger Suite 2024-2.
 53 56  0  0  1  0            999 V2000
    5.9018   54.4360   27.9067 C   0  0  0  0  0  0
    6.6114   54.4384   26.7127 C   0  0  0  0  0  0
    5.9334   54.3408   25.4995 C   0  0  0  0  0  0
    4.5324   54.2260   25.4587 C   0  0  0  0  0  0
    3.8410   54.2534   26.6843 C   0  0  0  0  0  0
    4.5160   54.3552   27.8969 C   0  0  0  0  0  0
    3.8444   54.0258   24.2528 N   0  0  0  0  0  0
    2.4162   54.3461   24.0821 C   0  0  0  0  0  0
    1.6774   53.6946   22.8949 C   0  0  0  0  0  0
    2.3677   52.5547   22.2904 N   0  0  0  0  0  0
    3.7506   52.9211   21.9447 C   0  0  0  0  0  0
    4.4812   53.8735   22.9326 C   0  0  0  0  0  0
    1.6879   51.5334   21.6300 C   0  0  0  0  0  0
    2.2940   50.2878   21.4552 C   0  0  0  0  0  0
    1.6142   49.2421   20.8431 C   0  0  0  0  0  0
    0.3066   49.4114   20.3813 C   0  0  0  0  0  0
   -0.3433   50.6607   20.5388 C   0  0  0  0  0  0
    0.3791   51.6997   21.1539 C   0  0  0  0  0  0
   -1.7587   50.9240   20.0720 C   0  0  0  0  0  0
   -2.4407   49.9640   19.6422 O   0  0  0  0  0  0
   -2.1973   52.0966   20.1456 O   0  5  0  0  0  0
   -0.3253   48.3288   19.7543 N   0  0  0  0  0  0
    0.3154   47.6877   18.2418 S   0  0  0  0  0  0
   -0.6814   46.7299   17.7498 O   0  0  0  0  0  0
    1.7058   47.2869   18.4796 O   0  0  0  0  0  0
    0.3073   49.1053   17.1497 C   0  0  0  0  0  0
    1.4253   49.9406   17.0973 C   0  0  0  0  0  0
    1.4041   51.0746   16.2909 C   0  0  0  0  0  0
    0.2625   51.3720   15.5489 C   0  0  0  0  0  0
   -0.8594   50.5463   15.6077 C   0  0  0  0  0  0
   -0.8392   49.4107   16.4137 C   0  0  0  0  0  0
    6.4294   54.4967   28.8479 H   0  0  0  0  0  0
    7.6865   54.4965   26.7357 H   0  0  0  0  0  0
    6.5267   54.3357   24.5999 H   0  0  0  0  0  0
    2.7688   54.1653   26.7344 H   0  0  0  0  0  0
    3.9662   54.3573   28.8262 H   0  0  0  0  0  0
    1.9186   53.8906   24.9346 H   0  0  0  0  0  0
    2.2264   55.4174   24.0820 H   0  0  0  0  0  0
    1.6719   54.4240   22.0831 H   0  0  0  0  0  0
    0.6306   53.5124   23.1389 H   0  0  0  0  0  0
    4.3049   51.9871   22.0197 H   0  0  0  0  0  0
    3.8412   53.3018   20.9265 H   0  0  0  0  0  0
    5.5473   53.6574   22.9442 H   0  0  0  0  0  0
    4.4031   54.8807   22.5195 H   0  0  0  0  0  0
    3.2938   50.1057   21.8149 H   0  0  0  0  0  0
    2.1184   48.2927   20.7346 H   0  0  0  0  0  0
   -0.0913   52.6647   21.2629 H   0  0  0  0  0  0
   -1.3263   48.4927   19.6745 H   0  0  0  0  0  0
    2.3036   49.7121   17.6821 H   0  0  0  0  0  0
    2.2715   51.7172   16.2462 H   0  0  0  0  0  0
    0.2466   52.2541   14.9255 H   0  0  0  0  0  0
   -1.7435   50.7888   15.0367 H   0  0  0  0  0  0
   -1.7132   48.7786   16.4749 H   0  0  0  0  0  0
  1  6  2  0  0  0
  1  2  1  0  0  0
  1 32  1  0  0  0
  2  3  2  0  0  0
  2 33  1  0  0  0
  3  4  1  0  0  0
  3 34  1  0  0  0
  4  5  2  0  0  0
  4  7  1  0  0  0
  5  6  1  0  0  0
  5 35  1  0  0  0
  6 36  1  0  0  0
  7 12  1  0  0  0
  7  8  1  0  0  0
  8  9  1  0  0  0
  8 37  1  0  0  0
  8 38  1  0  0  0
  9 10  1  0  0  0
  9 39  1  0  0  0
  9 40  1  0  0  0
 10 11  1  0  0  0
 10 13  1  0  0  0
 11 12  1  0  0  0
 11 41  1  0  0  0
 11 42  1  0  0  0
 12 43  1  0  0  0
 12 44  1  0  0  0
 13 18  2  0  0  0
 13 14  1  0  0  0
 14 15  2  0  0  0
 14 45  1  0  0  0
 15 16  1  0  0  0
 15 46  1  0  0  0
 16 17  2  0  0  0
 16 22  1  0  0  0
 17 18  1  0  0  0
 17 19  1  0  0  0
 18 47  1  0  0  0
 19 20  2  0  0  0
 19 21  1  0  0  0
 22 23  1  0  0  0
 22 48  1  0  0  0
 23 24  2  0  0  0
 23 25  2  0  0  0
 23 26  1  0  0  0
 26 31  2  0  0  0
 26 27  1  0  0  0
 27 28  2  0  0  0
 27 49  1  0  0  0
 28 29  1  0  0  0
 28 50  1  0  0  0
 29 30  2  0  0  0
 29 51  1  0  0  0
 30 31  1  0  0  0
 30 52  1  0  0  0
 31 53  1  0  0  0
M  CHG  1  21  -1
M  END
> <i_i_glide_confnum>
947

> <i_i_glide_lignum>
1955

> <i_i_glide_posenum>
191

> <i_i_glide_rotatable_bonds>
6

> <i_m_Source_File_Index>
1394

> <b_m_subgroup_collapsed>
0

> <r_i_docking_score>
-5.23253

> <r_i_glide_ecoul>
-3.33436

> <r_i_glide_eff_state_penalty>
0

> <r_i_glide_einternal>
3.02208

> <r_i_glide_emodel>
-49.7341

> <r_i_glide_energy>
-37.3737

> <r_i_glide_erotb>
0.523087

> <r_i_glide_esite>
-0.0630158

> <r_i_glide_evdw>
-34.0393

> <r_i_glide_gscore>
-5.23253

> <r_i_glide_hbond>
-0.16

> <r_i_glide_ligand_efficiency>
-0.168791

> <r_i_glide_ligand_efficiency_ln>
-1.1801

> <r_i_glide_ligand_efficiency_sa>
-0.530238

> <r_i_glide_lipo>
-2.63161

> <r_i_glide_metal>
0

> <r_i_glide_rewards>
-0.698874

> <s_i_glide_gridfile>
wee1_glide-grid

> <s_m_Source_File>
wee1_decoys_glide_SP.sdf

> <s_m_Source_Path>
/Users/zhangxujun/Desktop

> <s_m_entry_id>
1669

> <s_m_entry_name>
wee1_decoys_glide_SP.1394

> <s_m_subgroup_title>
wee1_decoys_glide_SP

> <s_m_subgroupid>
wee1_decoys_glide_SP


$$$$
