ZINC02872517_2648
                    3D
 Schrodinger Suite 2024-2.
 43 45  0  0  1  0            999 V2000
    6.1000   54.3721   23.1357 C   0  0  0  0  0  0
    5.9832   54.5376   24.6362 C   0  0  0  0  0  0
    4.8798   54.3364   25.4852 C   0  0  0  0  0  0
    5.3955   54.5438   26.7609 C   0  0  0  0  0  0
    6.7052   54.8710   26.6540 O   0  0  0  0  0  0
    7.0556   54.8888   25.3073 N   0  0  0  0  0  0
    4.8436   54.4958   28.1669 C   0  0  0  0  0  0
    3.5172   54.0876   25.0901 C   0  0  0  0  0  0
    3.1000   54.4705   23.9979 O   0  0  0  0  0  0
    2.8065   53.3988   26.0063 N   0  0  0  0  0  0
    1.4945   52.8965   25.9394 C   0  0  0  0  0  0
    0.9822   52.3709   27.1291 C   0  0  0  0  0  0
   -0.3177   51.8759   27.1772 C   0  0  0  0  0  0
   -1.1111   51.9018   26.0298 C   0  0  0  0  0  0
   -0.5945   52.3815   24.8249 C   0  0  0  0  0  0
    0.7061   52.8795   24.7771 C   0  0  0  0  0  0
   -2.8126   51.3606   26.1305 S   0  0  0  0  0  0
   -3.2884   51.6966   27.4760 O   0  0  0  0  0  0
   -3.5252   51.8590   24.9485 O   0  0  0  0  0  0
   -2.7699   49.5921   26.0819 N   0  0  0  0  0  0
   -2.5184   48.7978   24.9601 C   0  0  0  0  0  0
   -1.9289   47.5583   25.2059 C   0  0  0  0  0  0
   -1.7259   46.6645   24.1622 C   0  0  0  0  0  0
   -2.0971   47.0141   22.8667 C   0  0  0  0  0  0
   -2.6699   48.2571   22.6084 C   0  0  0  0  0  0
   -2.8880   49.1489   23.6565 C   0  0  0  0  0  0
   -1.8614   45.8897   21.5778 Cl  0  0  0  0  0  0
    5.3998   53.6291   22.7523 H   0  0  0  0  0  0
    5.9050   55.2985   22.6030 H   0  0  0  0  0  0
    7.0987   54.0494   22.8389 H   0  0  0  0  0  0
    3.8210   54.8713   28.2182 H   0  0  0  0  0  0
    5.4355   55.1038   28.8525 H   0  0  0  0  0  0
    4.8467   53.4789   28.5604 H   0  0  0  0  0  0
    3.2936   53.1891   26.8637 H   0  0  0  0  0  0
    1.5792   52.3579   28.0309 H   0  0  0  0  0  0
   -0.7120   51.4888   28.1064 H   0  0  0  0  0  0
   -1.1998   52.3864   23.9297 H   0  0  0  0  0  0
    1.0724   53.2471   23.8324 H   0  0  0  0  0  0
   -2.5539   49.1666   26.9815 H   0  0  0  0  0  0
   -1.6421   47.2769   26.2127 H   0  0  0  0  0  0
   -1.2956   45.6976   24.3645 H   0  0  0  0  0  0
   -2.9641   48.5213   21.6038 H   0  0  0  0  0  0
   -3.3693   50.0864   23.4357 H   0  0  0  0  0  0
  1  2  1  0  0  0
  1 28  1  0  0  0
  1 29  1  0  0  0
  1 30  1  0  0  0
  2  6  2  0  0  0
  2  3  1  0  0  0
  3  4  2  0  0  0
  3  8  1  0  0  0
  4  5  1  0  0  0
  4  7  1  0  0  0
  5  6  1  0  0  0
  7 31  1  0  0  0
  7 32  1  0  0  0
  7 33  1  0  0  0
  8  9  2  0  0  0
  8 10  1  0  0  0
 10 11  1  0  0  0
 10 34  1  0  0  0
 11 16  2  0  0  0
 11 12  1  0  0  0
 12 13  2  0  0  0
 12 35  1  0  0  0
 13 14  1  0  0  0
 13 36  1  0  0  0
 14 15  2  0  0  0
 14 17  1  0  0  0
 15 16  1  0  0  0
 15 37  1  0  0  0
 16 38  1  0  0  0
 17 18  2  0  0  0
 17 19  2  0  0  0
 17 20  1  0  0  0
 20 21  1  0  0  0
 20 39  1  0  0  0
 21 26  2  0  0  0
 21 22  1  0  0  0
 22 23  2  0  0  0
 22 40  1  0  0  0
 23 24  1  0  0  0
 23 41  1  0  0  0
 24 25  2  0  0  0
 24 27  1  0  0  0
 25 26  1  0  0  0
 25 42  1  0  0  0
 26 43  1  0  0  0
M  END
> <i_i_glide_confnum>
2

> <i_i_glide_lignum>
2649

> <i_i_glide_posenum>
178

> <i_i_glide_rotatable_bonds>
6

> <i_m_Source_File_Index>
285

> <b_m_subgroup_collapsed>
0

> <r_i_docking_score>
-5.06124

> <r_i_glide_ecoul>
-4.50191

> <r_i_glide_eff_state_penalty>
0

> <r_i_glide_einternal>
1.66738

> <r_i_glide_emodel>
-53.7149

> <r_i_glide_energy>
-41.3343

> <r_i_glide_erotb>
0.716009

> <r_i_glide_esite>
-0.156681

> <r_i_glide_evdw>
-36.8324

> <r_i_glide_gscore>
-5.06124

> <r_i_glide_hbond>
-0.16

> <r_i_glide_ligand_efficiency>
-0.187453

> <r_i_glide_ligand_efficiency_ln>
-1.17817

> <r_i_glide_ligand_efficiency_sa>
-0.56236

> <r_i_glide_lipo>
-1.9519

> <r_i_glide_metal>
0

> <r_i_glide_rewards>
-0.991759

> <s_i_glide_gridfile>
wee1_glide-grid

> <s_m_Source_File>
wee1_decoys_glide_SP.sdf

> <s_m_Source_Path>
/Users/zhangxujun/Desktop

> <s_m_entry_id>
560

> <s_m_entry_name>
wee1_decoys_glide_SP.285

> <s_m_subgroup_title>
wee1_decoys_glide_SP

> <s_m_subgroupid>
wee1_decoys_glide_SP


$$$$
