@<TRIPOS>MOLECULE
ZINC45606242_1251
61   65    1
SMALL
USER_CHARGES


@<TRIPOS>ATOM
      1 C1          1.7769   46.1843   15.1907 C.ar      1 UNK         0.0000 
      2 C2          1.6382   46.7016   16.4786 C.ar      1 UNK         0.0000 
      3 C3          1.0620   47.9726   16.6614 C.ar      1 UNK         0.0000 
      4 N4          0.6180   48.6871   15.5881 N.ar      1 UNK         0.0000 
      5 C5          0.7570   48.1760   14.3433 C.ar      1 UNK         0.0000 
      6 C6          1.3283   46.9255   14.0914 C.ar      1 UNK         0.0000 
      7 C7          1.4151   46.3859   12.6677 C.3       1 UNK         0.0000 
      8 F8          0.3375   46.7353   11.9664 F         1 UNK         0.0000 
      9 F9          1.5051   45.0550   12.6528 F         1 UNK         0.0000 
     10 F10         2.4941   46.8971   12.0768 F         1 UNK         0.0000 
     11 N11         0.8608   48.5333   17.9505 N.pl3     1 UNK         0.0000 
     12 C12         1.5223   47.9071   19.1037 C.3       1 UNK         0.0000 
     13 C13         1.7452   48.7449   20.3820 C.3       1 UNK         0.0000 
     14 C14         2.6898   49.9373   20.1959 C.3       1 UNK         0.0000 
     15 N15         2.0030   51.1980   19.6246 N.4       1 UNK         0.0000 
     16 C16         1.4427   51.0134   18.1973 C.3       1 UNK         0.0000 
     17 C17         0.3731   49.9139   18.0879 C.3       1 UNK         0.0000 
     18 C18         2.9552   52.4167   19.6998 C.3       1 UNK         0.0000 
     19 C19         3.2632   52.8965   21.1132 C.ar      1 UNK         0.0000 
     20 N20         2.2533   52.8487   22.0176 N.ar      1 UNK         0.0000 
     21 C21         2.5226   53.2891   23.2713 C.ar      1 UNK         0.0000 
     22 C22         3.8132   53.7705   23.6358 C.ar      1 UNK         0.0000 
     23 C23         4.4024   54.2413   24.8685 C.2       1 UNK         0.0000 
     24 C24         5.7398   54.6115   24.6897 C.2       1 UNK         0.0000 
     25 S25         6.3046   54.3694   23.0523 S.3       1 UNK         0.0000 
     26 C26         4.7533   53.7729   22.5657 C.ar      1 UNK         0.0000 
     27 N27         4.5161   53.3630   21.3165 N.ar      1 UNK         0.0000 
     28 C28         6.6774   55.1497   25.7418 C.3       1 UNK         0.0000 
     29 C29         6.8918   54.1869   26.9255 C.3       1 UNK         0.0000 
     30 C30         5.7120   54.1163   27.9078 C.3       1 UNK         0.0000 
     31 C31         4.4050   53.5163   27.3524 C.3       1 UNK         0.0000 
     32 C32         3.7082   54.3114   26.2256 C.3       1 UNK         0.0000 
     33 N33         1.4500   53.2037   24.1588 N.pl3     1 UNK         0.0000 
     34 H34         2.2198   45.2071   15.0566 H         1 UNK         0.0000 
     35 H35         1.9718   46.1027   17.3105 H         1 UNK         0.0000 
     36 H36         0.3913   48.7931   13.5346 H         1 UNK         0.0000 
     37 H37         0.9932   46.9904   19.3734 H         1 UNK         0.0000 
     38 H38         2.5451   47.6741   18.7919 H         1 UNK         0.0000 
     39 H39         0.7918   49.0586   20.8112 H         1 UNK         0.0000 
     40 H40         2.1951   48.0977   21.1379 H         1 UNK         0.0000 
     41 H41         3.0954   50.2359   21.1631 H         1 UNK         0.0000 
     42 H42         3.5046   49.7050   19.5159 H         1 UNK         0.0000 
     43 H43         2.2795   50.8534   17.5104 H         1 UNK         0.0000 
     44 H44         1.0010   51.9746   17.9251 H         1 UNK         0.0000 
     45 H45        -0.3425   50.1633   17.3031 H         1 UNK         0.0000 
     46 H46        -0.2883   49.9613   18.9522 H         1 UNK         0.0000 
     47 H47         3.8536   52.1315   19.1452 H         1 UNK         0.0000 
     48 H48         2.4599   53.2270   19.1646 H         1 UNK         0.0000 
     49 H49         7.6295   55.3796   25.2730 H         1 UNK         0.0000 
     50 H50         6.3053   56.0967   26.1257 H         1 UNK         0.0000 
     51 H51         7.1216   53.1895   26.5528 H         1 UNK         0.0000 
     52 H52         7.7725   54.5008   27.4822 H         1 UNK         0.0000 
     53 H53         6.0238   53.5197   28.7674 H         1 UNK         0.0000 
     54 H54         5.5145   55.1128   28.3093 H         1 UNK         0.0000 
     55 H55         4.5897   52.4975   27.0214 H         1 UNK         0.0000 
     56 H56         3.7052   53.4262   28.1839 H         1 UNK         0.0000 
     57 H57         3.6161   55.3501   26.5328 H         1 UNK         0.0000 
     58 H58         2.6832   53.9631   26.1861 H         1 UNK         0.0000 
     59 H59         1.5669   53.4802   25.1234 H         1 UNK         0.0000 
     60 H60         0.5767   52.8233   23.8268 H         1 UNK         0.0000 
     61 H61         1.2306   51.4187   20.2341 H         1 UNK         0.0000 
@<TRIPOS>BOND
     1    1    6 ar   
     2    1    2 ar   
     3    1   34 1    
     4    2    3 ar   
     5    2   35 1    
     6    3    4 ar   
     7    3   11 1    
     8    4    5 ar   
     9    5    6 ar   
    10    5   36 1    
    11    6    7 1    
    12    7    8 1    
    13    7    9 1    
    14    7   10 1    
    15   11   17 1    
    16   11   12 1    
    17   12   13 1    
    18   12   37 1    
    19   12   38 1    
    20   13   14 1    
    21   13   39 1    
    22   13   40 1    
    23   14   15 1    
    24   14   41 1    
    25   14   42 1    
    26   15   16 1    
    27   15   18 1    
    28   15   61 1    
    29   16   17 1    
    30   16   43 1    
    31   16   44 1    
    32   17   45 1    
    33   17   46 1    
    34   18   19 1    
    35   18   47 1    
    36   18   48 1    
    37   19   27 ar   
    38   19   20 ar   
    39   20   21 ar   
    40   21   22 ar   
    41   21   33 1    
    42   22   26 ar   
    43   22   23 1    
    44   23   32 1    
    45   23   24 2    
    46   24   25 1    
    47   24   28 1    
    48   25   26 1    
    49   26   27 ar   
    50   28   29 1    
    51   28   49 1    
    52   28   50 1    
    53   29   30 1    
    54   29   51 1    
    55   29   52 1    
    56   30   31 1    
    57   30   53 1    
    58   30   54 1    
    59   31   32 1    
    60   31   55 1    
    61   31   56 1    
    62   32   57 1    
    63   32   58 1    
    64   33   59 1    
    65   33   60 1    
@<TRIPOS>SUBSTRUCTURE
     1 UNK         1 GROUP             0       ****    0 ROOT    
