ZINC39030345_3801
                    3D
 Schrodinger Suite 2024-2.
 34 37  0  0  1  0            999 V2000
    5.5942   54.6470   25.6387 C   0  0  0  0  0  0
    6.4799   54.0825   26.5562 C   0  0  0  0  0  0
    6.0382   53.6966   27.8228 C   0  0  0  0  0  0
    4.7031   53.8968   28.1726 C   0  0  0  0  0  0
    3.8311   54.4965   27.2748 C   0  0  0  0  0  0
    4.2637   54.8558   25.9991 C   0  0  0  0  0  0
    2.5784   54.7558   27.8161 N   0  0  0  0  0  0
    2.2976   54.1344   29.1042 C   0  0  2  0  0  0
    2.0639   54.9491   29.7932 H   0  0  0  0  0  0
    3.9045   53.4857   29.6817 S   0  0  0  0  0  0
    1.1707   53.1836   29.0742 N   0  0  0  0  0  0
    0.6806   52.5101   30.1295 C   0  0  0  0  0  0
    1.1065   52.5141   31.2834 O   0  0  0  0  0  0
   -0.4637   51.8019   29.5965 C   0  0  0  0  0  0
   -0.5773   52.0798   28.2829 C   0  0  0  0  0  0
    0.4668   52.8957   27.9279 N   0  0  0  0  0  0
    0.3766   53.7548   27.4106 H   0  0  0  0  0  0
   -1.6566   51.6826   27.3381 C   0  0  0  0  0  0
   -1.6194   52.0968   25.9981 C   0  0  0  0  0  0
   -2.6405   51.7532   25.1166 C   0  0  0  0  0  0
   -3.7072   50.9816   25.5653 C   0  0  0  0  0  0
   -3.7589   50.5507   26.8867 C   0  0  0  0  0  0
   -2.7383   50.8999   27.7674 C   0  0  0  0  0  0
   -4.6973   50.6453   24.7079 F   0  0  0  0  0  0
    5.9397   54.9255   24.6535 H   0  0  0  0  0  0
    7.5044   53.9189   26.2764 H   0  0  0  0  0  0
    6.7338   53.2491   28.5160 H   0  0  0  0  0  0
    3.5848   55.2970   25.2864 H   0  0  0  0  0  0
    1.8868   55.3723   27.4164 H   0  0  0  0  0  0
   -1.1211   51.1867   30.1947 H   0  0  0  0  0  0
   -0.7972   52.6903   25.6274 H   0  0  0  0  0  0
   -2.6045   52.0754   24.0874 H   0  0  0  0  0  0
   -4.5802   49.9382   27.2252 H   0  0  0  0  0  0
   -2.7857   50.5348   28.7833 H   0  0  0  0  0  0
  1  6  2  0  0  0
  1  2  1  0  0  0
  1 25  1  0  0  0
  2  3  2  0  0  0
  2 26  1  0  0  0
  3  4  1  0  0  0
  3 27  1  0  0  0
  4 10  1  0  0  0
  4  5  2  0  0  0
  5  6  1  0  0  0
  5  7  1  0  0  0
  6 28  1  0  0  0
  7  8  1  0  0  0
  7 29  1  0  0  0
  8  9  1  0  0  0
  8 10  1  0  0  0
  8 11  1  0  0  0
 11 16  1  0  0  0
 11 12  1  0  0  0
 12 13  2  0  0  0
 12 14  1  0  0  0
 14 15  2  0  0  0
 14 30  1  0  0  0
 15 16  1  0  0  0
 15 18  1  0  0  0
 16 17  1  0  0  0
 18 23  2  0  0  0
 18 19  1  0  0  0
 19 20  2  0  0  0
 19 31  1  0  0  0
 20 21  1  0  0  0
 20 32  1  0  0  0
 21 22  2  0  0  0
 21 24  1  0  0  0
 22 23  1  0  0  0
 22 33  1  0  0  0
 23 34  1  0  0  0
M  END
> <i_i_glide_confnum>
4

> <i_i_glide_lignum>
3802

> <i_i_glide_posenum>
143

> <i_i_glide_rotatable_bonds>
2

> <i_m_Source_File_Index>
5129

> <b_m_subgroup_collapsed>
0

> <r_i_docking_score>
-5.24228

> <r_i_glide_ecoul>
-0.719989

> <r_i_glide_eff_state_penalty>
0

> <r_i_glide_einternal>
3.16605

> <r_i_glide_emodel>
-47.1679

> <r_i_glide_energy>
-37.2534

> <r_i_glide_erotb>
0.37831

> <r_i_glide_esite>
0

> <r_i_glide_evdw>
-36.5334

> <r_i_glide_gscore>
-5.24228

> <r_i_glide_hbond>
0

> <r_i_glide_ligand_efficiency>
-0.238286

> <r_i_glide_ligand_efficiency_ln>
-1.2814

> <r_i_glide_ligand_efficiency_sa>
-0.667685

> <r_i_glide_lipo>
-1.86237

> <r_i_glide_metal>
0

> <r_i_glide_rewards>
-1.82355

> <s_i_glide_gridfile>
wee1_glide-grid

> <s_m_Source_File>
wee1_decoys_glide_SP.sdf

> <s_m_Source_Path>
/Users/zhangxujun/Desktop

> <s_m_entry_id>
5404

> <s_m_entry_name>
wee1_decoys_glide_SP.5129

> <s_m_subgroup_title>
wee1_decoys_glide_SP

> <s_m_subgroupid>
wee1_decoys_glide_SP


$$$$
