@<TRIPOS>MOLECULE
ZINC39636003_634
66   69    1
SMALL
USER_CHARGES


@<TRIPOS>ATOM
      1 C1          1.9918   48.9508   20.6513 C.3       1 UNK         0.0000 
      2 C2          1.8508   50.0363   19.5610 C.3       1 UNK         0.0000 
      3 H3          2.8070   50.5520   19.4460 H         1 UNK         0.0000 
      4 C4          1.5489   49.4063   18.1847 C.3       1 UNK         0.0000 
      5 C5          1.5749   50.4815   17.0804 C.3       1 UNK         0.0000 
      6 C6          0.5742   51.6161   17.3764 C.3       1 UNK         0.0000 
      7 C7          0.7338   52.1972   18.8000 C.3       1 UNK         0.0000 
      8 C8          0.7630   51.0986   19.8892 C.3       1 UNK         0.0000 
      9 H9         -0.1909   50.5633   19.8454 H         1 UNK         0.0000 
     10 N10         0.8665   51.6328   21.2473 N.am      1 UNK         0.0000 
     11 C11        -0.1430   52.0966   22.0074 C.2       1 UNK         0.0000 
     12 O12        -1.3129   52.0961   21.6260 O.2       1 UNK         0.0000 
     13 C13         0.1706   52.6559   23.4211 C.3       1 UNK         0.0000 
     14 H14        -0.4687   53.5290   23.5680 H         1 UNK         0.0000 
     15 C15         1.6076   53.2006   23.4880 C.3       1 UNK         0.0000 
     16 N16         1.9077   53.1787   24.9188 N.am      1 UNK         0.0000 
     17 C17         0.9533   52.3454   25.6603 C.3       1 UNK         0.0000 
     18 C18         0.0475   51.6611   24.6044 C.3       1 UNK         0.0000 
     19 C19         0.5526   50.2156   24.2943 C.3       1 UNK         0.0000 
     20 C20         0.4744   49.2843   25.5314 C.3       1 UNK         0.0000 
     21 N21        -0.9709   49.2967   26.0817 N.4       1 UNK         0.0000 
     22 C22        -1.5556   50.6990   26.3364 C.3       1 UNK         0.0000 
     23 C23        -1.4322   51.5003   25.0342 C.3       1 UNK         0.0000 
     24 C24         2.9486   53.9070   25.4129 C.2       1 UNK         0.0000 
     25 O25         3.6193   54.6292   24.6748 O.2       1 UNK         0.0000 
     26 C26         3.3311   53.8121   26.8790 C.ar      1 UNK         0.0000 
     27 C27         2.3529   53.8416   27.8922 C.ar      1 UNK         0.0000 
     28 C28         2.6863   53.6712   29.2429 C.ar      1 UNK         0.0000 
     29 C29         4.0246   53.5313   29.5841 C.ar      1 UNK         0.0000 
     30 C30         5.0147   53.5621   28.6095 C.ar      1 UNK         0.0000 
     31 C31         4.6847   53.6972   27.2674 C.ar      1 UNK         0.0000 
     32 Br32        6.1542   53.6970   26.0425 Br        1 UNK         0.0000 
     33 O33         1.7821   53.6299   30.2846 O.3       1 UNK         0.0000 
     34 C34         0.3879   53.5802   30.0008 C.3       1 UNK         0.0000 
     35 H35         1.0373   48.4610   20.8461 H         1 UNK         0.0000 
     36 H36         2.7023   48.1799   20.3538 H         1 UNK         0.0000 
     37 H37         2.3495   49.3701   21.5918 H         1 UNK         0.0000 
     38 H38         0.6019   48.8647   18.2002 H         1 UNK         0.0000 
     39 H39         2.3035   48.6486   17.9586 H         1 UNK         0.0000 
     40 H40         2.5839   50.8965   16.9993 H         1 UNK         0.0000 
     41 H41         1.3594   50.0300   16.1117 H         1 UNK         0.0000 
     42 H42         0.6818   52.4105   16.6360 H         1 UNK         0.0000 
     43 H43        -0.4412   51.2316   17.2600 H         1 UNK         0.0000 
     44 H44         1.6554   52.7795   18.8489 H         1 UNK         0.0000 
     45 H45        -0.0791   52.8964   18.9968 H         1 UNK         0.0000 
     46 H46         1.7915   51.5986   21.6451 H         1 UNK         0.0000 
     47 H47         2.3284   52.5144   23.0402 H         1 UNK         0.0000 
     48 H48         1.6811   54.1913   23.0327 H         1 UNK         0.0000 
     49 H49         0.2990   53.0362   26.1869 H         1 UNK         0.0000 
     50 H50         1.3787   51.6788   26.4080 H         1 UNK         0.0000 
     51 H51         0.0025   49.7690   23.4641 H         1 UNK         0.0000 
     52 H52         1.5913   50.2507   23.9601 H         1 UNK         0.0000 
     53 H53         0.7026   48.2453   25.2858 H         1 UNK         0.0000 
     54 H54         1.1043   49.5819   26.3678 H         1 UNK         0.0000 
     55 H55        -1.5764   48.7944   25.4481 H         1 UNK         0.0000 
     56 H56        -2.5904   50.5401   26.6416 H         1 UNK         0.0000 
     57 H57        -1.0004   51.1204   27.1763 H         1 UNK         0.0000 
     58 H58        -1.8631   52.4844   25.2261 H         1 UNK         0.0000 
     59 H59        -2.0388   51.0736   24.2316 H         1 UNK         0.0000 
     60 H60         1.3224   54.0160   27.6396 H         1 UNK         0.0000 
     61 H61         4.2987   53.3955   30.6174 H         1 UNK         0.0000 
     62 H62         6.0547   53.4676   28.8815 H         1 UNK         0.0000 
     63 H63        -0.1617   53.4664   30.9358 H         1 UNK         0.0000 
     64 H64         0.0420   54.4963   29.5218 H         1 UNK         0.0000 
     65 H65         0.1375   52.7279   29.3667 H         1 UNK         0.0000 
     66 H66        -1.0286   48.7931   26.9835 H         1 UNK         0.0000 
@<TRIPOS>BOND
     1    1    2 1    
     2    1   35 1    
     3    1   36 1    
     4    1   37 1    
     5    2    3 1    
     6    2    8 1    
     7    2    4 1    
     8    4    5 1    
     9    4   38 1    
    10    4   39 1    
    11    5    6 1    
    12    5   40 1    
    13    5   41 1    
    14    6    7 1    
    15    6   42 1    
    16    6   43 1    
    17    7    8 1    
    18    7   44 1    
    19    7   45 1    
    20    8    9 1    
    21    8   10 1    
    22   10   11 am   BACKBONE|DICT|INTERRES
    23   10   46 1    
    24   11   12 2    
    25   11   13 1    
    26   13   14 1    
    27   13   18 1    
    28   13   15 1    
    29   15   16 1    
    30   15   47 1    
    31   15   48 1    
    32   16   17 1    
    33   16   24 am   BACKBONE|DICT|INTERRES
    34   17   18 1    
    35   17   49 1    
    36   17   50 1    
    37   18   23 1    
    38   18   19 1    
    39   19   20 1    
    40   19   51 1    
    41   19   52 1    
    42   20   21 1    
    43   20   53 1    
    44   20   54 1    
    45   21   22 1    
    46   21   55 1    
    47   21   66 1    
    48   22   23 1    
    49   22   56 1    
    50   22   57 1    
    51   23   58 1    
    52   23   59 1    
    53   24   25 2    
    54   24   26 1    
    55   26   31 ar   
    56   26   27 ar   
    57   27   28 ar   
    58   27   60 1    
    59   28   29 ar   
    60   28   33 1    
    61   29   30 ar   
    62   29   61 1    
    63   30   31 ar   
    64   30   62 1    
    65   31   32 1    
    66   33   34 1    
    67   34   63 1    
    68   34   64 1    
    69   34   65 1    
@<TRIPOS>SUBSTRUCTURE
     1 UNK         1 GROUP             0       ****    0 ROOT    
