@<TRIPOS>MOLECULE
ZINC50704036_6168
40   42    1
SMALL
USER_CHARGES


@<TRIPOS>ATOM
      1 C1          4.4185   54.5062   24.9501 C.ar      1 UNK         0.0000 
      2 C2          3.8344   53.9061   26.0801 C.ar      1 UNK         0.0000 
      3 C3          4.6657   53.6942   27.1950 C.ar      1 UNK         0.0000 
      4 C4          6.0229   54.0148   27.1263 C.ar      1 UNK         0.0000 
      5 N5          6.5881   54.5469   26.0169 N.ar      1 UNK         0.0000 
      6 C6          5.7912   54.7789   24.9510 C.ar      1 UNK         0.0000 
      7 N7          6.4130   55.2922   23.8204 N.pl3     1 UNK         0.0000 
      8 Cl8         7.0386   53.6967   28.4818 Cl        1 UNK         0.0000 
      9 C9          2.3627   53.5150   26.1720 C.2       1 UNK         0.0000 
     10 O10         1.8214   53.6822   27.2703 O.2       1 UNK         0.0000 
     11 N11         1.6755   52.9557   25.1197 N.am      1 UNK         0.0000 
     12 C12         2.3042   52.4967   23.8593 C.3       1 UNK         0.0000 
     13 C13         1.4557   52.9700   22.6726 C.3       1 UNK         0.0000 
     14 C14         0.0514   52.3793   22.7823 C.3       1 UNK         0.0000 
     15 C15        -0.6111   52.8404   24.0963 C.3       1 UNK         0.0000 
     16 H16        -0.7031   53.9274   24.0817 H         1 UNK         0.0000 
     17 C17         0.2685   52.4968   25.3478 C.3       1 UNK         0.0000 
     18 H18        -0.1708   53.0591   26.1709 H         1 UNK         0.0000 
     19 C19         0.2029   51.0039   25.7684 C.3       1 UNK         0.0000 
     20 C20        -1.2419   50.4853   25.8809 C.3       1 UNK         0.0000 
     21 C21        -2.0653   50.7678   24.6129 C.3       1 UNK         0.0000 
     22 C22        -2.0405   52.2633   24.2476 C.3       1 UNK         0.0000 
     23 H23         3.8272   54.7618   24.0848 H         1 UNK         0.0000 
     24 H24         4.2727   53.2540   28.1005 H         1 UNK         0.0000 
     25 H25         5.8928   55.3515   22.9591 H         1 UNK         0.0000 
     26 H26         7.4221   55.3678   23.8216 H         1 UNK         0.0000 
     27 H27         3.3294   52.8085   23.7018 H         1 UNK         0.0000 
     28 H28         2.3042   51.4066   23.8707 H         1 UNK         0.0000 
     29 H29         1.4315   54.0608   22.6254 H         1 UNK         0.0000 
     30 H30         1.9161   52.6415   21.7399 H         1 UNK         0.0000 
     31 H31         0.1046   51.2900   22.7453 H         1 UNK         0.0000 
     32 H32        -0.5613   52.6497   21.9226 H         1 UNK         0.0000 
     33 H33         0.7131   50.8601   26.7225 H         1 UNK         0.0000 
     34 H34         0.7188   50.3811   25.0365 H         1 UNK         0.0000 
     35 H35        -1.7268   50.9485   26.7420 H         1 UNK         0.0000 
     36 H36        -1.2334   49.4130   26.0842 H         1 UNK         0.0000 
     37 H37        -3.0955   50.4415   24.7629 H         1 UNK         0.0000 
     38 H38        -1.6812   50.1712   23.7843 H         1 UNK         0.0000 
     39 H39        -2.6114   52.4286   23.3329 H         1 UNK         0.0000 
     40 H40        -2.5631   52.8208   25.0267 H         1 UNK         0.0000 
@<TRIPOS>BOND
     1    1    6 ar   
     2    1    2 ar   
     3    1   23 1    
     4    2    3 ar   
     5    2    9 1    
     6    3    4 ar   
     7    3   24 1    
     8    4    5 ar   
     9    4    8 1    
    10    5    6 ar   
    11    6    7 1    
    12    7   25 1    
    13    7   26 1    
    14    9   10 2    
    15    9   11 am   BACKBONE|DICT|INTERRES
    16   11   17 1    
    17   11   12 1    
    18   12   13 1    
    19   12   27 1    
    20   12   28 1    
    21   13   14 1    
    22   13   29 1    
    23   13   30 1    
    24   14   15 1    
    25   14   31 1    
    26   14   32 1    
    27   15   16 1    
    28   15   22 1    
    29   15   17 1    
    30   17   18 1    
    31   17   19 1    
    32   19   20 1    
    33   19   33 1    
    34   19   34 1    
    35   20   21 1    
    36   20   35 1    
    37   20   36 1    
    38   21   22 1    
    39   21   37 1    
    40   21   38 1    
    41   22   39 1    
    42   22   40 1    
@<TRIPOS>SUBSTRUCTURE
     1 UNK         1 GROUP             0       ****    0 ROOT    
