@<TRIPOS>MOLECULE
ZINC11363177_2445
55   58    1
SMALL
USER_CHARGES


@<TRIPOS>ATOM
      1 C1          7.1040   55.6329   24.9943 C.3       1 UNK         0.0000 
      2 C2          6.0233   54.9452   25.7915 C.ar      1 UNK         0.0000 
      3 C3          5.0650   54.2003   25.1267 C.ar      1 UNK         0.0000 
      4 C4          4.0481   53.5949   25.8546 C.ar      1 UNK         0.0000 
      5 C5          3.8865   53.7703   27.2357 C.ar      1 UNK         0.0000 
      6 C6          4.9067   54.4958   27.8890 C.ar      1 UNK         0.0000 
      7 C7          5.9731   55.0383   27.1733 C.ar      1 UNK         0.0000 
      8 N8          2.7676   53.1661   27.9227 N.am      1 UNK         0.0000 
      9 C9          1.8934   52.0874   27.3559 C.3       1 UNK         0.0000 
     10 H10         2.6159   51.2944   27.2854 H         1 UNK         0.0000 
     11 C11         0.9315   51.6360   28.4596 C.3       1 UNK         0.0000 
     12 H12         0.8284   50.5572   28.5011 H         1 UNK         0.0000 
     13 C13         1.5759   52.2005   29.7153 C.3       1 UNK         0.0000 
     14 C14         2.5422   53.2946   29.2747 C.2       1 UNK         0.0000 
     15 O15         3.0219   54.0960   30.0807 O.2       1 UNK         0.0000 
     16 C16        -0.4469   52.2499   28.2201 C.2       1 UNK         0.0000 
     17 O17        -0.4933   53.4770   28.1900 O.2       1 UNK         0.0000 
     18 N18        -1.4466   51.3953   27.8881 N.am      1 UNK         0.0000 
     19 C19        -2.6097   51.7008   27.1679 C.ar      1 UNK         0.0000 
     20 C20        -2.6139   52.6432   26.1280 C.ar      1 UNK         0.0000 
     21 C21        -3.7686   52.8529   25.3866 C.ar      1 UNK         0.0000 
     22 C22        -4.9238   52.1233   25.6708 C.ar      1 UNK         0.0000 
     23 C23        -4.9112   51.1615   26.6850 C.ar      1 UNK         0.0000 
     24 C24        -3.7520   50.9470   27.4277 C.ar      1 UNK         0.0000 
     25 N25        -6.0563   52.3408   24.8771 N.pl3     1 UNK         0.0000 
     26 S26        -7.6539   52.5443   25.5989 S.o2      1 UNK         0.0000 
     27 O27        -7.5620   53.7084   26.4886 O.2       1 UNK         0.0000 
     28 O28        -8.0836   51.2360   26.1048 O.2       1 UNK         0.0000 
     29 C29        -8.6922   52.9975   24.1025 C.3       1 UNK         0.0000 
     30 C30         1.2534   52.1912   25.9305 C.2       1 UNK         0.0000 
     31 C31         1.1416   53.2836   25.0765 C.2       1 UNK         0.0000 
     32 C32         0.7043   52.9833   23.7842 C.2       1 UNK         0.0000 
     33 C33         0.3012   51.6704   23.6501 C.2       1 UNK         0.0000 
     34 S34         0.5450   50.7999   25.1248 S.3       1 UNK         0.0000 
     35 H35         6.7296   55.9783   24.0300 H         1 UNK         0.0000 
     36 H36         7.5044   56.4964   25.5136 H         1 UNK         0.0000 
     37 H37         7.9045   54.9140   24.8274 H         1 UNK         0.0000 
     38 H38         5.1335   54.0405   24.0667 H         1 UNK         0.0000 
     39 H39         3.4717   52.9001   25.2838 H         1 UNK         0.0000 
     40 H40         4.9299   54.6501   28.9547 H         1 UNK         0.0000 
     41 H41         6.7537   55.5779   27.6851 H         1 UNK         0.0000 
     42 H42         0.8616   52.6670   30.3986 H         1 UNK         0.0000 
     43 H43         2.0762   51.4200   30.2848 H         1 UNK         0.0000 
     44 H44        -1.3222   50.4023   28.0800 H         1 UNK         0.0000 
     45 H45        -1.7194   53.1892   25.8786 H         1 UNK         0.0000 
     46 H46        -3.7557   53.5713   24.5767 H         1 UNK         0.0000 
     47 H47        -5.7862   50.5592   26.8825 H         1 UNK         0.0000 
     48 H48        -3.7381   50.1745   28.1897 H         1 UNK         0.0000 
     49 H49        -5.9056   52.9660   24.1003 H         1 UNK         0.0000 
     50 H50        -9.7324   53.0607   24.4142 H         1 UNK         0.0000 
     51 H51        -8.5702   52.2229   23.3455 H         1 UNK         0.0000 
     52 H52        -8.3491   53.9569   23.7166 H         1 UNK         0.0000 
     53 H53         1.4855   54.2610   25.3639 H         1 UNK         0.0000 
     54 H54         0.6982   53.7047   22.9839 H         1 UNK         0.0000 
     55 H55        -0.0922   51.1734   22.7752 H         1 UNK         0.0000 
@<TRIPOS>BOND
     1    1    2 1    
     2    1   35 1    
     3    1   36 1    
     4    1   37 1    
     5    2    7 ar   
     6    2    3 ar   
     7    3    4 ar   
     8    3   38 1    
     9    4    5 ar   
    10    4   39 1    
    11    5    6 ar   
    12    5    8 1    
    13    6    7 ar   
    14    6   40 1    
    15    7   41 1    
    16    8   14 am   BACKBONE|DICT|INTERRES
    17    8    9 1    
    18    9   10 1    
    19    9   11 1    
    20    9   30 1    
    21   11   12 1    
    22   11   13 1    
    23   11   16 1    
    24   13   14 1    
    25   13   42 1    
    26   13   43 1    
    27   14   15 2    
    28   16   17 2    
    29   16   18 am   BACKBONE|DICT|INTERRES
    30   18   19 1    
    31   18   44 1    
    32   19   24 ar   
    33   19   20 ar   
    34   20   21 ar   
    35   20   45 1    
    36   21   22 ar   
    37   21   46 1    
    38   22   23 ar   
    39   22   25 1    
    40   23   24 ar   
    41   23   47 1    
    42   24   48 1    
    43   25   26 1    
    44   25   49 1    
    45   26   27 2    
    46   26   28 2    
    47   26   29 1    
    48   29   50 1    
    49   29   51 1    
    50   29   52 1    
    51   30   34 1    
    52   30   31 2    
    53   31   32 1    
    54   31   53 1    
    55   32   33 2    
    56   32   54 1    
    57   33   34 1    
    58   33   55 1    
@<TRIPOS>SUBSTRUCTURE
     1 UNK         1 GROUP             0       ****    0 ROOT    
