ZINC39683933_6192
                    3D
 Schrodinger Suite 2024-2.
 64 65  0  0  1  0            999 V2000
    6.7045   54.9735   26.4184 C   0  0  0  0  0  0
    6.8740   55.5851   25.0174 C   0  0  0  0  0  0
    6.5110   54.6299   23.8643 C   0  0  0  0  0  0
    5.0077   54.2990   23.7987 C   0  0  0  0  0  0
    4.5603   53.6385   22.4722 C   0  0  0  0  0  0
    3.0763   53.8552   22.0827 C   0  0  0  0  0  0
    2.0425   53.6300   23.2068 C   0  0  0  0  0  0
    1.9456   54.4918   24.0817 O   0  0  0  0  0  0
    1.2592   52.5235   23.2118 N   0  0  0  0  0  0
    1.2125   51.5017   22.1658 C   0  0  0  0  0  0
   -0.0342   50.6575   22.5102 C   0  0  1  0  0  0
    0.2077   49.6225   22.2782 H   0  0  0  0  0  0
   -0.2551   50.8503   24.0448 C   0  0  0  0  0  0
    0.2880   52.2767   24.2808 C   0  0  0  0  0  0
    0.6368   49.8523   24.8397 C   0  0  0  0  0  0
    0.1360   48.3964   24.7141 C   0  0  0  0  0  0
   -1.2971   48.3176   25.2818 N   0  3  0  0  0  0
   -2.2569   49.3011   24.5756 C   0  0  0  0  0  0
   -1.6684   50.7205   24.6910 C   0  0  0  0  0  0
   -1.2462   51.0392   21.6313 C   0  0  0  0  0  0
   -1.8492   52.0970   21.8099 O   0  0  0  0  0  0
   -1.5748   50.1596   20.6663 N   0  0  0  0  0  0
   -2.6942   50.2600   19.7210 C   0  0  1  0  0  0
   -2.5913   49.4132   19.0413 H   0  0  0  0  0  0
   -4.0347   50.0906   20.4671 C   0  0  0  0  0  0
   -2.6497   51.5155   18.8237 C   0  0  0  0  0  0
   -3.6956   52.0971   18.5434 O   0  0  0  0  0  0
   -1.4417   51.9063   18.3926 N   0  0  0  0  0  0
   -1.2197   53.0417   17.5054 C   0  0  0  0  0  0
    6.9960   55.6779   27.1976 H   0  0  0  0  0  0
    5.6671   54.6961   26.6105 H   0  0  0  0  0  0
    7.3127   54.0761   26.5380 H   0  0  0  0  0  0
    7.9032   55.9145   24.8810 H   0  0  0  0  0  0
    6.2723   56.4930   24.9437 H   0  0  0  0  0  0
    7.0965   53.7116   23.9347 H   0  0  0  0  0  0
    6.8176   55.1066   22.9320 H   0  0  0  0  0  0
    4.4490   55.2214   23.9522 H   0  0  0  0  0  0
    4.7310   53.6594   24.6378 H   0  0  0  0  0  0
    4.7930   52.5728   22.4816 H   0  0  0  0  0  0
    5.1580   54.0420   21.6531 H   0  0  0  0  0  0
    2.8387   53.2894   21.1845 H   0  0  0  0  0  0
    2.9714   54.8964   21.7804 H   0  0  0  0  0  0
    2.0949   50.8645   22.2421 H   0  0  0  0  0  0
    1.1561   51.8863   21.1455 H   0  0  0  0  0  0
   -0.5297   52.9849   24.1315 H   0  0  0  0  0  0
    0.6486   52.4325   25.2992 H   0  0  0  0  0  0
    1.6655   49.9031   24.4800 H   0  0  0  0  0  0
    0.6939   50.1284   25.8953 H   0  0  0  0  0  0
    0.0833   48.0274   23.6915 H   0  0  0  0  0  0
    0.7410   47.6985   25.2817 H   0  0  0  0  0  0
   -1.6446   47.3738   25.2004 H   0  0  0  0  0  0
   -2.3644   48.9641   23.5438 H   0  0  0  0  0  0
   -3.2178   49.2091   25.0846 H   0  0  0  0  0  0
   -1.6320   51.0112   25.7423 H   0  0  0  0  0  0
   -2.3635   51.4288   24.2386 H   0  0  0  0  0  0
   -1.0153   49.3275   20.5603 H   0  0  0  0  0  0
   -4.8817   50.0917   19.7776 H   0  0  0  0  0  0
   -4.0621   49.1459   21.0125 H   0  0  0  0  0  0
   -4.1974   50.8912   21.1890 H   0  0  0  0  0  0
   -0.6272   51.3866   18.6826 H   0  0  0  0  0  0
   -0.3703   52.8379   16.8525 H   0  0  0  0  0  0
   -0.9924   53.9382   18.0815 H   0  0  0  0  0  0
   -2.0839   53.2507   16.8696 H   0  0  0  0  0  0
   -1.2846   48.5062   26.2833 H   0  0  0  0  0  0
  1  2  1  0  0  0
  1 30  1  0  0  0
  1 31  1  0  0  0
  1 32  1  0  0  0
  2  3  1  0  0  0
  2 33  1  0  0  0
  2 34  1  0  0  0
  3  4  1  0  0  0
  3 35  1  0  0  0
  3 36  1  0  0  0
  4  5  1  0  0  0
  4 37  1  0  0  0
  4 38  1  0  0  0
  5  6  1  0  0  0
  5 39  1  0  0  0
  5 40  1  0  0  0
  6  7  1  0  0  0
  6 41  1  0  0  0
  6 42  1  0  0  0
  7  8  2  0  0  0
  7  9  1  0  0  0
  9 14  1  0  0  0
  9 10  1  0  0  0
 10 11  1  0  0  0
 10 43  1  0  0  0
 10 44  1  0  0  0
 11 12  1  0  0  0
 11 13  1  0  0  0
 11 20  1  0  0  0
 13 19  1  0  0  0
 13 14  1  0  0  0
 13 15  1  0  0  0
 14 45  1  0  0  0
 14 46  1  0  0  0
 15 16  1  0  0  0
 15 47  1  0  0  0
 15 48  1  0  0  0
 16 17  1  0  0  0
 16 49  1  0  0  0
 16 50  1  0  0  0
 17 18  1  0  0  0
 17 51  1  0  0  0
 17 64  1  0  0  0
 18 19  1  0  0  0
 18 52  1  0  0  0
 18 53  1  0  0  0
 19 54  1  0  0  0
 19 55  1  0  0  0
 20 21  2  0  0  0
 20 22  1  0  0  0
 22 23  1  0  0  0
 22 56  1  0  0  0
 23 24  1  0  0  0
 23 25  1  0  0  0
 23 26  1  0  0  0
 25 57  1  0  0  0
 25 58  1  0  0  0
 25 59  1  0  0  0
 26 27  2  0  0  0
 26 28  1  0  0  0
 28 29  1  0  0  0
 28 60  1  0  0  0
 29 61  1  0  0  0
 29 62  1  0  0  0
 29 63  1  0  0  0
M  CHG  1  17   1
M  END
> <i_i_glide_confnum>
159

> <i_i_glide_lignum>
6193

> <i_i_glide_posenum>
272

> <i_i_glide_rotatable_bonds>
11

> <i_m_Source_File_Index>
2466

> <b_m_subgroup_collapsed>
0

> <r_i_docking_score>
-4.57086

> <r_i_glide_ecoul>
-9.36787

> <r_i_glide_eff_state_penalty>
0

> <r_i_glide_einternal>
6.65896

> <r_i_glide_emodel>
-47.4486

> <r_i_glide_energy>
-38.1126

> <r_i_glide_erotb>
1.20019

> <r_i_glide_esite>
-0.127858

> <r_i_glide_evdw>
-28.7448

> <r_i_glide_gscore>
-4.57086

> <r_i_glide_hbond>
-0.164386

> <r_i_glide_ligand_efficiency>
-0.169291

> <r_i_glide_ligand_efficiency_ln>
-1.06402

> <r_i_glide_ligand_efficiency_sa>
-0.507873

> <r_i_glide_lipo>
-1.33066

> <r_i_glide_metal>
0

> <r_i_glide_rewards>
-1.30573

> <s_i_glide_gridfile>
wee1_glide-grid

> <s_m_Source_File>
wee1_decoys_glide_SP.sdf

> <s_m_Source_Path>
/Users/zhangxujun/Desktop

> <s_m_entry_id>
2741

> <s_m_entry_name>
wee1_decoys_glide_SP.2466

> <s_m_subgroup_title>
wee1_decoys_glide_SP

> <s_m_subgroupid>
wee1_decoys_glide_SP


$$$$
