@<TRIPOS>MOLECULE
ZINC22824109_6114
51   54    1
SMALL
USER_CHARGES


@<TRIPOS>ATOM
      1 C1         10.2921   55.1662   15.0913 C.3       1 UNK         0.0000 
      2 C2         10.0342   53.6828   14.9115 C.2       1 UNK         0.0000 
      3 C3         10.6487   52.9183   13.9047 C.2       1 UNK         0.0000 
      4 C4         10.2698   51.5863   13.8859 C.2       1 UNK         0.0000 
      5 S5          9.1049   51.2399   15.1086 S.3       1 UNK         0.0000 
      6 C6          9.1320   52.8945   15.6547 C.2       1 UNK         0.0000 
      7 C7          8.2706   53.2520   16.7855 C.2       1 UNK         0.0000 
      8 N8          8.2976   54.4006   17.3308 N.2       1 UNK         0.0000 
      9 N9          7.4749   54.4819   18.3932 N.am      1 UNK         0.0000 
     10 C10         7.4591   55.5308   19.2451 C.2       1 UNK         0.0000 
     11 O11         8.0639   56.5943   19.0874 O.2       1 UNK         0.0000 
     12 C12         6.7533   55.2486   20.4681 C.ar      1 UNK         0.0000 
     13 C13         7.1502   55.6934   21.7333 C.ar      1 UNK         0.0000 
     14 C14         6.3328   55.0564   22.6426 C.ar      1 UNK         0.0000 
     15 N15         5.4039   54.3577   21.8818 N.pl3     1 UNK         0.0000 
     16 N16         5.6727   54.4981   20.5706 N.2       1 UNK         0.0000 
     17 C17         4.4499   53.3574   22.4056 C.3       1 UNK         0.0000 
     18 H18         5.0204   52.4289   22.4439 H         1 UNK         0.0000 
     19 C19         4.1601   53.8011   23.8510 C.3       1 UNK         0.0000 
     20 C20         5.4308   54.0966   24.6802 C.3       1 UNK         0.0000 
     21 H21         6.0396   53.1984   24.6781 H         1 UNK         0.0000 
     22 N22         6.2914   55.0886   24.0282 N.pl3     1 UNK         0.0000 
     23 C23         5.1458   54.2831   26.1745 C.ar      1 UNK         0.0000 
     24 C24         6.1805   54.1020   27.0983 C.ar      1 UNK         0.0000 
     25 C25         5.9048   54.0967   28.4633 C.ar      1 UNK         0.0000 
     26 C26         4.5950   54.2717   28.9051 C.ar      1 UNK         0.0000 
     27 C27         3.5667   54.4954   28.0025 C.ar      1 UNK         0.0000 
     28 C28         3.8409   54.4991   26.6430 C.ar      1 UNK         0.0000 
     29 F29         4.3007   54.2053   30.2203 F         1 UNK         0.0000 
     30 C30         3.1309   53.0645   21.6011 C.3       1 UNK         0.0000 
     31 C31         2.6072   51.6092   21.7137 C.3       1 UNK         0.0000 
     32 F32         2.3041   51.2738   22.9670 F         1 UNK         0.0000 
     33 F33         1.4985   51.4308   20.9926 F         1 UNK         0.0000 
     34 F34         3.5045   50.7267   21.2810 F         1 UNK         0.0000 
     35 F35         2.1607   53.8461   22.0818 F         1 UNK         0.0000 
     36 F36         3.2634   53.3170   20.2984 F         1 UNK         0.0000 
     37 H37         9.3614   55.7237   15.1968 H         1 UNK         0.0000 
     38 H38        10.8627   55.3625   15.9983 H         1 UNK         0.0000 
     39 H39        10.8197   55.6104   14.2468 H         1 UNK         0.0000 
     40 H40        11.3659   53.3296   13.2103 H         1 UNK         0.0000 
     41 H41        10.6172   50.8055   13.2215 H         1 UNK         0.0000 
     42 H42         7.6277   52.4329   17.1070 H         1 UNK         0.0000 
     43 H43         6.9256   53.6567   18.5838 H         1 UNK         0.0000 
     44 H44         7.9974   56.3222   21.9676 H         1 UNK         0.0000 
     45 H45         3.5213   54.6869   23.8408 H         1 UNK         0.0000 
     46 H46         3.5548   53.0373   24.3416 H         1 UNK         0.0000 
     47 H47         7.1677   55.2038   24.5153 H         1 UNK         0.0000 
     48 H48         7.1897   53.9155   26.7627 H         1 UNK         0.0000 
     49 H49         6.7040   53.9437   29.1731 H         1 UNK         0.0000 
     50 H50         2.5563   54.6363   28.3558 H         1 UNK         0.0000 
     51 H51         3.0096   54.6414   25.9720 H         1 UNK         0.0000 
@<TRIPOS>BOND
     1    1    2 1    
     2    1   37 1    
     3    1   38 1    
     4    1   39 1    
     5    2    6 2    
     6    2    3 1    
     7    3    4 2    
     8    3   40 1    
     9    4    5 1    
    10    4   41 1    
    11    5    6 1    
    12    6    7 1    
    13    7    8 2    
    14    7   42 1    
    15    8    9 1    
    16    9   10 am   BACKBONE|DICT|INTERRES
    17    9   43 1    
    18   10   11 2    
    19   10   12 1    
    20   12   16 ar   
    21   12   13 ar   
    22   13   14 ar   
    23   13   44 1    
    24   14   22 1    
    25   14   15 ar   
    26   15   16 ar   
    27   15   17 1    
    28   17   18 1    
    29   17   19 1    
    30   17   30 1    
    31   19   20 1    
    32   19   45 1    
    33   19   46 1    
    34   20   21 1    
    35   20   22 1    
    36   20   23 1    
    37   22   47 1    
    38   23   28 ar   
    39   23   24 ar   
    40   24   25 ar   
    41   24   48 1    
    42   25   26 ar   
    43   25   49 1    
    44   26   27 ar   
    45   26   29 1    
    46   27   28 ar   
    47   27   50 1    
    48   28   51 1    
    49   30   31 1    
    50   30   35 1    
    51   30   36 1    
    52   31   32 1    
    53   31   33 1    
    54   31   34 1    
@<TRIPOS>SUBSTRUCTURE
     1 UNK         1 GROUP             0       ****    0 ROOT    
