@<TRIPOS>MOLECULE
ZINC54940246_229
51   54    1
SMALL
USER_CHARGES


@<TRIPOS>ATOM
      1 C1          1.8646   54.4257   23.4417 C.3       1 UNK         0.0000 
      2 C2          3.3585   54.2181   23.1081 C.3       1 UNK         0.0000 
      3 H3          3.6552   54.9893   22.3926 H         1 UNK         0.0000 
      4 C4          4.2885   54.2932   24.3322 C.ar      1 UNK         0.0000 
      5 C5          3.8311   54.0220   25.6314 C.ar      1 UNK         0.0000 
      6 C6          4.6983   54.1104   26.7181 C.ar      1 UNK         0.0000 
      7 C7          6.0263   54.4793   26.5171 C.ar      1 UNK         0.0000 
      8 C8          6.4908   54.7599   25.2354 C.ar      1 UNK         0.0000 
      9 C9          5.6266   54.6685   24.1512 C.ar      1 UNK         0.0000 
     10 N10         3.5136   52.8965   22.3121 N.4       1 UNK         0.0000 
     11 C11         4.9265   52.6351   21.7571 C.3       1 UNK         0.0000 
     12 C12         4.7390   51.6392   20.6159 C.3       1 UNK         0.0000 
     13 C13         3.2477   51.5800   20.2600 C.3       1 UNK         0.0000 
     14 H14         2.8174   50.6578   20.6572 H         1 UNK         0.0000 
     15 C15         2.6406   52.7520   21.0491 C.3       1 UNK         0.0000 
     16 N16         3.1043   51.6968   18.8093 N.am      1 UNK         0.0000 
     17 C17         1.9691   51.9983   18.1327 C.2       1 UNK         0.0000 
     18 O18         0.8860   52.1310   18.7129 O.2       1 UNK         0.0000 
     19 C19         2.0763   52.2016   16.6449 C.2       1 UNK         0.0000 
     20 O20         1.0646   52.4772   15.9931 O.2       1 UNK         0.0000 
     21 N21         3.3222   52.0961   16.1142 N.am      1 UNK         0.0000 
     22 C22         3.7160   52.2718   14.7957 C.2       1 UNK         0.0000 
     23 N23         4.9645   52.0756   14.4810 N.2       1 UNK         0.0000 
     24 C24         5.1842   52.2824   13.1557 C.ar      1 UNK         0.0000 
     25 C25         6.4275   52.1414   12.5203 C.ar      1 UNK         0.0000 
     26 C26         6.5037   52.3923   11.1489 C.ar      1 UNK         0.0000 
     27 C27         5.3776   52.7758   10.4206 C.ar      1 UNK         0.0000 
     28 C28         4.1290   52.9203   11.0288 C.ar      1 UNK         0.0000 
     29 C29         4.0417   52.6696   12.4052 C.ar      1 UNK         0.0000 
     30 S30         2.6528   52.7543   13.4764 S.3       1 UNK         0.0000 
     31 H31         1.7288   55.2967   24.0803 H         1 UNK         0.0000 
     32 H32         1.2755   54.6033   22.5421 H         1 UNK         0.0000 
     33 H33         1.4343   53.5667   23.9589 H         1 UNK         0.0000 
     34 H34         2.8092   53.7277   25.8157 H         1 UNK         0.0000 
     35 H35         4.3427   53.8926   27.7150 H         1 UNK         0.0000 
     36 H36         6.6963   54.5466   27.3633 H         1 UNK         0.0000 
     37 H37         7.5141   55.0504   25.0684 H         1 UNK         0.0000 
     38 H38         6.0047   54.9051   23.1674 H         1 UNK         0.0000 
     39 H39         5.5791   52.3023   22.5617 H         1 UNK         0.0000 
     40 H40         5.2874   53.5933   21.3794 H         1 UNK         0.0000 
     41 H41         5.1043   50.6510   20.8816 H         1 UNK         0.0000 
     42 H42         5.3511   51.9890   19.7824 H         1 UNK         0.0000 
     43 H43         2.7170   53.6967   20.5115 H         1 UNK         0.0000 
     44 H44         1.5986   52.6093   21.3409 H         1 UNK         0.0000 
     45 H45         3.9644   51.4766   18.3100 H         1 UNK         0.0000 
     46 H46         4.0762   51.8045   16.7179 H         1 UNK         0.0000 
     47 H47         7.3055   51.8472   13.0777 H         1 UNK         0.0000 
     48 H48         7.4529   52.2921   10.6412 H         1 UNK         0.0000 
     49 H49         5.4751   52.9671    9.3600 H         1 UNK         0.0000 
     50 H50         3.2607   53.2173   10.4580 H         1 UNK         0.0000 
     51 H51         3.2642   52.1554   22.9523 H         1 UNK         0.0000 
@<TRIPOS>BOND
     1    1    2 1    
     2    1   31 1    
     3    1   32 1    
     4    1   33 1    
     5    2    3 1    
     6    2    4 1    
     7    2   10 1    
     8    4    9 ar   
     9    4    5 ar   
    10    5    6 ar   
    11    5   34 1    
    12    6    7 ar   
    13    6   35 1    
    14    7    8 ar   
    15    7   36 1    
    16    8    9 ar   
    17    8   37 1    
    18    9   38 1    
    19   10   15 1    
    20   10   11 1    
    21   10   51 1    
    22   11   12 1    
    23   11   39 1    
    24   11   40 1    
    25   12   13 1    
    26   12   41 1    
    27   12   42 1    
    28   13   14 1    
    29   13   15 1    
    30   13   16 1    
    31   15   43 1    
    32   15   44 1    
    33   16   17 am   BACKBONE|DICT|INTERRES
    34   16   45 1    
    35   17   18 2    
    36   17   19 1    
    37   19   20 2    
    38   19   21 am   BACKBONE|DICT|INTERRES
    39   21   22 am   BACKBONE|DICT|INTERRES
    40   21   46 1    
    41   22   30 1    
    42   22   23 2    
    43   23   24 1    
    44   24   29 ar   
    45   24   25 ar   
    46   25   26 ar   
    47   25   47 1    
    48   26   27 ar   
    49   26   48 1    
    50   27   28 ar   
    51   27   49 1    
    52   28   29 ar   
    53   28   50 1    
    54   29   30 1    
@<TRIPOS>SUBSTRUCTURE
     1 UNK         1 GROUP             0       ****    0 ROOT    
