@<TRIPOS>MOLECULE
ZINC13124156_2170
49   52    1
SMALL
USER_CHARGES


@<TRIPOS>ATOM
      1 C1          5.0786   54.9945   16.0407 C.ar      1 UNK         0.0000 
      2 C2          5.5903   54.8299   14.7558 C.ar      1 UNK         0.0000 
      3 C3          6.7818   54.1337   14.5690 C.ar      1 UNK         0.0000 
      4 C4          7.4684   53.6001   15.6563 C.ar      1 UNK         0.0000 
      5 C5          6.9604   53.7661   16.9419 C.ar      1 UNK         0.0000 
      6 C6          5.7648   54.4681   17.1396 C.ar      1 UNK         0.0000 
      7 C7          5.1907   54.6318   18.5446 C.3       1 UNK         0.0000 
      8 H8          4.4143   55.3952   18.4623 H         1 UNK         0.0000 
      9 C9          4.5350   53.3144   19.0277 C.3       1 UNK         0.0000 
     10 C10         3.9454   53.4079   20.4536 C.3       1 UNK         0.0000 
     11 H11         3.1052   54.0970   20.4176 H         1 UNK         0.0000 
     12 N12         4.9908   54.0218   21.2892 N.pl3     1 UNK         0.0000 
     13 C13         5.9699   54.8965   20.8565 C.ar      1 UNK         0.0000 
     14 C14         6.6610   55.2730   21.9923 C.ar      1 UNK         0.0000 
     15 C15         6.0334   54.6198   23.0661 C.ar      1 UNK         0.0000 
     16 N16         5.0077   53.9122   22.6272 N.2       1 UNK         0.0000 
     17 C17         6.4026   54.7695   24.4544 C.2       1 UNK         0.0000 
     18 O18         7.1042   55.6967   24.8574 O.2       1 UNK         0.0000 
     19 N19         5.9437   53.8027   25.2598 N.am      1 UNK         0.0000 
     20 C20         6.2157   53.7108   26.6871 C.3       1 UNK         0.0000 
     21 C21         5.3628   54.6739   27.5320 C.3       1 UNK         0.0000 
     22 H22         5.6457   55.6967   27.2925 H         1 UNK         0.0000 
     23 C23         5.4303   54.3981   29.0198 C.3       1 UNK         0.0000 
     24 C24         4.3367   53.3810   29.2868 C.3       1 UNK         0.0000 
     25 C25         3.4202   53.4752   28.0650 C.3       1 UNK         0.0000 
     26 O26         3.9705   54.5147   27.2564 O.3       1 UNK         0.0000 
     27 N27         6.1645   55.1541   19.5146 N.pl3     1 UNK         0.0000 
     28 C28         3.3608   52.0766   20.9836 C.3       1 UNK         0.0000 
     29 F29         2.5129   51.5365   20.1085 F         1 UNK         0.0000 
     30 F30         4.3195   51.1826   21.2059 F         1 UNK         0.0000 
     31 F31         2.6869   52.2436   22.1226 F         1 UNK         0.0000 
     32 F32         7.2739   53.9725   13.3205 F         1 UNK         0.0000 
     33 H33         4.1513   55.5311   16.1775 H         1 UNK         0.0000 
     34 H34         5.0652   55.2376   13.9055 H         1 UNK         0.0000 
     35 H35         8.3887   53.0570   15.5012 H         1 UNK         0.0000 
     36 H36         7.4892   53.3426   17.7840 H         1 UNK         0.0000 
     37 H37         5.2577   52.4970   18.9851 H         1 UNK         0.0000 
     38 H38         3.7551   53.0088   18.3278 H         1 UNK         0.0000 
     39 H39         7.5246   55.9208   22.0484 H         1 UNK         0.0000 
     40 H40         5.3443   53.0930   24.8655 H         1 UNK         0.0000 
     41 H41         7.2750   53.8966   26.8769 H         1 UNK         0.0000 
     42 H42         6.0391   52.6875   27.0156 H         1 UNK         0.0000 
     43 H43         5.2560   55.3171   29.5792 H         1 UNK         0.0000 
     44 H44         6.4408   54.0871   29.2815 H         1 UNK         0.0000 
     45 H45         3.8052   53.5990   30.2132 H         1 UNK         0.0000 
     46 H46         4.7530   52.3755   29.3726 H         1 UNK         0.0000 
     47 H47         2.3914   53.7156   28.3356 H         1 UNK         0.0000 
     48 H48         3.4109   52.5397   27.5038 H         1 UNK         0.0000 
     49 H49         6.5305   56.0502   19.2287 H         1 UNK         0.0000 
@<TRIPOS>BOND
     1    1    6 ar   
     2    1    2 ar   
     3    1   33 1    
     4    2    3 ar   
     5    2   34 1    
     6    3    4 ar   
     7    3   32 1    
     8    4    5 ar   
     9    4   35 1    
    10    5    6 ar   
    11    5   36 1    
    12    6    7 1    
    13    7    8 1    
    14    7   27 1    
    15    7    9 1    
    16    9   10 1    
    17    9   37 1    
    18    9   38 1    
    19   10   11 1    
    20   10   12 1    
    21   10   28 1    
    22   12   16 ar   
    23   12   13 ar   
    24   13   14 ar   
    25   13   27 1    
    26   14   15 ar   
    27   14   39 1    
    28   15   16 ar   
    29   15   17 1    
    30   17   18 2    
    31   17   19 am   BACKBONE|DICT|INTERRES
    32   19   20 1    
    33   19   40 1    
    34   20   21 1    
    35   20   41 1    
    36   20   42 1    
    37   21   22 1    
    38   21   26 1    
    39   21   23 1    
    40   23   24 1    
    41   23   43 1    
    42   23   44 1    
    43   24   25 1    
    44   24   45 1    
    45   24   46 1    
    46   25   26 1    
    47   25   47 1    
    48   25   48 1    
    49   27   49 1    
    50   28   29 1    
    51   28   30 1    
    52   28   31 1    
@<TRIPOS>SUBSTRUCTURE
     1 UNK         1 GROUP             0       ****    0 ROOT    
