@<TRIPOS>MOLECULE
ZINC13016721_5879
56   59    1
SMALL
USER_CHARGES


@<TRIPOS>ATOM
      1 C1          1.4316   50.8270   22.9451 C.3       1 UNK         0.0000 
      2 C2          0.4633   51.9402   23.4183 C.3       1 UNK         0.0000 
      3 H3          0.5998   52.8141   22.7776 H         1 UNK         0.0000 
      4 C4         -0.9972   51.4949   23.2331 C.2       1 UNK         0.0000 
      5 O5         -1.7366   52.0979   22.4536 O.2       1 UNK         0.0000 
      6 N6         -1.4019   50.4402   23.9647 N.am      1 UNK         0.0000 
      7 C7         -2.7186   49.8037   23.9151 C.3       1 UNK         0.0000 
      8 C8         -2.8623   48.8426   22.7069 C.3       1 UNK         0.0000 
      9 C9         -1.8890   47.6432   22.7910 C.3       1 UNK         0.0000 
     10 C10        -2.0644   46.8656   24.1131 C.3       1 UNK         0.0000 
     11 C11        -2.0135   47.7851   25.3517 C.3       1 UNK         0.0000 
     12 C12        -2.9763   48.9874   25.2058 C.3       1 UNK         0.0000 
     13 S13         0.7223   52.4967   25.1452 S.3       1 UNK         0.0000 
     14 C14         2.3454   53.3245   25.1225 C.ar      1 UNK         0.0000 
     15 N15         2.8719   53.5304   23.9687 N.2       1 UNK         0.0000 
     16 C16         4.1449   54.0865   23.8362 C.ar      1 UNK         0.0000 
     17 C17         4.6519   54.2820   22.5533 C.ar      1 UNK         0.0000 
     18 C18         5.9044   54.8966   22.3717 C.ar      1 UNK         0.0000 
     19 C19         6.6571   55.2284   23.5107 C.ar      1 UNK         0.0000 
     20 C20         6.1725   54.9883   24.7971 C.ar      1 UNK         0.0000 
     21 C21         4.8983   54.4366   24.9517 C.ar      1 UNK         0.0000 
     22 C22         4.3015   54.2171   26.3245 C.ar      1 UNK         0.0000 
     23 O23         4.9190   54.4963   27.3586 O.2       1 UNK         0.0000 
     24 N24         3.0106   53.7061   26.2942 N.pl3     1 UNK         0.0000 
     25 C25         2.3483   53.6124   27.5540 C.ar      1 UNK         0.0000 
     26 C26         2.0302   52.3618   28.1021 C.ar      1 UNK         0.0000 
     27 C27         1.3330   52.2785   29.3025 C.ar      1 UNK         0.0000 
     28 C28         0.9844   53.4441   29.9820 C.ar      1 UNK         0.0000 
     29 C29         1.3205   54.6922   29.4666 C.ar      1 UNK         0.0000 
     30 C30         1.9944   54.7787   28.2518 C.ar      1 UNK         0.0000 
     31 F31         0.3154   53.3657   31.1527 F         1 UNK         0.0000 
     32 C32         6.3740   55.2972   21.0045 C.2       1 UNK         0.0000 
     33 O33         7.1039   56.3156   20.9132 O.co2     1 UNK         0.0000 
     34 H34         1.1825   50.4694   21.9444 H         1 UNK         0.0000 
     35 H35         2.4605   51.1796   22.8925 H         1 UNK         0.0000 
     36 H36         1.4195   49.9663   23.6155 H         1 UNK         0.0000 
     37 H37        -0.7091   49.9611   24.5202 H         1 UNK         0.0000 
     38 H38        -3.4734   50.5920   23.8516 H         1 UNK         0.0000 
     39 H39        -2.6961   49.3883   21.7764 H         1 UNK         0.0000 
     40 H40        -3.8891   48.4790   22.6499 H         1 UNK         0.0000 
     41 H41        -0.8605   47.9978   22.7101 H         1 UNK         0.0000 
     42 H42        -2.0450   46.9747   21.9428 H         1 UNK         0.0000 
     43 H43        -1.2981   46.0952   24.1985 H         1 UNK         0.0000 
     44 H44        -3.0224   46.3452   24.0981 H         1 UNK         0.0000 
     45 H45        -0.9935   48.1394   25.5086 H         1 UNK         0.0000 
     46 H46        -2.2640   47.2182   26.2504 H         1 UNK         0.0000 
     47 H47        -4.0073   48.6284   25.2125 H         1 UNK         0.0000 
     48 H48        -2.8846   49.6345   26.0822 H         1 UNK         0.0000 
     49 H49         4.0426   54.0226   21.6978 H         1 UNK         0.0000 
     50 H50         7.6003   55.7364   23.3897 H         1 UNK         0.0000 
     51 H51         6.7657   55.2739   25.6542 H         1 UNK         0.0000 
     52 H52         2.2931   51.4500   27.5895 H         1 UNK         0.0000 
     53 H53         1.0557   51.3093   29.6884 H         1 UNK         0.0000 
     54 H54         1.0517   55.5912   30.0023 H         1 UNK         0.0000 
     55 H55         2.2450   55.7506   27.8563 H         1 UNK         0.0000 
     56 O56         5.9788   54.6136   20.0341 O.co2     1 UNK         0.0000 
@<TRIPOS>BOND
     1    1    2 1    
     2    1   34 1    
     3    1   35 1    
     4    1   36 1    
     5    2    3 1    
     6    2    4 1    
     7    2   13 1    
     8    4    5 2    
     9    4    6 am   BACKBONE|DICT|INTERRES
    10    6    7 1    
    11    6   37 1    
    12    7   12 1    
    13    7    8 1    
    14    7   38 1    
    15    8    9 1    
    16    8   39 1    
    17    8   40 1    
    18    9   10 1    
    19    9   41 1    
    20    9   42 1    
    21   10   11 1    
    22   10   43 1    
    23   10   44 1    
    24   11   12 1    
    25   11   45 1    
    26   11   46 1    
    27   12   47 1    
    28   12   48 1    
    29   13   14 1    
    30   14   24 ar   
    31   14   15 ar   
    32   15   16 ar   
    33   16   21 ar   
    34   16   17 ar   
    35   17   18 ar   
    36   17   49 1    
    37   18   19 ar   
    38   18   32 1    
    39   19   20 ar   
    40   19   50 1    
    41   20   21 ar   
    42   20   51 1    
    43   21   22 ar   
    44   22   23 2    
    45   22   24 ar   
    46   24   25 1    
    47   25   30 ar   
    48   25   26 ar   
    49   26   27 ar   
    50   26   52 1    
    51   27   28 ar   
    52   27   53 1    
    53   28   29 ar   
    54   28   31 1    
    55   29   30 ar   
    56   29   54 1    
    57   30   55 1    
    58   32   33 2    
    59   32   56 1    
@<TRIPOS>SUBSTRUCTURE
     1 UNK         1 GROUP             0       ****    0 ROOT    
