@<TRIPOS>MOLECULE
ZINC33630212_191
57   59    1
SMALL
USER_CHARGES


@<TRIPOS>ATOM
      1 C1         -3.0427   53.1966   23.6348 C.3       1 UNK         0.0000 
      2 C2         -2.0931   52.1717   24.2100 C.2       1 UNK         0.0000 
      3 N3         -2.5239   50.9868   24.4173 N.2       1 UNK         0.0000 
      4 N4         -1.5998   50.0238   24.6920 N.pl3     1 UNK         0.0000 
      5 C5         -1.8940   48.8883   25.3223 C.2       1 UNK         0.0000 
      6 N6         -0.8958   48.0969   25.6817 N.pl3     1 UNK         0.0000 
      7 S7         -3.5583   48.4273   25.6670 S.3       1 UNK         0.0000 
      8 C8         -3.4875   47.0768   26.9006 C.3       1 UNK         0.0000 
      9 H9         -2.4681   46.7329   27.0425 H         1 UNK         0.0000 
     10 C10        -4.0957   47.4548   28.2242 C.3       1 UNK         0.0000 
     11 C11        -5.2342   46.4858   28.4225 C.2       1 UNK         0.0000 
     12 O12        -5.9807   46.4969   29.4016 O.2       1 UNK         0.0000 
     13 N13        -5.2413   45.6090   27.3801 N.am      1 UNK         0.0000 
     14 C14        -4.3008   45.8890   26.4363 C.2       1 UNK         0.0000 
     15 O15        -4.0956   45.2967   25.3748 O.2       1 UNK         0.0000 
     16 C16        -6.1124   44.4972   27.3147 C.ar      1 UNK         0.0000 
     17 C17        -5.5950   43.1924   27.2798 C.ar      1 UNK         0.0000 
     18 C18        -6.4557   42.0948   27.2812 C.ar      1 UNK         0.0000 
     19 C19        -7.8363   42.2880   27.3100 C.ar      1 UNK         0.0000 
     20 C20        -8.3607   43.5807   27.3310 C.ar      1 UNK         0.0000 
     21 C21        -7.5036   44.6820   27.3341 C.ar      1 UNK         0.0000 
     22 Cl22      -10.0682   43.8193   27.3639 Cl        1 UNK         0.0000 
     23 C23        -0.7485   52.6507   24.4550 C.2       1 UNK         0.0000 
     24 C24        -0.0582   52.4486   25.6012 C.2       1 UNK         0.0000 
     25 C25         1.3115   52.9099   25.9075 C.ar      1 UNK         0.0000 
     26 C26         1.7691   52.8245   27.2250 C.ar      1 UNK         0.0000 
     27 C27         3.0319   53.2995   27.5687 C.ar      1 UNK         0.0000 
     28 C28         3.8823   53.8711   26.6077 C.ar      1 UNK         0.0000 
     29 C29         3.4040   53.9638   25.2900 C.ar      1 UNK         0.0000 
     30 C30         2.1420   53.4878   24.9418 C.ar      1 UNK         0.0000 
     31 N31         5.1822   54.3405   26.9575 N.pl3     1 UNK         0.0000 
     32 C32         6.1599   54.6149   25.9026 C.3       1 UNK         0.0000 
     33 C33         5.7367   54.0404   28.2805 C.3       1 UNK         0.0000 
     34 H34        -2.8972   54.1773   24.0766 H         1 UNK         0.0000 
     35 H35        -2.8930   53.2820   22.5615 H         1 UNK         0.0000 
     36 H36        -4.0857   52.9210   23.8015 H         1 UNK         0.0000 
     37 H37         0.0606   48.3155   25.4414 H         1 UNK         0.0000 
     38 H38        -1.0393   47.4586   26.4573 H         1 UNK         0.0000 
     39 H39        -3.3910   47.2960   29.0435 H         1 UNK         0.0000 
     40 H40        -4.4394   48.4883   28.2785 H         1 UNK         0.0000 
     41 H41        -4.5251   43.0230   27.2819 H         1 UNK         0.0000 
     42 H42        -6.0557   41.0919   27.2740 H         1 UNK         0.0000 
     43 H43        -8.4996   41.4346   27.3239 H         1 UNK         0.0000 
     44 H44        -7.9230   45.6774   27.3655 H         1 UNK         0.0000 
     45 H45        -0.3279   53.2206   23.6398 H         1 UNK         0.0000 
     46 H46        -0.5373   51.8896   26.3958 H         1 UNK         0.0000 
     47 H47         1.1450   52.3965   27.9976 H         1 UNK         0.0000 
     48 H48         3.3358   53.2041   28.5984 H         1 UNK         0.0000 
     49 H49         4.0018   54.4003   24.5067 H         1 UNK         0.0000 
     50 H50         1.8227   53.5844   23.9149 H         1 UNK         0.0000 
     51 H51         6.3713   53.7042   25.3421 H         1 UNK         0.0000 
     52 H52         7.1037   54.9825   26.3058 H         1 UNK         0.0000 
     53 H53         5.7881   55.3584   25.1978 H         1 UNK         0.0000 
     54 H54         5.0811   54.3957   29.0763 H         1 UNK         0.0000 
     55 H55         5.8513   52.9620   28.4055 H         1 UNK         0.0000 
     56 H56         6.7158   54.4969   28.4336 H         1 UNK         0.0000 
     57 H57        -0.6325   50.2558   24.5131 H         1 UNK         0.0000 
@<TRIPOS>BOND
     1    1    2 1    
     2    1   34 1    
     3    1   35 1    
     4    1   36 1    
     5    2    3 2    
     6    2   23 1    
     7    3    4 1    
     8    4    5 2    
     9    4   57 1    
    10    5    6 1    
    11    5    7 1    
    12    6   37 1    
    13    6   38 1    
    14    7    8 1    
    15    8    9 1    
    16    8   14 1    
    17    8   10 1    
    18   10   11 1    
    19   10   39 1    
    20   10   40 1    
    21   11   12 2    
    22   11   13 am   BACKBONE|DICT|INTERRES
    23   13   14 am   BACKBONE|DICT|INTERRES
    24   13   16 1    
    25   14   15 2    
    26   16   21 ar   
    27   16   17 ar   
    28   17   18 ar   
    29   17   41 1    
    30   18   19 ar   
    31   18   42 1    
    32   19   20 ar   
    33   19   43 1    
    34   20   21 ar   
    35   20   22 1    
    36   21   44 1    
    37   23   24 2    
    38   23   45 1    
    39   24   25 1    
    40   24   46 1    
    41   25   30 ar   
    42   25   26 ar   
    43   26   27 ar   
    44   26   47 1    
    45   27   28 ar   
    46   27   48 1    
    47   28   29 ar   
    48   28   31 1    
    49   29   30 ar   
    50   29   49 1    
    51   30   50 1    
    52   31   32 1    
    53   31   33 1    
    54   32   51 1    
    55   32   52 1    
    56   32   53 1    
    57   33   54 1    
    58   33   55 1    
    59   33   56 1    
@<TRIPOS>SUBSTRUCTURE
     1 UNK         1 GROUP             0       ****    0 ROOT    
