@<TRIPOS>MOLECULE
ZINC22131233_78
54   57    1
SMALL
USER_CHARGES


@<TRIPOS>ATOM
      1 C1          2.4063   53.4471   29.6431 C.3       1 UNK         0.0000 
      2 C2          3.4325   53.4384   28.4967 C.3       1 UNK         0.0000 
      3 H3          3.8057   52.4142   28.4189 H         1 UNK         0.0000 
      4 C4          4.5945   54.4139   28.7912 C.3       1 UNK         0.0000 
      5 C5          5.7685   54.2375   27.8000 C.3       1 UNK         0.0000 
      6 C6          5.2023   54.2323   26.3857 C.2       1 UNK         0.0000 
      7 C7          3.8414   54.0234   26.1162 C.2       1 UNK         0.0000 
      8 S8          3.5833   54.0963   24.4044 S.3       1 UNK         0.0000 
      9 C9          5.3036   54.3524   24.2072 C.2       1 UNK         0.0000 
     10 N10         5.9782   54.4081   25.3279 N.2       1 UNK         0.0000 
     11 N11         5.9445   54.5467   22.9879 N.am      1 UNK         0.0000 
     12 C12         5.3963   54.4985   21.7501 C.2       1 UNK         0.0000 
     13 O13         4.2446   54.1317   21.5158 O.2       1 UNK         0.0000 
     14 C14         6.3031   54.8982   20.6035 C.ar      1 UNK         0.0000 
     15 C15         7.5070   55.5971   20.8129 C.ar      1 UNK         0.0000 
     16 C16         8.3521   55.8734   19.7400 C.ar      1 UNK         0.0000 
     17 C17         7.9959   55.4753   18.4519 C.ar      1 UNK         0.0000 
     18 C18         6.7784   54.8351   18.2237 C.ar      1 UNK         0.0000 
     19 C19         5.9419   54.5440   19.2951 C.ar      1 UNK         0.0000 
     20 S20         9.1217   55.7808   17.0937 S.o2      1 UNK         0.0000 
     21 O21         8.3994   55.5878   15.8325 O.2       1 UNK         0.0000 
     22 O22         9.8029   57.0488   17.3840 O.2       1 UNK         0.0000 
     23 N23        10.3610   54.5151   17.2159 N.pl3     1 UNK         0.0000 
     24 C24        10.2536   53.2028   16.7199 C.ar      1 UNK         0.0000 
     25 C25         9.0169   52.6422   16.3663 C.ar      1 UNK         0.0000 
     26 C26         8.9386   51.3489   15.8575 C.ar      1 UNK         0.0000 
     27 C27        10.0939   50.5916   15.6933 C.ar      1 UNK         0.0000 
     28 C28        11.3299   51.1365   16.0321 C.ar      1 UNK         0.0000 
     29 C29        11.4298   52.4484   16.5399 C.ar      1 UNK         0.0000 
     30 O30        12.6349   53.0395   16.8905 O.3       1 UNK         0.0000 
     31 C31        13.8399   52.2916   16.7621 C.3       1 UNK         0.0000 
     32 C32         2.7508   53.8276   27.1611 C.3       1 UNK         0.0000 
     33 H33         1.9994   54.4447   29.8154 H         1 UNK         0.0000 
     34 H34         1.5694   52.7805   29.4338 H         1 UNK         0.0000 
     35 H35         2.8586   53.1083   30.5753 H         1 UNK         0.0000 
     36 H36         4.9710   54.2493   29.7977 H         1 UNK         0.0000 
     37 H37         4.2134   55.4327   28.8159 H         1 UNK         0.0000 
     38 H38         6.5063   55.0275   27.9416 H         1 UNK         0.0000 
     39 H39         6.2729   53.2916   27.9987 H         1 UNK         0.0000 
     40 H40         6.9355   54.7257   23.0432 H         1 UNK         0.0000 
     41 H41         7.8232   55.9042   21.8012 H         1 UNK         0.0000 
     42 H42         9.2898   56.3857   19.9156 H         1 UNK         0.0000 
     43 H43         6.4824   54.5476   17.2263 H         1 UNK         0.0000 
     44 H44         5.0177   54.0208   19.0940 H         1 UNK         0.0000 
     45 H45        11.1880   54.7339   17.7506 H         1 UNK         0.0000 
     46 H46         8.0984   53.1940   16.4779 H         1 UNK         0.0000 
     47 H47         7.9785   50.9351   15.5883 H         1 UNK         0.0000 
     48 H48        10.0315   49.5865   15.3018 H         1 UNK         0.0000 
     49 H49        12.2065   50.5231   15.8881 H         1 UNK         0.0000 
     50 H50        14.6795   52.9087   17.0799 H         1 UNK         0.0000 
     51 H51        13.8266   51.4002   17.3924 H         1 UNK         0.0000 
     52 H52        14.0202   51.9971   15.7264 H         1 UNK         0.0000 
     53 H53         2.0394   53.0623   26.8512 H         1 UNK         0.0000 
     54 H54         2.1953   54.7572   27.2820 H         1 UNK         0.0000 
@<TRIPOS>BOND
     1    1    2 1    
     2    1   33 1    
     3    1   34 1    
     4    1   35 1    
     5    2    3 1    
     6    2   32 1    
     7    2    4 1    
     8    4    5 1    
     9    4   36 1    
    10    4   37 1    
    11    5    6 1    
    12    5   38 1    
    13    5   39 1    
    14    6   10 1    
    15    6    7 2    
    16    7    8 1    
    17    7   32 1    
    18    8    9 1    
    19    9   10 2    
    20    9   11 am   BACKBONE|DICT|INTERRES
    21   11   12 am   BACKBONE|DICT|INTERRES
    22   11   40 1    
    23   12   13 2    
    24   12   14 1    
    25   14   19 ar   
    26   14   15 ar   
    27   15   16 ar   
    28   15   41 1    
    29   16   17 ar   
    30   16   42 1    
    31   17   18 ar   
    32   17   20 1    
    33   18   19 ar   
    34   18   43 1    
    35   19   44 1    
    36   20   21 2    
    37   20   22 2    
    38   20   23 1    
    39   23   24 1    
    40   23   45 1    
    41   24   29 ar   
    42   24   25 ar   
    43   25   26 ar   
    44   25   46 1    
    45   26   27 ar   
    46   26   47 1    
    47   27   28 ar   
    48   27   48 1    
    49   28   29 ar   
    50   28   49 1    
    51   29   30 1    
    52   30   31 1    
    53   31   50 1    
    54   31   51 1    
    55   31   52 1    
    56   32   53 1    
    57   32   54 1    
@<TRIPOS>SUBSTRUCTURE
     1 UNK         1 GROUP             0       ****    0 ROOT    
