@<TRIPOS>MOLECULE
ZINC03840753_5122
74   76    1
SMALL
USER_CHARGES


@<TRIPOS>ATOM
      1 C1          0.8923   53.4245   23.8600 C.3       1 UNK         0.0000 
      2 C2          2.2426   52.9461   23.2627 C.3       1 UNK         0.0000 
      3 H3          2.3093   51.8726   23.4416 H         1 UNK         0.0000 
      4 C4          3.4251   53.5955   23.9860 C.2       1 UNK         0.0000 
      5 C5          4.6179   53.9460   23.3590 C.2       1 UNK         0.0000 
      6 S6          5.7618   54.4977   24.5543 S.3       1 UNK         0.0000 
      7 C7          4.5600   54.2040   25.7647 C.2       1 UNK         0.0000 
      8 N8          3.4247   53.7443   25.2991 N.2       1 UNK         0.0000 
      9 N9          4.8825   54.4956   27.0839 N.am      1 UNK         0.0000 
     10 C10         4.2316   54.1411   28.2143 C.2       1 UNK         0.0000 
     11 O11         4.6808   54.5409   29.2841 O.2       1 UNK         0.0000 
     12 C12         2.9589   53.2561   28.1779 C.3       1 UNK         0.0000 
     13 C13         2.2098   52.9179   29.5108 C.3       1 UNK         0.0000 
     14 C14         1.0749   51.9238   29.1770 C.3       1 UNK         0.0000 
     15 C15         1.5690   54.1921   30.1124 C.3       1 UNK         0.0000 
     16 C16         3.1296   52.2407   30.5580 C.3       1 UNK         0.0000 
     17 C17         4.8633   53.9478   21.8714 C.3       1 UNK         0.0000 
     18 C18         3.8040   53.1014   21.0863 C.3       1 UNK         0.0000 
     19 C19         2.3560   53.2041   21.7152 C.3       1 UNK         0.0000 
     20 H20         2.0919   54.2490   21.6835 H         1 UNK         0.0000 
     21 C21         1.3116   52.3479   20.8888 C.3       1 UNK         0.0000 
     22 H22         0.3698   52.3917   21.4244 H         1 UNK         0.0000 
     23 C23         1.7148   50.8428   20.7532 C.3       1 UNK         0.0000 
     24 H24         1.7481   50.4408   21.7671 H         1 UNK         0.0000 
     25 C25         3.1728   50.7596   20.2118 C.3       1 UNK         0.0000 
     26 C26         4.1616   51.5909   21.0682 C.3       1 UNK         0.0000 
     27 C27         0.6788   49.9915   19.9184 C.3       1 UNK         0.0000 
     28 H28         0.6850   50.4163   18.9151 H         1 UNK         0.0000 
     29 C29        -0.7521   50.1066   20.5125 C.3       1 UNK         0.0000 
     30 C30         1.0381   48.4889   19.7380 C.2       1 UNK         0.0000 
     31 O31         1.8864   47.9973   20.4816 O.2       1 UNK         0.0000 
     32 N32         0.4043   47.7271   18.7998 N.am      1 UNK         0.0000 
     33 C33        -0.5491   48.2293   17.8041 C.3       1 UNK         0.0000 
     34 C34         0.5538   46.2632   18.7775 C.3       1 UNK         0.0000 
     35 C35        -0.4964   45.5484   19.6489 C.3       1 UNK         0.0000 
     36 C36        -0.2711   44.0972   19.7727 C.1       1 UNK         0.0000 
     37 N37        -0.0957   42.9554   19.8753 N.1       1 UNK         0.0000 
     38 O38         0.9660   52.8965   19.6254 O.3       1 UNK         0.0000 
     39 C39         3.8768   53.6950   19.6439 C.3       1 UNK         0.0000 
     40 H40         0.8436   53.2368   24.9338 H         1 UNK         0.0000 
     41 H41         0.7479   54.4958   23.7077 H         1 UNK         0.0000 
     42 H42         0.0312   52.9128   23.4368 H         1 UNK         0.0000 
     43 H43         5.7533   54.9823   27.2335 H         1 UNK         0.0000 
     44 H44         3.2294   52.3264   27.6761 H         1 UNK         0.0000 
     45 H45         2.2395   53.7598   27.5322 H         1 UNK         0.0000 
     46 H46         0.4647   51.6969   30.0518 H         1 UNK         0.0000 
     47 H47         1.4636   50.9770   28.7999 H         1 UNK         0.0000 
     48 H48         0.4007   52.3196   28.4176 H         1 UNK         0.0000 
     49 H49         2.3036   54.9551   30.3626 H         1 UNK         0.0000 
     50 H50         0.8702   54.6501   29.4105 H         1 UNK         0.0000 
     51 H51         1.0059   53.9669   31.0193 H         1 UNK         0.0000 
     52 H52         3.8686   52.9215   30.9753 H         1 UNK         0.0000 
     53 H53         2.5595   51.8547   31.4048 H         1 UNK         0.0000 
     54 H54         3.6814   51.4092   30.1203 H         1 UNK         0.0000 
     55 H55         4.7636   54.9978   21.5943 H         1 UNK         0.0000 
     56 H56         5.8888   53.6645   21.6249 H         1 UNK         0.0000 
     57 H57         3.5043   49.7285   20.1786 H         1 UNK         0.0000 
     58 H58         3.1978   51.0574   19.1647 H         1 UNK         0.0000 
     59 H59         5.1583   51.4666   20.6453 H         1 UNK         0.0000 
     60 H60         4.2229   51.1950   22.0815 H         1 UNK         0.0000 
     61 H61        -1.4704   49.4442   20.0319 H         1 UNK         0.0000 
     62 H62        -0.7618   49.8674   21.5766 H         1 UNK         0.0000 
     63 H63        -1.1553   51.1119   20.3899 H         1 UNK         0.0000 
     64 H64        -1.5333   47.7890   17.9631 H         1 UNK         0.0000 
     65 H65        -0.6717   49.3110   17.8038 H         1 UNK         0.0000 
     66 H66        -0.2184   47.9478   16.8039 H         1 UNK         0.0000 
     67 H67         0.4859   45.9069   17.7482 H         1 UNK         0.0000 
     68 H68         1.5455   45.9916   19.1341 H         1 UNK         0.0000 
     69 H69        -0.4968   45.9596   20.6593 H         1 UNK         0.0000 
     70 H70        -1.4945   45.6930   19.2374 H         1 UNK         0.0000 
     71 H71         1.1044   53.8615   19.6820 H         1 UNK         0.0000 
     72 H72         3.3101   53.1520   18.8939 H         1 UNK         0.0000 
     73 H73         3.5057   54.7194   19.6138 H         1 UNK         0.0000 
     74 H74         4.9030   53.7148   19.2747 H         1 UNK         0.0000 
@<TRIPOS>BOND
     1    1    2 1    
     2    1   40 1    
     3    1   41 1    
     4    1   42 1    
     5    2    3 1    
     6    2   19 1    
     7    2    4 1    
     8    4    8 1    
     9    4    5 2    
    10    5    6 1    
    11    5   17 1    
    12    6    7 1    
    13    7    8 2    
    14    7    9 am   BACKBONE|DICT|INTERRES
    15    9   10 am   BACKBONE|DICT|INTERRES
    16    9   43 1    
    17   10   11 2    
    18   10   12 1    
    19   12   13 1    
    20   12   44 1    
    21   12   45 1    
    22   13   14 1    
    23   13   15 1    
    24   13   16 1    
    25   14   46 1    
    26   14   47 1    
    27   14   48 1    
    28   15   49 1    
    29   15   50 1    
    30   15   51 1    
    31   16   52 1    
    32   16   53 1    
    33   16   54 1    
    34   17   18 1    
    35   17   55 1    
    36   17   56 1    
    37   18   26 1    
    38   18   19 1    
    39   18   39 1    
    40   19   20 1    
    41   19   21 1    
    42   21   22 1    
    43   21   23 1    
    44   21   38 1    
    45   23   24 1    
    46   23   25 1    
    47   23   27 1    
    48   25   26 1    
    49   25   57 1    
    50   25   58 1    
    51   26   59 1    
    52   26   60 1    
    53   27   28 1    
    54   27   29 1    
    55   27   30 1    
    56   29   61 1    
    57   29   62 1    
    58   29   63 1    
    59   30   31 2    
    60   30   32 am   BACKBONE|DICT|INTERRES
    61   32   33 1    
    62   32   34 1    
    63   33   64 1    
    64   33   65 1    
    65   33   66 1    
    66   34   35 1    
    67   34   67 1    
    68   34   68 1    
    69   35   36 1    
    70   35   69 1    
    71   35   70 1    
    72   36   37 3    
    73   38   71 1    
    74   39   72 1    
    75   39   73 1    
    76   39   74 1    
@<TRIPOS>SUBSTRUCTURE
     1 UNK         1 GROUP             0       ****    0 ROOT    
