@<TRIPOS>MOLECULE
ZINC59461865_3551
60   64    1
SMALL
USER_CHARGES


@<TRIPOS>ATOM
      1 C1          0.1300   52.0510   28.5985 C.3       1 UNK         0.0000 
      2 C2          1.2206   52.6529   27.7288 C.ar      1 UNK         0.0000 
      3 C3          1.0649   52.6721   26.3436 C.ar      1 UNK         0.0000 
      4 C4          2.0666   53.2023   25.5352 C.ar      1 UNK         0.0000 
      5 C5          3.2520   53.6967   26.0989 C.ar      1 UNK         0.0000 
      6 C6          3.3861   53.6944   27.4944 C.ar      1 UNK         0.0000 
      7 C7          2.3775   53.1772   28.3049 C.ar      1 UNK         0.0000 
      8 C8          4.3874   54.1680   25.2286 C.2       1 UNK         0.0000 
      9 C9          5.6133   54.6696   25.6785 C.2       1 UNK         0.0000 
     10 S10         6.6566   55.0140   24.3380 S.3       1 UNK         0.0000 
     11 C11         5.3798   54.4967   23.2716 C.2       1 UNK         0.0000 
     12 N12         4.2989   54.0966   23.9055 N.2       1 UNK         0.0000 
     13 N13         5.5115   54.5216   21.8746 N.pl3     1 UNK         0.0000 
     14 C14         6.4185   55.1544   21.1008 C.ar      1 UNK         0.0000 
     15 C15         6.0203   54.8979   19.7158 C.ar      1 UNK         0.0000 
     16 C16         4.8540   54.1946   19.7594 C.ar      1 UNK         0.0000 
     17 N17         4.5273   54.0077   21.0847 N.pl3     1 UNK         0.0000 
     18 C18         3.9785   53.6156   18.6836 C.ar      1 UNK         0.0000 
     19 C19         2.8229   52.8958   19.0366 C.ar      1 UNK         0.0000 
     20 C20         1.9913   52.3313   18.0735 C.ar      1 UNK         0.0000 
     21 C21         2.3018   52.4769   16.7270 C.ar      1 UNK         0.0000 
     22 C22         3.4331   53.1868   16.3441 C.ar      1 UNK         0.0000 
     23 C23         4.2556   53.7492   17.3157 C.ar      1 UNK         0.0000 
     24 C24         6.9150   55.4374   18.5698 C.3       1 UNK         0.0000 
     25 H25         7.7052   55.9924   19.0808 H         1 UNK         0.0000 
     26 C26         7.8045   54.4188   17.8256 C.ar      1 UNK         0.0000 
     27 C27         9.0401   54.8527   17.3228 C.ar      1 UNK         0.0000 
     28 C28         9.8640   53.9845   16.6123 C.ar      1 UNK         0.0000 
     29 C29         9.4529   52.6743   16.3890 C.ar      1 UNK         0.0000 
     30 C30         8.2318   52.2258   16.8818 C.ar      1 UNK         0.0000 
     31 C31         7.4186   53.0899   17.6116 C.ar      1 UNK         0.0000 
     32 C32         6.1946   56.4898   17.6504 C.3       1 UNK         0.0000 
     33 H33         5.1202   56.3643   17.7799 H         1 UNK         0.0000 
     34 C34         6.3714   56.2616   16.2010 C.1       1 UNK         0.0000 
     35 N35         6.5048   56.0860   15.0651 N.1       1 UNK         0.0000 
     36 C36         6.4097   57.9546   18.0818 C.2       1 UNK         0.0000 
     37 O37         6.7044   58.2508   19.2384 O.2       1 UNK         0.0000 
     38 N38         6.2398   58.8967   17.1572 N.am      1 UNK         0.0000 
     39 O39         7.3863   55.8140   21.4840 O.2       1 UNK         0.0000 
     40 H40        -0.0036   50.9941   28.3595 H         1 UNK         0.0000 
     41 H41         0.3509   52.1373   29.6634 H         1 UNK         0.0000 
     42 H42        -0.8231   52.5458   28.4076 H         1 UNK         0.0000 
     43 H43         0.1698   52.2693   25.8917 H         1 UNK         0.0000 
     44 H44         1.9258   53.1896   24.4644 H         1 UNK         0.0000 
     45 H45         4.2821   54.0663   27.9668 H         1 UNK         0.0000 
     46 H46         2.5070   53.1680   29.3769 H         1 UNK         0.0000 
     47 H47         5.9553   54.8243   26.6904 H         1 UNK         0.0000 
     48 H48         2.5445   52.7671   20.0712 H         1 UNK         0.0000 
     49 H49         1.1136   51.7777   18.3713 H         1 UNK         0.0000 
     50 H50         1.6679   52.0286   15.9763 H         1 UNK         0.0000 
     51 H51         3.6826   53.2894   15.2983 H         1 UNK         0.0000 
     52 H52         5.1308   54.2598   16.9709 H         1 UNK         0.0000 
     53 H53         9.3667   55.8714   17.4766 H         1 UNK         0.0000 
     54 H54        10.8147   54.3275   16.2313 H         1 UNK         0.0000 
     55 H55        10.0884   51.9984   15.8356 H         1 UNK         0.0000 
     56 H56         7.9204   51.2052   16.7193 H         1 UNK         0.0000 
     57 H57         6.5006   52.6936   18.0148 H         1 UNK         0.0000 
     58 H58         5.9710   58.6707   16.2119 H         1 UNK         0.0000 
     59 H59         6.3044   59.8859   17.4207 H         1 UNK         0.0000 
     60 H60         4.2284   53.1352   21.4936 H         1 UNK         0.0000 
@<TRIPOS>BOND
     1    1    2 1    
     2    1   40 1    
     3    1   41 1    
     4    1   42 1    
     5    2    7 ar   
     6    2    3 ar   
     7    3    4 ar   
     8    3   43 1    
     9    4    5 ar   
    10    4   44 1    
    11    5    6 ar   
    12    5    8 1    
    13    6    7 ar   
    14    6   45 1    
    15    7   46 1    
    16    8   12 1    
    17    8    9 2    
    18    9   10 1    
    19    9   47 1    
    20   10   11 1    
    21   11   12 2    
    22   11   13 1    
    23   13   14 ar   
    24   13   17 1    
    25   14   39 2    
    26   14   15 ar   
    27   15   16 ar   
    28   15   24 1    
    29   16   17 ar   
    30   16   18 1    
    31   17   60 1    
    32   18   23 ar   
    33   18   19 ar   
    34   19   20 ar   
    35   19   48 1    
    36   20   21 ar   
    37   20   49 1    
    38   21   22 ar   
    39   21   50 1    
    40   22   23 ar   
    41   22   51 1    
    42   23   52 1    
    43   24   25 1    
    44   24   26 1    
    45   24   32 1    
    46   26   31 ar   
    47   26   27 ar   
    48   27   28 ar   
    49   27   53 1    
    50   28   29 ar   
    51   28   54 1    
    52   29   30 ar   
    53   29   55 1    
    54   30   31 ar   
    55   30   56 1    
    56   31   57 1    
    57   32   33 1    
    58   32   34 1    
    59   32   36 1    
    60   34   35 3    
    61   36   37 2    
    62   36   38 am   BACKBONE|DICT|INTERRES
    63   38   58 1    
    64   38   59 1    
@<TRIPOS>SUBSTRUCTURE
     1 UNK         1 GROUP             0       ****    0 ROOT    
