ZINC40003429_993
                    3D
 Schrodinger Suite 2024-2.
 57 62  0  0  1  0            999 V2000
    1.0775   52.6721   29.8820 C   0  0  0  0  0  0
    1.5079   52.8937   28.4424 C   0  0  0  0  0  0
    0.6700   52.4861   27.4000 C   0  0  0  0  0  0
    1.0224   52.6813   26.0630 C   0  0  0  0  0  0
    2.2473   53.2969   25.7784 C   0  0  0  0  0  0
    3.0993   53.6966   26.8359 C   0  0  0  0  0  0
    2.7338   53.5117   28.1765 C   0  0  0  0  0  0
    4.5649   54.3701   26.1470 S   0  0  0  0  0  0
    3.9328   54.0092   24.5310 C   0  0  0  0  0  0
    2.7161   53.5362   24.5273 N   0  0  0  0  0  0
    4.6855   54.2040   23.3515 N   0  0  0  0  0  0
    4.1008   54.2001   21.9943 C   0  0  1  0  0  0
    3.3464   54.9890   21.9831 H   0  0  0  0  0  0
    5.2471   54.6352   21.1045 C   0  0  0  0  0  0
    6.2915   54.8660   21.9170 C   0  0  0  0  0  0
    6.0156   54.5011   23.2986 C   0  0  0  0  0  0
    6.8067   54.5024   24.2481 O   0  0  0  0  0  0
    7.4738   55.2967   21.6372 O   0  5  0  0  0  0
    5.1145   54.7708   19.6354 C   0  0  0  0  0  0
    4.0748   54.4899   19.0473 O   0  0  0  0  0  0
    6.2732   55.1905   18.8596 C   0  0  0  0  0  0
    6.8927   56.4371   18.7476 C   0  0  0  0  0  0
    7.9823   56.3926   18.0105 N   0  0  0  0  0  0
    8.0739   55.1099   17.5755 C   0  0  0  0  0  0
    6.9931   54.3402   18.0490 N   0  0  0  0  0  0
    6.8372   53.0231   17.6930 C   0  0  0  0  0  0
    7.7897   52.4186   16.8802 C   0  0  0  0  0  0
    8.8847   53.1479   16.4284 C   0  0  0  0  0  0
    9.0503   54.4989   16.7567 C   0  0  0  0  0  0
   10.2633   55.2467   16.2298 C   0  0  0  0  0  0
    6.4585   57.7561   19.3320 C   0  0  0  0  0  0
    3.3373   52.9250   21.5799 C   0  0  0  0  0  0
    1.9447   52.8968   21.7249 C   0  0  0  0  0  0
    1.2027   51.8017   21.2961 C   0  0  0  0  0  0
    1.8487   50.7423   20.6718 C   0  0  0  0  0  0
    3.2256   50.7748   20.4815 C   0  0  0  0  0  0
    3.9766   51.8525   20.9477 C   0  0  0  0  0  0
    1.1312   49.6835   20.2325 F   0  0  0  0  0  0
   -0.0070   52.5839   29.9678 H   0  0  0  0  0  0
    1.5368   51.7696   30.2850 H   0  0  0  0  0  0
    1.3716   53.5164   30.5072 H   0  0  0  0  0  0
   -0.2705   52.0041   27.6278 H   0  0  0  0  0  0
    0.3691   52.3570   25.2675 H   0  0  0  0  0  0
    3.3908   53.8195   28.9762 H   0  0  0  0  0  0
    5.9731   52.4978   18.0795 H   0  0  0  0  0  0
    7.6809   51.3773   16.6093 H   0  0  0  0  0  0
    9.6158   52.6505   15.8066 H   0  0  0  0  0  0
    9.9449   56.0962   15.6257 H   0  0  0  0  0  0
   10.9133   54.6164   15.6229 H   0  0  0  0  0  0
   10.8473   55.6380   17.0636 H   0  0  0  0  0  0
    6.3044   57.6789   20.4069 H   0  0  0  0  0  0
    7.1747   58.5605   19.1581 H   0  0  0  0  0  0
    5.5155   58.0677   18.8811 H   0  0  0  0  0  0
    1.4314   53.7362   22.1694 H   0  0  0  0  0  0
    0.1316   51.7833   21.4246 H   0  0  0  0  0  0
    3.6986   49.9726   19.9407 H   0  0  0  0  0  0
    5.0424   51.8743   20.7748 H   0  0  0  0  0  0
  1  2  1  0  0  0
  1 39  1  0  0  0
  1 40  1  0  0  0
  1 41  1  0  0  0
  2  7  2  0  0  0
  2  3  1  0  0  0
  3  4  2  0  0  0
  3 42  1  0  0  0
  4  5  1  0  0  0
  4 43  1  0  0  0
  5 10  1  0  0  0
  5  6  2  0  0  0
  6  7  1  0  0  0
  6  8  1  0  0  0
  7 44  1  0  0  0
  8  9  1  0  0  0
  9 10  2  0  0  0
  9 11  1  0  0  0
 11 16  1  0  0  0
 11 12  1  0  0  0
 12 13  1  0  0  0
 12 14  1  0  0  0
 12 32  1  0  0  0
 14 15  2  0  0  0
 14 19  1  0  0  0
 15 16  1  0  0  0
 15 18  1  0  0  0
 16 17  2  0  0  0
 19 20  2  0  0  0
 19 21  1  0  0  0
 21 25  1  0  0  0
 21 22  2  0  0  0
 22 23  1  0  0  0
 22 31  1  0  0  0
 23 24  2  0  0  0
 24 29  1  0  0  0
 24 25  1  0  0  0
 25 26  1  0  0  0
 26 27  2  0  0  0
 26 45  1  0  0  0
 27 28  1  0  0  0
 27 46  1  0  0  0
 28 29  2  0  0  0
 28 47  1  0  0  0
 29 30  1  0  0  0
 30 48  1  0  0  0
 30 49  1  0  0  0
 30 50  1  0  0  0
 31 51  1  0  0  0
 31 52  1  0  0  0
 31 53  1  0  0  0
 32 37  2  0  0  0
 32 33  1  0  0  0
 33 34  2  0  0  0
 33 54  1  0  0  0
 34 35  1  0  0  0
 34 55  1  0  0  0
 35 36  2  0  0  0
 35 38  1  0  0  0
 36 37  1  0  0  0
 36 56  1  0  0  0
 37 57  1  0  0  0
M  CHG  1  18  -1
M  END
> <i_i_glide_confnum>
17

> <i_i_glide_lignum>
994

> <i_i_glide_posenum>
162

> <i_i_glide_rotatable_bonds>
4

> <i_m_Source_File_Index>
1974

> <b_m_subgroup_collapsed>
0

> <r_i_docking_score>
-4.55021

> <r_i_glide_ecoul>
2.57965

> <r_i_glide_eff_state_penalty>
0

> <r_i_glide_einternal>
10.6783

> <r_i_glide_emodel>
-51.3516

> <r_i_glide_energy>
-43.5992

> <r_i_glide_erotb>
0.313263

> <r_i_glide_esite>
-0.00870731

> <r_i_glide_evdw>
-46.1789

> <r_i_glide_gscore>
-4.55021

> <r_i_glide_hbond>
0

> <r_i_glide_ligand_efficiency>
-0.122979

> <r_i_glide_ligand_efficiency_ln>
-0.986834

> <r_i_glide_ligand_efficiency_sa>
-0.409792

> <r_i_glide_lipo>
-2.16746

> <r_i_glide_metal>
0

> <r_i_glide_rewards>
-0.765313

> <s_i_glide_gridfile>
wee1_glide-grid

> <s_m_Source_File>
wee1_decoys_glide_SP.sdf

> <s_m_Source_Path>
/Users/zhangxujun/Desktop

> <s_m_entry_id>
2249

> <s_m_entry_name>
wee1_decoys_glide_SP.1974

> <s_m_subgroup_title>
wee1_decoys_glide_SP

> <s_m_subgroupid>
wee1_decoys_glide_SP


$$$$
