ZINC67317125_1463
                    3D
 Schrodinger Suite 2024-2.
 42 44  0  0  1  0            999 V2000
    6.3898   54.4157   28.3057 C   0  0  0  0  0  0
    5.4381   53.4252   27.6163 C   0  0  1  0  0  0
    5.9891   52.4981   27.4288 H   0  0  0  0  0  0
    4.2997   53.1307   28.5911 C   0  0  0  0  0  0
    4.2293   52.0511   29.3355 N   0  0  0  0  0  0
    3.1070   52.0952   30.1439 N   0  0  0  0  0  0
    2.5221   53.2848   29.9067 C   0  0  0  0  0  0
    3.2676   53.9806   28.9364 N   0  0  0  0  0  0
    2.9302   55.2446   28.5444 C   0  0  0  0  0  0
    1.8556   55.8867   29.1511 C   0  0  0  0  0  0
    1.1027   55.2145   30.1088 C   0  0  0  0  0  0
    1.3962   53.8998   30.4798 C   0  0  0  0  0  0
    4.9336   53.8903   26.3050 N   0  0  0  0  0  0
    5.6438   54.4957   25.3277 C   0  0  0  0  0  0
    6.5457   55.3057   25.5560 O   0  0  0  0  0  0
    5.2568   54.0987   24.0920 N   0  0  0  0  0  0
    5.7639   54.4955   22.8290 C   0  0  0  0  0  0
    6.9014   55.3010   22.6481 C   0  0  0  0  0  0
    7.3105   55.6919   21.3750 C   0  0  0  0  0  0
    6.6049   55.2640   20.2556 C   0  0  0  0  0  0
    5.4944   54.4316   20.4129 C   0  0  0  0  0  0
    5.0679   54.0592   21.6949 C   0  0  0  0  0  0
    4.6711   53.7968   18.9532 S   0  0  0  0  0  0
    5.7354   53.3417   18.0498 O   0  0  0  0  0  0
    3.6279   52.8732   19.4145 O   0  0  0  0  0  0
    3.8382   55.3138   18.1851 C   0  0  0  0  0  0
    4.7672   56.2326   17.9250 F   0  0  0  0  0  0
    3.2323   54.9365   17.0602 F   0  0  0  0  0  0
    6.7040   54.0633   29.2817 H   0  0  0  0  0  0
    7.3130   54.5679   27.7490 H   0  0  0  0  0  0
    5.9101   55.3834   28.4468 H   0  0  0  0  0  0
    3.5614   55.6912   27.7990 H   0  0  0  0  0  0
    1.5985   56.9003   28.8815 H   0  0  0  0  0  0
    0.2729   55.7224   30.5754 H   0  0  0  0  0  0
    0.8105   53.3840   31.2279 H   0  0  0  0  0  0
    4.0397   53.5009   26.0486 H   0  0  0  0  0  0
    4.4853   53.4483   24.0491 H   0  0  0  0  0  0
    7.5038   55.6464   23.4727 H   0  0  0  0  0  0
    8.2025   56.2901   21.2601 H   0  0  0  0  0  0
    6.9496   55.5427   19.2692 H   0  0  0  0  0  0
    4.2026   53.4222   21.8047 H   0  0  0  0  0  0
    3.1049   55.7123   18.8790 H   0  0  0  0  0  0
  1  2  1  0  0  0
  1 29  1  0  0  0
  1 30  1  0  0  0
  1 31  1  0  0  0
  2  3  1  0  0  0
  2  4  1  0  0  0
  2 13  1  0  0  0
  4  8  1  0  0  0
  4  5  2  0  0  0
  5  6  1  0  0  0
  6  7  2  0  0  0
  7 12  1  0  0  0
  7  8  1  0  0  0
  8  9  1  0  0  0
  9 10  2  0  0  0
  9 32  1  0  0  0
 10 11  1  0  0  0
 10 33  1  0  0  0
 11 12  2  0  0  0
 11 34  1  0  0  0
 12 35  1  0  0  0
 13 14  1  0  0  0
 13 36  1  0  0  0
 14 15  2  0  0  0
 14 16  1  0  0  0
 16 17  1  0  0  0
 16 37  1  0  0  0
 17 22  2  0  0  0
 17 18  1  0  0  0
 18 19  2  0  0  0
 18 38  1  0  0  0
 19 20  1  0  0  0
 19 39  1  0  0  0
 20 21  2  0  0  0
 20 40  1  0  0  0
 21 22  1  0  0  0
 21 23  1  0  0  0
 22 41  1  0  0  0
 23 24  2  0  0  0
 23 25  2  0  0  0
 23 26  1  0  0  0
 26 27  1  0  0  0
 26 28  1  0  0  0
 26 42  1  0  0  0
M  END
> <i_i_glide_confnum>
3

> <i_i_glide_lignum>
1464

> <i_i_glide_posenum>
264

> <i_i_glide_rotatable_bonds>
7

> <i_m_Source_File_Index>
6068

> <b_m_subgroup_collapsed>
0

> <r_i_docking_score>
-6.05448

> <r_i_glide_ecoul>
-4.46176

> <r_i_glide_eff_state_penalty>
0

> <r_i_glide_einternal>
5.68529

> <r_i_glide_emodel>
-60.4539

> <r_i_glide_energy>
-45.5157

> <r_i_glide_erotb>
0.625422

> <r_i_glide_esite>
-0.132603

> <r_i_glide_evdw>
-41.0539

> <r_i_glide_gscore>
-6.05448

> <r_i_glide_hbond>
-0.170757

> <r_i_glide_ligand_efficiency>
-0.22424

> <r_i_glide_ligand_efficiency_ln>
-1.40938

> <r_i_glide_ligand_efficiency_sa>
-0.67272

> <r_i_glide_lipo>
-2.14159

> <r_i_glide_metal>
0

> <r_i_glide_rewards>
-1.51299

> <s_i_glide_gridfile>
wee1_glide-grid

> <s_m_Source_File>
wee1_decoys_glide_SP.sdf

> <s_m_Source_Path>
/Users/zhangxujun/Desktop

> <s_m_entry_id>
6343

> <s_m_entry_name>
wee1_decoys_glide_SP.6068

> <s_m_subgroup_title>
wee1_decoys_glide_SP

> <s_m_subgroupid>
wee1_decoys_glide_SP


$$$$
