@<TRIPOS>MOLECULE
ZINC66890907_1358
58   60    1
SMALL
USER_CHARGES


@<TRIPOS>ATOM
      1 C1          6.5412   54.6459   27.3474 C.3       1 UNK         0.0000 
      2 C2          5.8384   54.4966   26.0115 C.ar      1 UNK         0.0000 
      3 C3          6.5804   54.4131   24.8330 C.ar      1 UNK         0.0000 
      4 C4          5.9388   54.2094   23.6133 C.ar      1 UNK         0.0000 
      5 C5          4.5426   54.0951   23.5612 C.ar      1 UNK         0.0000 
      6 C6          3.7866   54.2083   24.7413 C.ar      1 UNK         0.0000 
      7 C7          4.4459   54.4023   25.9602 C.ar      1 UNK         0.0000 
      8 C8          2.2686   54.0869   24.7328 C.3       1 UNK         0.0000 
      9 N9          3.8834   53.9039   22.3358 N.am      1 UNK         0.0000 
     10 C10         4.1987   53.0096   21.3765 C.2       1 UNK         0.0000 
     11 O11         5.1056   52.1847   21.4697 O.2       1 UNK         0.0000 
     12 C12         3.3173   53.0762   20.1096 C.3       1 UNK         0.0000 
     13 H13         2.3069   53.2967   20.4492 H         1 UNK         0.0000 
     14 C14         3.9044   54.1688   19.1994 C.3       1 UNK         0.0000 
     15 N15         3.1000   51.6913   19.4234 N.4       1 UNK         0.0000 
     16 C16         2.6210   50.5913   20.4062 C.3       1 UNK         0.0000 
     17 C17         2.5100   49.2708   19.6390 C.3       1 UNK         0.0000 
     18 C18         1.5663   49.3420   18.4243 C.3       1 UNK         0.0000 
     19 C19         1.8016   50.5936   17.5504 C.3       1 UNK         0.0000 
     20 C20         2.0091   51.8891   18.3342 C.3       1 UNK         0.0000 
     21 N21         1.5045   48.1042   17.6535 N.am      1 UNK         0.0000 
     22 C22         0.9236   46.9540   18.0397 C.2       1 UNK         0.0000 
     23 O23         0.3708   46.7966   19.1305 O.2       1 UNK         0.0000 
     24 C24         0.9869   45.8892   17.0660 C.2       1 UNK         0.0000 
     25 C25         0.2399   44.7000   17.0965 C.2       1 UNK         0.0000 
     26 C26         0.6392   43.9340   16.0181 C.2       1 UNK         0.0000 
     27 O27         1.6261   44.5706   15.3414 O.3       1 UNK         0.0000 
     28 C28         1.8581   45.7501   15.9786 C.2       1 UNK         0.0000 
     29 C29         2.9525   46.6062   15.3916 C.3       1 UNK         0.0000 
     30 H30         6.7035   55.6967   27.5812 H         1 UNK         0.0000 
     31 H31         7.5044   54.1360   27.3409 H         1 UNK         0.0000 
     32 H32         5.9589   54.1949   28.1514 H         1 UNK         0.0000 
     33 H33         7.6554   54.4971   24.8545 H         1 UNK         0.0000 
     34 H34         6.5309   54.1433   22.7117 H         1 UNK         0.0000 
     35 H35         3.8770   54.4652   26.8754 H         1 UNK         0.0000 
     36 H36         1.9751   53.1459   24.2679 H         1 UNK         0.0000 
     37 H37         1.8457   54.0962   25.7375 H         1 UNK         0.0000 
     38 H38         1.8238   54.8948   24.1542 H         1 UNK         0.0000 
     39 H39         3.0354   54.4374   22.2131 H         1 UNK         0.0000 
     40 H40         4.1847   55.0664   19.7539 H         1 UNK         0.0000 
     41 H41         4.7932   53.7960   18.6833 H         1 UNK         0.0000 
     42 H42         3.1746   54.4863   18.4546 H         1 UNK         0.0000 
     43 H43         3.3628   50.4630   21.1931 H         1 UNK         0.0000 
     44 H44         1.6741   50.9105   20.8470 H         1 UNK         0.0000 
     45 H45         3.5043   49.0037   19.2800 H         1 UNK         0.0000 
     46 H46         2.1973   48.4794   20.3213 H         1 UNK         0.0000 
     47 H47         0.5716   49.4910   18.8564 H         1 UNK         0.0000 
     48 H48         0.9728   50.7252   16.8532 H         1 UNK         0.0000 
     49 H49         2.7018   50.4968   16.9504 H         1 UNK         0.0000 
     50 H50         1.0939   52.2326   18.8202 H         1 UNK         0.0000 
     51 H51         2.3636   52.6482   17.6372 H         1 UNK         0.0000 
     52 H52         1.9278   48.1460   16.7369 H         1 UNK         0.0000 
     53 H53        -0.5180   44.4403   17.8207 H         1 UNK         0.0000 
     54 H54         0.3437   42.9668   15.6358 H         1 UNK         0.0000 
     55 H55         3.6668   46.8962   16.1588 H         1 UNK         0.0000 
     56 H56         3.5039   46.0956   14.6085 H         1 UNK         0.0000 
     57 H57         2.5579   47.5220   14.9523 H         1 UNK         0.0000 
     58 H58         3.9778   51.3814   19.0033 H         1 UNK         0.0000 
@<TRIPOS>BOND
     1    1    2 1    
     2    1   30 1    
     3    1   31 1    
     4    1   32 1    
     5    2    7 ar   
     6    2    3 ar   
     7    3    4 ar   
     8    3   33 1    
     9    4    5 ar   
    10    4   34 1    
    11    5    6 ar   
    12    5    9 1    
    13    6    7 ar   
    14    6    8 1    
    15    7   35 1    
    16    8   36 1    
    17    8   37 1    
    18    8   38 1    
    19    9   10 am   BACKBONE|DICT|INTERRES
    20    9   39 1    
    21   10   11 2    
    22   10   12 1    
    23   12   13 1    
    24   12   14 1    
    25   12   15 1    
    26   14   40 1    
    27   14   41 1    
    28   14   42 1    
    29   15   20 1    
    30   15   16 1    
    31   15   58 1    
    32   16   17 1    
    33   16   43 1    
    34   16   44 1    
    35   17   18 1    
    36   17   45 1    
    37   17   46 1    
    38   18   19 1    
    39   18   21 1    
    40   18   47 1    
    41   19   20 1    
    42   19   48 1    
    43   19   49 1    
    44   20   50 1    
    45   20   51 1    
    46   21   22 am   BACKBONE|DICT|INTERRES
    47   21   52 1    
    48   22   23 2    
    49   22   24 1    
    50   24   28 2    
    51   24   25 1    
    52   25   26 2    
    53   25   53 1    
    54   26   27 1    
    55   26   54 1    
    56   27   28 1    
    57   28   29 1    
    58   29   55 1    
    59   29   56 1    
    60   29   57 1    
@<TRIPOS>SUBSTRUCTURE
     1 UNK         1 GROUP             0       ****    0 ROOT    
