@<TRIPOS>MOLECULE
ZINC21114060_4027
71   75    1
SMALL
USER_CHARGES


@<TRIPOS>ATOM
      1 C1          5.5655   60.0890    9.5963 C.3       1 UNK         0.0000 
      2 C2          4.9832   60.6205   10.8924 C.ar      1 UNK         0.0000 
      3 C3          4.3312   61.8559   10.9165 C.ar      1 UNK         0.0000 
      4 C4          3.8271   62.3629   12.1164 C.ar      1 UNK         0.0000 
      5 C5          3.9621   61.6200   13.2926 C.ar      1 UNK         0.0000 
      6 C6          4.5979   60.3745   13.2796 C.ar      1 UNK         0.0000 
      7 C7          5.1221   59.8861   12.0719 C.ar      1 UNK         0.0000 
      8 N8          4.6976   59.7085   14.5139 N.am      1 UNK         0.0000 
      9 C9          4.8997   58.3933   14.7508 C.2       1 UNK         0.0000 
     10 O10         4.9872   57.5348   13.8655 O.2       1 UNK         0.0000 
     11 C11         4.9784   57.9621   16.2318 C.3       1 UNK         0.0000 
     12 C12         3.7377   57.0584   16.5364 C.3       1 UNK         0.0000 
     13 C13         3.8805   56.3567   17.8991 C.3       1 UNK         0.0000 
     14 N14         5.1549   55.6278   17.9280 N.pl3     1 UNK         0.0000 
     15 C15         6.3568   56.4791   17.8404 C.3       1 UNK         0.0000 
     16 C16         6.3364   57.2149   16.4797 C.3       1 UNK         0.0000 
     17 S17         5.2222   53.9632   18.5138 S.o2      1 UNK         0.0000 
     18 O18         6.5990   53.4793   18.3601 O.2       1 UNK         0.0000 
     19 O19         4.0826   53.2547   17.9222 O.2       1 UNK         0.0000 
     20 C20         4.9126   54.0545   20.2767 C.ar      1 UNK         0.0000 
     21 C21         5.9046   54.5020   21.1307 C.ar      1 UNK         0.0000 
     22 C22         5.7085   54.4966   22.5058 C.ar      1 UNK         0.0000 
     23 C23         4.4803   54.0968   23.0802 C.ar      1 UNK         0.0000 
     24 C24         3.4665   53.6507   22.1936 C.ar      1 UNK         0.0000 
     25 C25         3.7003   53.6357   20.8130 C.ar      1 UNK         0.0000 
     26 C26         2.1240   53.1638   22.7199 C.3       1 UNK         0.0000 
     27 C27         1.8200   53.8263   24.0635 C.3       1 UNK         0.0000 
     28 C28         2.9635   53.5648   25.0566 C.3       1 UNK         0.0000 
     29 N29         4.2337   54.1003   24.5052 N.am      1 UNK         0.0000 
     30 C30         5.1556   54.4965   25.4403 C.2       1 UNK         0.0000 
     31 O31         5.9533   55.4185   25.2491 O.2       1 UNK         0.0000 
     32 C32         5.2339   53.7234   26.7874 C.3       1 UNK         0.0000 
     33 C33         6.4136   54.1256   27.7005 C.3       1 UNK         0.0000 
     34 C34         5.4428   53.9495   28.8753 C.3       1 UNK         0.0000 
     35 C35         4.2981   54.2376   27.8964 C.3       1 UNK         0.0000 
     36 C36         3.1151   63.7016   12.1377 C.3       1 UNK         0.0000 
     37 H37         5.7916   60.8962    8.9002 H         1 UNK         0.0000 
     38 H38         6.5043   59.5672    9.7846 H         1 UNK         0.0000 
     39 H39         4.8717   59.3931    9.1249 H         1 UNK         0.0000 
     40 H40         4.2250   62.4254   10.0062 H         1 UNK         0.0000 
     41 H41         3.5708   62.0118   14.2205 H         1 UNK         0.0000 
     42 H42         5.6496   58.9470   12.0372 H         1 UNK         0.0000 
     43 H43         4.5484   60.3033   15.3294 H         1 UNK         0.0000 
     44 H44         4.9380   58.8513   16.8653 H         1 UNK         0.0000 
     45 H45         3.6501   56.2390   15.8164 H         1 UNK         0.0000 
     46 H46         2.8183   57.6458   16.5715 H         1 UNK         0.0000 
     47 H47         3.0563   55.6688   18.0941 H         1 UNK         0.0000 
     48 H48         3.9036   57.0877   18.7032 H         1 UNK         0.0000 
     49 H49         6.3439   57.1948   18.6647 H         1 UNK         0.0000 
     50 H50         7.2520   55.8671   17.9538 H         1 UNK         0.0000 
     51 H51         7.1747   57.9141   16.4718 H         1 UNK         0.0000 
     52 H52         6.4911   56.4197   15.7434 H         1 UNK         0.0000 
     53 H53         6.8540   54.8313   20.7311 H         1 UNK         0.0000 
     54 H54         6.5513   54.8136   23.0971 H         1 UNK         0.0000 
     55 H55         2.9191   53.2895   20.1552 H         1 UNK         0.0000 
     56 H56         2.1613   52.0797   22.8381 H         1 UNK         0.0000 
     57 H57         1.3255   53.3762   22.0077 H         1 UNK         0.0000 
     58 H58         0.8878   53.4248   24.4639 H         1 UNK         0.0000 
     59 H59         1.6592   54.8971   23.9421 H         1 UNK         0.0000 
     60 H60         3.0782   52.4934   25.2131 H         1 UNK         0.0000 
     61 H61         2.6850   54.0229   26.0034 H         1 UNK         0.0000 
     62 H62         5.1828   52.6464   26.6306 H         1 UNK         0.0000 
     63 H63         6.7512   55.1603   27.6170 H         1 UNK         0.0000 
     64 H64         7.2766   53.4578   27.6887 H         1 UNK         0.0000 
     65 H65         5.5478   54.6779   29.6818 H         1 UNK         0.0000 
     66 H66         5.4245   52.9319   29.2789 H         1 UNK         0.0000 
     67 H67         3.3879   53.6581   28.0647 H         1 UNK         0.0000 
     68 H68         4.0573   55.2969   27.8361 H         1 UNK         0.0000 
     69 H69         2.6572   63.9208   11.1716 H         1 UNK         0.0000 
     70 H70         2.3082   63.7006   12.8711 H         1 UNK         0.0000 
     71 H71         3.8118   64.5015   12.3907 H         1 UNK         0.0000 
@<TRIPOS>BOND
     1    1    2 1    
     2    1   37 1    
     3    1   38 1    
     4    1   39 1    
     5    2    7 ar   
     6    2    3 ar   
     7    3    4 ar   
     8    3   40 1    
     9    4    5 ar   
    10    4   36 1    
    11    5    6 ar   
    12    5   41 1    
    13    6    7 ar   
    14    6    8 1    
    15    7   42 1    
    16    8    9 am   BACKBONE|DICT|INTERRES
    17    8   43 1    
    18    9   10 2    
    19    9   11 1    
    20   11   16 1    
    21   11   12 1    
    22   11   44 1    
    23   12   13 1    
    24   12   45 1    
    25   12   46 1    
    26   13   14 1    
    27   13   47 1    
    28   13   48 1    
    29   14   15 1    
    30   14   17 1    
    31   15   16 1    
    32   15   49 1    
    33   15   50 1    
    34   16   51 1    
    35   16   52 1    
    36   17   18 2    
    37   17   19 2    
    38   17   20 1    
    39   20   25 ar   
    40   20   21 ar   
    41   21   22 ar   
    42   21   53 1    
    43   22   23 ar   
    44   22   54 1    
    45   23   29 1    
    46   23   24 ar   
    47   24   25 ar   
    48   24   26 1    
    49   25   55 1    
    50   26   27 1    
    51   26   56 1    
    52   26   57 1    
    53   27   28 1    
    54   27   58 1    
    55   27   59 1    
    56   28   29 1    
    57   28   60 1    
    58   28   61 1    
    59   29   30 am   BACKBONE|DICT|INTERRES
    60   30   31 2    
    61   30   32 1    
    62   32   35 1    
    63   32   33 1    
    64   32   62 1    
    65   33   34 1    
    66   33   63 1    
    67   33   64 1    
    68   34   35 1    
    69   34   65 1    
    70   34   66 1    
    71   35   67 1    
    72   35   68 1    
    73   36   69 1    
    74   36   70 1    
    75   36   71 1    
@<TRIPOS>SUBSTRUCTURE
     1 UNK         1 GROUP             0       ****    0 ROOT    
