@<TRIPOS>MOLECULE
ZINC02310865_557
55   58    1
SMALL
USER_CHARGES


@<TRIPOS>ATOM
      1 C1         -0.0733   53.2387   31.2818 C.3       1 UNK         0.0000 
      2 C2          0.7235   53.9138   30.1956 C.2       1 UNK         0.0000 
      3 C3          1.1045   55.2211   29.9416 C.2       1 UNK         0.0000 
      4 C4          1.8787   55.1949   28.7808 C.2       1 UNK         0.0000 
      5 C5          1.9572   53.8682   28.3768 C.2       1 UNK         0.0000 
      6 O6          1.2313   53.1019   29.2348 O.3       1 UNK         0.0000 
      7 C7          2.7138   53.1205   27.2864 C.3       1 UNK         0.0000 
      8 H8          2.7033   52.0657   27.5594 H         1 UNK         0.0000 
      9 C9          2.0472   53.2117   25.9169 C.2       1 UNK         0.0000 
     10 C10         2.6842   53.8233   24.8951 C.2       1 UNK         0.0000 
     11 N11         3.9380   54.3458   24.9673 N.2       1 UNK         0.0000 
     12 C12         4.6905   54.1812   25.9908 C.2       1 UNK         0.0000 
     13 C13         4.2069   53.5440   27.2169 C.2       1 UNK         0.0000 
     14 C14         5.0542   53.2963   28.2393 C.2       1 UNK         0.0000 
     15 C15         6.5430   53.6139   28.2544 C.3       1 UNK         0.0000 
     16 C16         6.8241   54.7733   27.2819 C.3       1 UNK         0.0000 
     17 C17         6.1638   54.6135   25.8923 C.3       1 UNK         0.0000 
     18 O18         4.7043   52.6287   29.2822 O.co2     1 UNK         0.0000 
     19 S19         1.9802   54.0968   23.2812 S.3       1 UNK         0.0000 
     20 C20         3.3205   53.6919   22.0968 C.3       1 UNK         0.0000 
     21 C21         3.3178   52.2549   21.5594 C.2       1 UNK         0.0000 
     22 O22         4.3919   51.7171   21.2820 O.2       1 UNK         0.0000 
     23 N23         2.1103   51.6687   21.4254 N.am      1 UNK         0.0000 
     24 C24         1.7822   50.4525   20.8058 C.ar      1 UNK         0.0000 
     25 C25         2.5676   49.8440   19.8191 C.ar      1 UNK         0.0000 
     26 C26         2.1358   48.6688   19.2097 C.ar      1 UNK         0.0000 
     27 C27         0.9108   48.0880   19.5659 C.ar      1 UNK         0.0000 
     28 C28         0.1271   48.7088   20.5498 C.ar      1 UNK         0.0000 
     29 C29         0.5595   49.8826   21.1622 C.ar      1 UNK         0.0000 
     30 C30         0.4675   46.8278   18.8842 C.2       1 UNK         0.0000 
     31 O31         1.1041   46.2677   17.9943 O.2       1 UNK         0.0000 
     32 C32        -0.8400   46.1824   19.3454 C.3       1 UNK         0.0000 
     33 C33         0.7552   52.6360   25.7314 C.1       1 UNK         0.0000 
     34 N34        -0.2824   52.1542   25.5420 N.1       1 UNK         0.0000 
     35 H35        -0.4953   53.9524   31.9886 H         1 UNK         0.0000 
     36 H36         0.5437   52.5513   31.8604 H         1 UNK         0.0000 
     37 H37        -0.8951   52.6521   30.8717 H         1 UNK         0.0000 
     38 H38         0.8548   56.0910   30.5340 H         1 UNK         0.0000 
     39 H39         2.3590   56.0359   28.3056 H         1 UNK         0.0000 
     40 H40         7.1164   52.7244   27.9908 H         1 UNK         0.0000 
     41 H41         6.8873   53.8968   29.2569 H         1 UNK         0.0000 
     42 H42         7.9030   54.8950   27.2039 H         1 UNK         0.0000 
     43 H43         6.4431   55.6983   27.7090 H         1 UNK         0.0000 
     44 H44         6.7048   53.8717   25.3035 H         1 UNK         0.0000 
     45 H45         6.2366   55.5590   25.3516 H         1 UNK         0.0000 
     46 H46         3.1754   54.3292   21.2273 H         1 UNK         0.0000 
     47 H47         4.3029   53.9457   22.4929 H         1 UNK         0.0000 
     48 H48         1.3398   52.1521   21.8589 H         1 UNK         0.0000 
     49 H49         3.5038   50.2752   19.4902 H         1 UNK         0.0000 
     50 H50         2.7636   48.2295   18.4453 H         1 UNK         0.0000 
     51 H51        -0.8252   48.3025   20.8579 H         1 UNK         0.0000 
     52 H52        -0.0636   50.3465   21.9136 H         1 UNK         0.0000 
     53 H53        -1.6718   46.8726   19.2050 H         1 UNK         0.0000 
     54 H54        -1.0438   45.2719   18.7821 H         1 UNK         0.0000 
     55 H55        -0.7834   45.9358   20.4052 H         1 UNK         0.0000 
@<TRIPOS>BOND
     1    1    2 1    
     2    1   35 1    
     3    1   36 1    
     4    1   37 1    
     5    2    6 1    
     6    2    3 2    
     7    3    4 1    
     8    3   38 1    
     9    4    5 2    
    10    4   39 1    
    11    5    6 1    
    12    5    7 1    
    13    7    8 1    
    14    7   13 1    
    15    7    9 1    
    16    9   10 2    
    17    9   33 1    
    18   10   11 1    
    19   10   19 1    
    20   11   12 2    
    21   12   17 1    
    22   12   13 1    
    23   13   14 2    
    24   14   15 1    
    25   14   18 1    
    26   15   16 1    
    27   15   40 1    
    28   15   41 1    
    29   16   17 1    
    30   16   42 1    
    31   16   43 1    
    32   17   44 1    
    33   17   45 1    
    34   19   20 1    
    35   20   21 1    
    36   20   46 1    
    37   20   47 1    
    38   21   22 2    
    39   21   23 am   BACKBONE|DICT|INTERRES
    40   23   24 1    
    41   23   48 1    
    42   24   29 ar   
    43   24   25 ar   
    44   25   26 ar   
    45   25   49 1    
    46   26   27 ar   
    47   26   50 1    
    48   27   28 ar   
    49   27   30 1    
    50   28   29 ar   
    51   28   51 1    
    52   29   52 1    
    53   30   31 2    
    54   30   32 1    
    55   32   53 1    
    56   32   54 1    
    57   32   55 1    
    58   33   34 3    
@<TRIPOS>SUBSTRUCTURE
     1 UNK         1 GROUP             0       ****    0 ROOT    
