ZINC08711966_3547
                    3D
 Schrodinger Suite 2024-2.
 55 58  0  0  1  0            999 V2000
    2.3634   53.7751   30.2032 C   0  0  0  0  0  0
    2.2450   53.6241   28.7079 C   0  0  0  0  0  0
    1.2026   52.8807   28.1609 C   0  0  0  0  0  0
    1.1042   52.7490   26.7816 C   0  0  0  0  0  0
    2.0519   53.3445   25.9363 C   0  0  0  0  0  0
    3.0937   54.0957   26.5053 C   0  0  0  0  0  0
    3.1900   54.2305   27.8843 C   0  0  0  0  0  0
    1.9075   53.1806   24.4146 C   0  0  1  0  0  0
    1.0717   53.8391   24.1684 H   0  0  0  0  0  0
    3.1358   53.6771   23.6006 C   0  0  0  0  0  0
    3.0686   53.4167   22.0813 C   0  0  2  0  0  0
    2.3092   54.0890   21.6823 H   0  0  0  0  0  0
    2.5705   52.0494   21.8979 N   0  0  0  0  0  0
    1.7621   51.3477   22.7624 C   0  0  0  0  0  0
    1.4038   50.1812   22.1057 C   0  0  0  0  0  0
    2.0046   50.2760   20.8331 C   0  0  0  0  0  0
    2.6931   51.3967   20.7388 N   0  0  0  0  0  0
    1.9030   49.3056   19.7537 C   0  0  0  0  0  0
    1.9047   48.0980   19.9905 O   0  0  0  0  0  0
    1.9026   49.7723   18.4808 N   0  0  0  0  0  0
    1.4812   51.0429   18.0539 C   0  0  0  0  0  0
    0.2702   51.5961   18.4872 C   0  0  0  0  0  0
   -0.0929   52.8758   18.0766 C   0  0  0  0  0  0
    0.7450   53.6152   17.2322 C   0  0  0  0  0  0
    1.9462   53.0423   16.7932 C   0  0  0  0  0  0
    2.3051   51.7556   17.1865 C   0  0  0  0  0  0
    0.3940   55.0487   16.8037 C   0  0  1  0  0  0
    1.1573   55.6978   17.2390 H   0  0  0  0  0  0
    0.3802   55.2411   15.2749 C   0  0  0  0  0  0
   -0.8542   55.5211   17.2817 O   0  0  0  0  0  0
    0.4101   48.9226   22.7395 Cl  0  0  0  0  0  0
    1.5039   51.8205   24.0291 N   0  0  0  0  0  0
    4.4065   53.7060   21.3501 C   0  0  0  0  0  0
    4.2788   53.6941   20.0232 F   0  0  0  0  0  0
    4.8993   54.8966   21.6796 F   0  0  0  0  0  0
    5.3288   52.8038   21.6874 F   0  0  0  0  0  0
    1.7673   53.0361   30.7426 H   0  0  0  0  0  0
    3.4065   53.6365   30.4891 H   0  0  0  0  0  0
    2.0463   54.7801   30.4828 H   0  0  0  0  0  0
    0.4686   52.4062   28.7977 H   0  0  0  0  0  0
    0.2828   52.1751   26.3769 H   0  0  0  0  0  0
    3.8434   54.5849   25.9029 H   0  0  0  0  0  0
    3.9958   54.8113   28.3091 H   0  0  0  0  0  0
    4.0514   53.2378   23.9961 H   0  0  0  0  0  0
    3.2685   54.7497   23.7522 H   0  0  0  0  0  0
    2.2722   49.1637   17.7625 H   0  0  0  0  0  0
   -0.3812   51.0418   19.1473 H   0  0  0  0  0  0
   -1.0228   53.2924   18.4314 H   0  0  0  0  0  0
    2.6192   53.5961   16.1554 H   0  0  0  0  0  0
    3.2443   51.3291   16.8572 H   0  0  0  0  0  0
    1.3443   54.9963   14.8292 H   0  0  0  0  0  0
    0.1602   56.2737   15.0028 H   0  0  0  0  0  0
   -0.3716   54.6064   14.8012 H   0  0  0  0  0  0
   -1.0252   56.3708   16.8656 H   0  0  0  0  0  0
    0.6958   51.4798   24.5285 H   0  0  0  0  0  0
  1  2  1  0  0  0
  1 37  1  0  0  0
  1 38  1  0  0  0
  1 39  1  0  0  0
  2  7  2  0  0  0
  2  3  1  0  0  0
  3  4  2  0  0  0
  3 40  1  0  0  0
  4  5  1  0  0  0
  4 41  1  0  0  0
  5  6  2  0  0  0
  5  8  1  0  0  0
  6  7  1  0  0  0
  6 42  1  0  0  0
  7 43  1  0  0  0
  8  9  1  0  0  0
  8 32  1  0  0  0
  8 10  1  0  0  0
 10 11  1  0  0  0
 10 44  1  0  0  0
 10 45  1  0  0  0
 11 12  1  0  0  0
 11 13  1  0  0  0
 11 33  1  0  0  0
 13 17  1  0  0  0
 13 14  1  0  0  0
 14 15  2  0  0  0
 14 32  1  0  0  0
 15 16  1  0  0  0
 15 31  1  0  0  0
 16 17  2  0  0  0
 16 18  1  0  0  0
 18 19  2  0  0  0
 18 20  1  0  0  0
 20 21  1  0  0  0
 20 46  1  0  0  0
 21 26  2  0  0  0
 21 22  1  0  0  0
 22 23  2  0  0  0
 22 47  1  0  0  0
 23 24  1  0  0  0
 23 48  1  0  0  0
 24 25  2  0  0  0
 24 27  1  0  0  0
 25 26  1  0  0  0
 25 49  1  0  0  0
 26 50  1  0  0  0
 27 28  1  0  0  0
 27 29  1  0  0  0
 27 30  1  0  0  0
 29 51  1  0  0  0
 29 52  1  0  0  0
 29 53  1  0  0  0
 30 54  1  0  0  0
 32 55  1  0  0  0
 33 34  1  0  0  0
 33 35  1  0  0  0
 33 36  1  0  0  0
M  END
> <i_i_glide_confnum>
155

> <i_i_glide_lignum>
3548

> <i_i_glide_posenum>
185

> <i_i_glide_rotatable_bonds>
7

> <i_m_Source_File_Index>
5567

> <b_m_subgroup_collapsed>
0

> <r_i_docking_score>
-1.94603

> <r_i_glide_ecoul>
-2.75847

> <r_i_glide_eff_state_penalty>
0

> <r_i_glide_einternal>
14.3248

> <r_i_glide_emodel>
-28.1885

> <r_i_glide_energy>
-37.4284

> <r_i_glide_erotb>
0.441873

> <r_i_glide_esite>
-0.136276

> <r_i_glide_evdw>
-34.6699

> <r_i_glide_gscore>
-1.94603

> <r_i_glide_hbond>
-0.053937

> <r_i_glide_ligand_efficiency>
-0.0589706

> <r_i_glide_ligand_efficiency_ln>
-0.432787

> <r_i_glide_ligand_efficiency_sa>
-0.18915

> <r_i_glide_lipo>
-1.88002

> <r_i_glide_metal>
0

> <r_i_glide_rewards>
1.8296

> <s_i_glide_gridfile>
wee1_glide-grid

> <s_m_Source_File>
wee1_decoys_glide_SP.sdf

> <s_m_Source_Path>
/Users/zhangxujun/Desktop

> <s_m_entry_id>
5842

> <s_m_entry_name>
wee1_decoys_glide_SP.5567

> <s_m_subgroup_title>
wee1_decoys_glide_SP

> <s_m_subgroupid>
wee1_decoys_glide_SP


$$$$
