@<TRIPOS>MOLECULE
ZINC29050898_1319
58   61    1
SMALL
USER_CHARGES


@<TRIPOS>ATOM
      1 C1          6.8676   55.2354   24.5603 C.3       1 UNK         0.0000 
      2 C2          5.8950   54.7972   25.6408 C.ar      1 UNK         0.0000 
      3 C3          6.2460   54.8967   26.9865 C.ar      1 UNK         0.0000 
      4 C4          5.3532   54.4861   27.9699 C.ar      1 UNK         0.0000 
      5 C5          4.1073   53.9728   27.6124 C.ar      1 UNK         0.0000 
      6 C6          3.7185   53.8574   26.2654 C.ar      1 UNK         0.0000 
      7 C7          4.6393   54.2899   25.2921 C.ar      1 UNK         0.0000 
      8 N8          2.4794   53.2967   25.9229 N.pl3     1 UNK         0.0000 
      9 C9          1.5831   52.6856   26.9237 C.3       1 UNK         0.0000 
     10 C10         0.3035   51.9652   26.4224 C.3       1 UNK         0.0000 
     11 N11         0.6078   51.2057   25.1937 N.am      1 UNK         0.0000 
     12 C12         1.3794   51.8916   24.1317 C.3       1 UNK         0.0000 
     13 C13         1.8800   53.2882   24.5796 C.3       1 UNK         0.0000 
     14 C14        -0.0646   50.0681   24.8448 C.2       1 UNK         0.0000 
     15 O15         0.0282   49.5665   23.7213 O.2       1 UNK         0.0000 
     16 C16        -0.9415   49.2969   25.8619 C.3       1 UNK         0.0000 
     17 N17        -2.4090   49.1760   25.3197 N.4       1 UNK         0.0000 
     18 C18        -3.0086   50.6189   25.3572 C.3       1 UNK         0.0000 
     19 C19        -4.5228   50.6759   25.1762 C.ar      1 UNK         0.0000 
     20 C20        -5.1328   51.9143   24.9368 C.ar      1 UNK         0.0000 
     21 C21        -6.5172   52.0354   24.8487 C.ar      1 UNK         0.0000 
     22 C22        -7.3179   50.9093   24.9969 C.ar      1 UNK         0.0000 
     23 C23        -6.7263   49.6700   25.2257 C.ar      1 UNK         0.0000 
     24 C24        -5.3346   49.5340   25.3084 C.ar      1 UNK         0.0000 
     25 C25        -4.7121   48.1640   25.5046 C.3       1 UNK         0.0000 
     26 C26        -3.3062   48.2089   26.1542 C.3       1 UNK         0.0000 
     27 H27        -3.2975   48.5577   27.1906 H         1 UNK         0.0000 
     28 C28        -2.7392   46.7645   26.0816 C.2       1 UNK         0.0000 
     29 O29        -2.4130   46.2386   25.0179 O.2       1 UNK         0.0000 
     30 N30        -2.7022   46.0967   27.2367 N.am      1 UNK         0.0000 
     31 H31         7.5016   56.0587   24.8920 H         1 UNK         0.0000 
     32 H32         7.5041   54.4015   24.2641 H         1 UNK         0.0000 
     33 H33         6.3391   55.5967   23.6780 H         1 UNK         0.0000 
     34 H34         7.2059   55.2917   27.2819 H         1 UNK         0.0000 
     35 H35         5.6296   54.5664   29.0102 H         1 UNK         0.0000 
     36 H36         3.4496   53.6573   28.4085 H         1 UNK         0.0000 
     37 H37         4.4161   54.2117   24.2418 H         1 UNK         0.0000 
     38 H38         2.1873   51.9201   27.4149 H         1 UNK         0.0000 
     39 H39         1.2733   53.4520   27.6353 H         1 UNK         0.0000 
     40 H40        -0.4117   52.7448   26.1604 H         1 UNK         0.0000 
     41 H41        -0.0671   51.3904   27.2676 H         1 UNK         0.0000 
     42 H42         2.2618   51.2881   23.9133 H         1 UNK         0.0000 
     43 H43         0.7972   51.9990   23.2145 H         1 UNK         0.0000 
     44 H44         2.5313   53.6934   23.8102 H         1 UNK         0.0000 
     45 H45         1.0401   53.9824   24.6370 H         1 UNK         0.0000 
     46 H46        -1.0019   49.6967   26.8738 H         1 UNK         0.0000 
     47 H47        -0.5476   48.2847   25.9635 H         1 UNK         0.0000 
     48 H48        -2.5019   51.1957   24.5790 H         1 UNK         0.0000 
     49 H49        -2.7625   51.0393   26.3360 H         1 UNK         0.0000 
     50 H50        -4.5283   52.8031   24.8364 H         1 UNK         0.0000 
     51 H51        -6.9683   52.9999   24.6627 H         1 UNK         0.0000 
     52 H52        -8.3924   50.9947   24.9295 H         1 UNK         0.0000 
     53 H53        -7.3615   48.8011   25.3245 H         1 UNK         0.0000 
     54 H54        -5.3799   47.5401   26.1022 H         1 UNK         0.0000 
     55 H55        -4.6639   47.6972   24.5176 H         1 UNK         0.0000 
     56 H56        -2.4954   45.1092   27.2963 H         1 UNK         0.0000 
     57 H57        -2.6242   46.6553   28.0815 H         1 UNK         0.0000 
     58 H58        -2.3836   48.8476   24.3615 H         1 UNK         0.0000 
@<TRIPOS>BOND
     1    1    2 1    
     2    1   31 1    
     3    1   32 1    
     4    1   33 1    
     5    2    7 ar   
     6    2    3 ar   
     7    3    4 ar   
     8    3   34 1    
     9    4    5 ar   
    10    4   35 1    
    11    5    6 ar   
    12    5   36 1    
    13    6    7 ar   
    14    6    8 1    
    15    7   37 1    
    16    8   13 1    
    17    8    9 1    
    18    9   10 1    
    19    9   38 1    
    20    9   39 1    
    21   10   11 1    
    22   10   40 1    
    23   10   41 1    
    24   11   12 1    
    25   11   14 am   BACKBONE|DICT|INTERRES
    26   12   13 1    
    27   12   42 1    
    28   12   43 1    
    29   13   44 1    
    30   13   45 1    
    31   14   15 2    
    32   14   16 1    
    33   16   17 1    
    34   16   46 1    
    35   16   47 1    
    36   17   26 1    
    37   17   18 1    
    38   17   58 1    
    39   18   19 1    
    40   18   48 1    
    41   18   49 1    
    42   19   24 ar   
    43   19   20 ar   
    44   20   21 ar   
    45   20   50 1    
    46   21   22 ar   
    47   21   51 1    
    48   22   23 ar   
    49   22   52 1    
    50   23   24 ar   
    51   23   53 1    
    52   24   25 1    
    53   25   26 1    
    54   25   54 1    
    55   25   55 1    
    56   26   27 1    
    57   26   28 1    
    58   28   29 2    
    59   28   30 am   BACKBONE|DICT|INTERRES
    60   30   56 1    
    61   30   57 1    
@<TRIPOS>SUBSTRUCTURE
     1 UNK         1 GROUP             0       ****    0 ROOT    
