@<TRIPOS>MOLECULE
ZINC04453458_4705
37   39    1
SMALL
USER_CHARGES


@<TRIPOS>ATOM
      1 C1          4.2008   51.9033   31.2408 C.3       1 UNK         0.0000 
      2 C2          3.8894   52.3257   29.8026 C.3       1 UNK         0.0000 
      3 C3          4.8969   53.3138   29.1714 C.3       1 UNK         0.0000 
      4 C4          4.6787   53.6914   27.7115 C.ar      1 UNK         0.0000 
      5 C5          3.5543   53.5359   26.8585 C.ar      1 UNK         0.0000 
      6 C6          3.9697   54.1175   25.6799 C.ar      1 UNK         0.0000 
      7 N7          5.2464   54.5444   25.8475 N.pl3     1 UNK         0.0000 
      8 H8          5.8137   54.9881   25.1404 H         1 UNK         0.0000 
      9 N9          5.6831   54.2874   27.0832 N.2       1 UNK         0.0000 
     10 O10         3.2800   54.2590   24.5051 O.3       1 UNK         0.0000 
     11 C11         2.0379   53.6982   24.5350 C.2       1 UNK         0.0000 
     12 C12         1.4461   53.0945   25.6010 C.2       1 UNK         0.0000 
     13 C13         2.1269   52.9804   26.9807 C.3       1 UNK         0.0000 
     14 H14         2.2195   51.9115   27.1773 H         1 UNK         0.0000 
     15 C15         1.3207   53.5068   28.1786 C.ar      1 UNK         0.0000 
     16 C16         0.4904   52.6151   28.8767 C.ar      1 UNK         0.0000 
     17 C17        -0.0084   52.9471   30.1360 C.ar      1 UNK         0.0000 
     18 C18         0.3043   54.1795   30.7068 C.ar      1 UNK         0.0000 
     19 C19         1.0696   55.1026   29.9965 C.ar      1 UNK         0.0000 
     20 C20         1.5531   54.7812   28.7286 C.ar      1 UNK         0.0000 
     21 F21         2.3045   55.6962   28.0821 F         1 UNK         0.0000 
     22 C22         0.1583   52.4966   25.4411 C.1       1 UNK         0.0000 
     23 N23        -0.8952   52.0452   25.2867 N.1       1 UNK         0.0000 
     24 N24         1.5057   53.8358   23.2829 N.pl3     1 UNK         0.0000 
     25 H25         3.3968   51.2967   31.6557 H         1 UNK         0.0000 
     26 H26         5.1043   51.3050   31.2817 H         1 UNK         0.0000 
     27 H27         4.3046   52.7674   31.8983 H         1 UNK         0.0000 
     28 H28         2.9285   52.8042   29.8802 H         1 UNK         0.0000 
     29 H29         3.7637   51.4416   29.1793 H         1 UNK         0.0000 
     30 H30         5.8994   52.8974   29.2682 H         1 UNK         0.0000 
     31 H31         4.8930   54.2343   29.7571 H         1 UNK         0.0000 
     32 H32         0.2910   51.6270   28.4853 H         1 UNK         0.0000 
     33 H33        -0.6081   52.2324   30.6831 H         1 UNK         0.0000 
     34 H34        -0.0678   54.4255   31.6903 H         1 UNK         0.0000 
     35 H35         1.2922   56.0681   30.4248 H         1 UNK         0.0000 
     36 H36         0.6007   53.4457   23.0685 H         1 UNK         0.0000 
     37 H37         2.0990   54.0836   22.5038 H         1 UNK         0.0000 
@<TRIPOS>BOND
     1    1    2 1    
     2    1   25 1    
     3    1   26 1    
     4    1   27 1    
     5    2    3 1    
     6    2   28 1    
     7    2   29 1    
     8    3    4 1    
     9    3   30 1    
    10    3   31 1    
    11    4    9 ar   
    12    4    5 ar   
    13    5   13 1    
    14    5    6 ar   
    15    6    7 ar   
    16    6   10 1    
    17    7    8 1    
    18    7    9 ar   
    19   10   11 1    
    20   11   12 2    
    21   11   24 1    
    22   12   13 1    
    23   12   22 1    
    24   13   14 1    
    25   13   15 1    
    26   15   20 ar   
    27   15   16 ar   
    28   16   17 ar   
    29   16   32 1    
    30   17   18 ar   
    31   17   33 1    
    32   18   19 ar   
    33   18   34 1    
    34   19   20 ar   
    35   19   35 1    
    36   20   21 1    
    37   22   23 3    
    38   24   36 1    
    39   24   37 1    
@<TRIPOS>SUBSTRUCTURE
     1 UNK         1 GROUP             0       ****    0 ROOT    
