@<TRIPOS>MOLECULE
ZINC00989001_2286
62   66    1
SMALL
USER_CHARGES


@<TRIPOS>ATOM
      1 C1          5.0264   59.2480   14.4515 C.3       1 UNK         0.0000 
      2 C2          5.2150   58.3930   15.6894 C.ar      1 UNK         0.0000 
      3 C3          6.4738   58.2975   16.2841 C.ar      1 UNK         0.0000 
      4 C4          6.6495   57.5101   17.4181 C.ar      1 UNK         0.0000 
      5 C5          5.5617   56.8149   17.9631 C.ar      1 UNK         0.0000 
      6 C6          4.3044   56.9041   17.3556 C.ar      1 UNK         0.0000 
      7 C7          4.1319   57.6948   16.2240 C.ar      1 UNK         0.0000 
      8 N8          5.7210   56.0458   19.1394 N.pl3     1 UNK         0.0000 
      9 C9          5.0860   54.8919   19.5181 C.ar      1 UNK         0.0000 
     10 C10         5.5051   54.5473   20.7863 C.ar      1 UNK         0.0000 
     11 C11         6.4834   55.5216   21.0681 C.ar      1 UNK         0.0000 
     12 N12         6.5775   56.4213   20.1059 N.2       1 UNK         0.0000 
     13 C13         7.3888   55.6326   22.2683 C.3       1 UNK         0.0000 
     14 C14         4.8962   53.3470   21.5185 C.3       1 UNK         0.0000 
     15 H15         5.6847   52.6346   21.7598 H         1 UNK         0.0000 
     16 C16         3.9554   52.6180   20.5303 C.2       1 UNK         0.0000 
     17 C17         3.6935   53.0873   19.2824 C.2       1 UNK         0.0000 
     18 O18         4.1863   54.2282   18.7237 O.3       1 UNK         0.0000 
     19 N19         2.8921   52.4959   18.3454 N.pl3     1 UNK         0.0000 
     20 C20         3.3262   51.4153   20.9708 C.1       1 UNK         0.0000 
     21 N21         2.7709   50.4722   21.3426 N.1       1 UNK         0.0000 
     22 C22         4.2968   53.7014   22.8873 C.ar      1 UNK         0.0000 
     23 C23         2.9175   53.8579   23.0718 C.ar      1 UNK         0.0000 
     24 C24         2.3979   54.0956   24.3428 C.ar      1 UNK         0.0000 
     25 C25         3.2478   54.2085   25.4440 C.ar      1 UNK         0.0000 
     26 C26         4.6333   54.1229   25.2771 C.ar      1 UNK         0.0000 
     27 C27         5.1408   53.8555   23.9942 C.ar      1 UNK         0.0000 
     28 O28         5.4142   54.3122   26.4016 O.3       1 UNK         0.0000 
     29 C29         6.8241   54.2036   26.2971 C.3       1 UNK         0.0000 
     30 O30         2.7052   54.4535   26.6828 O.3       1 UNK         0.0000 
     31 C31         2.6461   53.3161   27.5417 C.3       1 UNK         0.0000 
     32 C32         1.8110   53.6271   28.7796 C.ar      1 UNK         0.0000 
     33 C33         1.8070   54.9133   29.3336 C.ar      1 UNK         0.0000 
     34 C34         1.0522   55.1789   30.4747 C.ar      1 UNK         0.0000 
     35 C35         0.3051   54.1580   31.0579 C.ar      1 UNK         0.0000 
     36 C36         0.3026   52.8762   30.5138 C.ar      1 UNK         0.0000 
     37 C37         1.0587   52.6086   29.3749 C.ar      1 UNK         0.0000 
     38 H38         4.2643   58.8234   13.7978 H         1 UNK         0.0000 
     39 H39         5.9451   59.3046   13.8676 H         1 UNK         0.0000 
     40 H40         4.7245   60.2574   14.7303 H         1 UNK         0.0000 
     41 H41         7.3130   58.8423   15.8767 H         1 UNK         0.0000 
     42 H42         7.6291   57.4532   17.8726 H         1 UNK         0.0000 
     43 H43         3.4478   56.3876   17.7672 H         1 UNK         0.0000 
     44 H44         3.1549   57.7711   15.7704 H         1 UNK         0.0000 
     45 H45         7.7227   54.6446   22.5789 H         1 UNK         0.0000 
     46 H46         8.2994   56.2020   22.0758 H         1 UNK         0.0000 
     47 H47         6.8898   56.0965   23.1173 H         1 UNK         0.0000 
     48 H48         2.5574   51.5603   18.5217 H         1 UNK         0.0000 
     49 H49         3.0470   52.7224   17.3739 H         1 UNK         0.0000 
     50 H50         2.2389   53.7771   22.2360 H         1 UNK         0.0000 
     51 H51         1.3310   54.1942   24.4780 H         1 UNK         0.0000 
     52 H52         6.1999   53.7257   23.8582 H         1 UNK         0.0000 
     53 H53         7.2776   54.3946   27.2698 H         1 UNK         0.0000 
     54 H54         7.1048   53.1981   25.9910 H         1 UNK         0.0000 
     55 H55         7.2323   54.9247   25.5879 H         1 UNK         0.0000 
     56 H56         2.2133   52.4641   27.0101 H         1 UNK         0.0000 
     57 H57         3.6490   53.0261   27.8656 H         1 UNK         0.0000 
     58 H58         2.3881   55.7054   28.8825 H         1 UNK         0.0000 
     59 H59         1.0531   56.1687   30.9074 H         1 UNK         0.0000 
     60 H60        -0.2723   54.3552   31.9505 H         1 UNK         0.0000 
     61 H61        -0.2825   52.0963   30.9811 H         1 UNK         0.0000 
     62 H62         1.0554   51.6098   28.9601 H         1 UNK         0.0000 
@<TRIPOS>BOND
     1    1    2 1    
     2    1   38 1    
     3    1   39 1    
     4    1   40 1    
     5    2    7 ar   
     6    2    3 ar   
     7    3    4 ar   
     8    3   41 1    
     9    4    5 ar   
    10    4   42 1    
    11    5    6 ar   
    12    5    8 1    
    13    6    7 ar   
    14    6   43 1    
    15    7   44 1    
    16    8   12 ar   
    17    8    9 ar   
    18    9   18 1    
    19    9   10 ar   
    20   10   11 ar   
    21   10   14 1    
    22   11   12 ar   
    23   11   13 1    
    24   13   45 1    
    25   13   46 1    
    26   13   47 1    
    27   14   15 1    
    28   14   16 1    
    29   14   22 1    
    30   16   17 2    
    31   16   20 1    
    32   17   18 1    
    33   17   19 1    
    34   19   48 1    
    35   19   49 1    
    36   20   21 3    
    37   22   27 ar   
    38   22   23 ar   
    39   23   24 ar   
    40   23   50 1    
    41   24   25 ar   
    42   24   51 1    
    43   25   26 ar   
    44   25   30 1    
    45   26   27 ar   
    46   26   28 1    
    47   27   52 1    
    48   28   29 1    
    49   29   53 1    
    50   29   54 1    
    51   29   55 1    
    52   30   31 1    
    53   31   32 1    
    54   31   56 1    
    55   31   57 1    
    56   32   37 ar   
    57   32   33 ar   
    58   33   34 ar   
    59   33   58 1    
    60   34   35 ar   
    61   34   59 1    
    62   35   36 ar   
    63   35   60 1    
    64   36   37 ar   
    65   36   61 1    
    66   37   62 1    
@<TRIPOS>SUBSTRUCTURE
     1 UNK         1 GROUP             0       ****    0 ROOT    
