ZINC09056228_6
                    3D
 Schrodinger Suite 2024-2.
 54 58  0  0  1  0            999 V2000
    4.2289   53.9815   28.4723 C   0  0  0  0  0  0
    3.3907   53.6039   29.5140 C   0  0  0  0  0  0
    2.1128   53.0940   29.2726 C   0  0  0  0  0  0
    1.6789   52.9507   27.9350 C   0  0  0  0  0  0
    2.5410   53.3295   26.8987 C   0  0  0  0  0  0
    3.8146   53.8583   27.1440 C   0  0  0  0  0  0
    4.7318   54.2833   26.0300 C   0  0  0  0  0  0
    5.9787   54.8967   26.1952 C   0  0  0  0  0  0
    6.7037   55.2115   24.6568 S   0  0  0  0  0  0
    5.3066   54.4960   23.9086 C   0  0  0  0  0  0
    4.3992   54.0864   24.7593 N   0  0  0  0  0  0
    5.1498   54.3100   22.5365 N   0  0  0  0  0  0
    5.9041   54.8190   21.5340 C   0  0  0  0  0  0
    6.8049   55.6391   21.7048 O   0  0  0  0  0  0
    5.6595   54.3820   20.0658 C   0  0  0  0  0  0
    4.4787   53.5252   19.7667 N   0  0  0  0  0  0
    4.1293   52.3599   20.3643 C   0  0  0  0  0  0
    4.7038   51.7692   21.2818 O   0  0  0  0  0  0
    2.7759   51.9761   19.7692 C   0  0  0  0  0  0
    2.6876   50.4739   19.3854 C   0  0  0  0  0  0
    1.3840   49.9465   19.9931 C   0  0  0  0  0  0
    1.2041   50.7786   21.2577 C   0  0  0  0  0  0
    1.6633   52.1788   20.8385 C   0  0  0  0  0  0
    2.7424   52.8949   18.6705 N   0  0  0  0  0  0
    3.7276   53.7936   18.6674 C   0  0  0  0  0  0
    3.9881   54.5628   17.7437 O   0  0  0  0  0  0
    0.2723   52.4423   27.6038 C   0  0  0  0  0  0
   -0.3931   51.6988   28.7731 C   0  0  0  0  0  0
   -0.2459   52.4931   30.0752 C   0  0  0  0  0  0
    1.2385   52.6512   30.4487 C   0  0  0  0  0  0
    5.2073   54.3649   28.7203 H   0  0  0  0  0  0
    3.7571   53.6879   30.5242 H   0  0  0  0  0  0
    2.1956   53.2259   25.8813 H   0  0  0  0  0  0
    6.4863   55.1696   27.1084 H   0  0  0  0  0  0
    4.3906   53.7035   22.2654 H   0  0  0  0  0  0
    6.5558   53.9091   19.6672 H   0  0  0  0  0  0
    5.5514   55.3240   19.5255 H   0  0  0  0  0  0
    3.5089   49.8905   19.7971 H   0  0  0  0  0  0
    2.7188   50.3140   18.3062 H   0  0  0  0  0  0
    1.4249   48.8757   20.2009 H   0  0  0  0  0  0
    0.5522   50.1184   19.3070 H   0  0  0  0  0  0
    1.8450   50.3953   22.0565 H   0  0  0  0  0  0
    0.1749   50.7664   21.6238 H   0  0  0  0  0  0
    0.8099   52.6827   20.3773 H   0  0  0  0  0  0
    1.9451   52.8011   21.6924 H   0  0  0  0  0  0
    1.8831   53.0472   18.1656 H   0  0  0  0  0  0
   -0.3502   53.2965   27.3413 H   0  0  0  0  0  0
    0.2942   51.7996   26.7226 H   0  0  0  0  0  0
    0.0640   50.7166   28.8870 H   0  0  0  0  0  0
   -1.4463   51.5152   28.5549 H   0  0  0  0  0  0
   -0.7824   51.9917   30.8817 H   0  0  0  0  0  0
   -0.7054   53.4756   29.9615 H   0  0  0  0  0  0
    1.6194   51.6968   30.8081 H   0  0  0  0  0  0
    1.3320   53.3476   31.2832 H   0  0  0  0  0  0
  1  6  2  0  0  0
  1  2  1  0  0  0
  1 31  1  0  0  0
  2  3  2  0  0  0
  2 32  1  0  0  0
  3 30  1  0  0  0
  3  4  1  0  0  0
  4  5  2  0  0  0
  4 27  1  0  0  0
  5  6  1  0  0  0
  5 33  1  0  0  0
  6  7  1  0  0  0
  7 11  1  0  0  0
  7  8  2  0  0  0
  8  9  1  0  0  0
  8 34  1  0  0  0
  9 10  1  0  0  0
 10 11  2  0  0  0
 10 12  1  0  0  0
 12 13  1  0  0  0
 12 35  1  0  0  0
 13 14  2  0  0  0
 13 15  1  0  0  0
 15 16  1  0  0  0
 15 36  1  0  0  0
 15 37  1  0  0  0
 16 25  1  0  0  0
 16 17  1  0  0  0
 17 18  2  0  0  0
 17 19  1  0  0  0
 19 23  1  0  0  0
 19 20  1  0  0  0
 19 24  1  0  0  0
 20 21  1  0  0  0
 20 38  1  0  0  0
 20 39  1  0  0  0
 21 22  1  0  0  0
 21 40  1  0  0  0
 21 41  1  0  0  0
 22 23  1  0  0  0
 22 42  1  0  0  0
 22 43  1  0  0  0
 23 44  1  0  0  0
 23 45  1  0  0  0
 24 25  1  0  0  0
 24 46  1  0  0  0
 25 26  2  0  0  0
 27 28  1  0  0  0
 27 47  1  0  0  0
 27 48  1  0  0  0
 28 29  1  0  0  0
 28 49  1  0  0  0
 28 50  1  0  0  0
 29 30  1  0  0  0
 29 51  1  0  0  0
 29 52  1  0  0  0
 30 53  1  0  0  0
 30 54  1  0  0  0
M  END
> <i_i_glide_confnum>
56

> <i_i_glide_lignum>
7

> <i_i_glide_posenum>
335

> <i_i_glide_rotatable_bonds>
5

> <i_m_Source_File_Index>
4488

> <b_m_subgroup_collapsed>
0

> <r_i_docking_score>
-5.33431

> <r_i_glide_ecoul>
-1.57907

> <r_i_glide_eff_state_penalty>
0

> <r_i_glide_einternal>
4.00937

> <r_i_glide_emodel>
-60.8965

> <r_i_glide_energy>
-47.8182

> <r_i_glide_erotb>
0.44012

> <r_i_glide_esite>
-0.0797012

> <r_i_glide_evdw>
-46.2391

> <r_i_glide_gscore>
-5.33431

> <r_i_glide_hbond>
0

> <r_i_glide_ligand_efficiency>
-0.17781

> <r_i_glide_ligand_efficiency_ln>
-1.21201

> <r_i_glide_ligand_efficiency_sa>
-0.552498

> <r_i_glide_lipo>
-2.22851

> <r_i_glide_metal>
0

> <r_i_glide_rewards>
-0.917399

> <s_i_glide_gridfile>
wee1_glide-grid

> <s_m_Source_File>
wee1_decoys_glide_SP.sdf

> <s_m_Source_Path>
/Users/zhangxujun/Desktop

> <s_m_entry_id>
4763

> <s_m_entry_name>
wee1_decoys_glide_SP.4488

> <s_m_subgroup_title>
wee1_decoys_glide_SP

> <s_m_subgroupid>
wee1_decoys_glide_SP


$$$$
