ZINC01218278_3922
                    3D
 Schrodinger Suite 2024-2.
 49 51  0  0  1  0            999 V2000
    1.8305   51.8525   28.8141 C   0  0  0  0  0  0
    1.7911   53.4003   28.6951 C   0  0  0  0  0  0
    0.3189   53.8302   28.5017 C   0  0  0  0  0  0
    2.2676   53.9882   30.0519 C   0  0  0  0  0  0
    2.6688   53.9448   27.4982 C   0  0  1  0  0  0
    2.5949   55.0337   27.5444 H   0  0  0  0  0  0
    4.1651   53.5626   27.6194 C   0  0  0  0  0  0
    5.0601   54.3081   26.6188 C   0  0  0  0  0  0
    4.4764   54.2098   25.2048 C   0  0  0  0  0  0
    3.1326   53.8818   24.9916 C   0  0  0  0  0  0
    2.7463   53.7938   23.3005 S   0  0  0  0  0  0
    4.3952   54.0956   22.8533 C   0  0  0  0  0  0
    5.2091   54.2832   23.9887 C   0  0  0  0  0  0
    6.6306   54.4370   23.9442 C   0  0  0  0  0  0
    7.3463   53.6967   23.2817 O   0  0  0  0  0  0
    7.1044   55.4702   24.6338 N   0  0  0  0  0  0
    4.6641   54.0683   21.4834 N   0  0  0  0  0  0
    5.4866   54.8966   20.7914 C   0  0  0  0  0  0
    6.1440   55.8171   21.2819 O   0  0  0  0  0  0
    5.5056   54.6974   19.2957 C   0  0  0  0  0  0
    5.2797   53.4400   18.7128 C   0  0  0  0  0  0
    5.2939   53.2973   17.3270 C   0  0  0  0  0  0
    5.5387   54.4004   16.5159 C   0  0  0  0  0  0
    5.7707   55.6507   17.0792 C   0  0  0  0  0  0
    5.7554   55.7982   18.4622 C   0  0  0  0  0  0
    5.5600   54.1963   14.6248 Br  0  0  0  0  0  0
    2.1385   53.5086   26.0900 C   0  0  0  0  0  0
    1.2180   51.5035   29.6457 H   0  0  0  0  0  0
    2.8381   51.4790   28.9909 H   0  0  0  0  0  0
    1.4503   51.3543   27.9235 H   0  0  0  0  0  0
    0.2673   54.8965   28.2845 H   0  0  0  0  0  0
   -0.1606   53.2989   27.6802 H   0  0  0  0  0  0
   -0.2873   53.6385   29.3888 H   0  0  0  0  0  0
    2.3509   55.0755   30.0108 H   0  0  0  0  0  0
    1.5724   53.7467   30.8586 H   0  0  0  0  0  0
    3.2368   53.5915   30.3535 H   0  0  0  0  0  0
    4.5428   53.8080   28.6111 H   0  0  0  0  0  0
    4.3005   52.4901   27.5412 H   0  0  0  0  0  0
    5.1628   55.3518   26.9098 H   0  0  0  0  0  0
    6.0640   53.8832   26.6707 H   0  0  0  0  0  0
    6.4846   56.1090   25.1071 H   0  0  0  0  0  0
    8.0812   55.6904   24.4812 H   0  0  0  0  0  0
    4.0028   53.5496   20.9240 H   0  0  0  0  0  0
    5.1019   52.5562   19.3103 H   0  0  0  0  0  0
    5.1157   52.3288   16.8832 H   0  0  0  0  0  0
    5.9609   56.5038   16.4463 H   0  0  0  0  0  0
    5.9356   56.7793   18.8804 H   0  0  0  0  0  0
    2.0017   52.4292   26.0600 H   0  0  0  0  0  0
    1.1695   53.9530   25.8738 H   0  0  0  0  0  0
  1  2  1  0  0  0
  1 28  1  0  0  0
  1 29  1  0  0  0
  1 30  1  0  0  0
  2  3  1  0  0  0
  2  4  1  0  0  0
  2  5  1  0  0  0
  3 31  1  0  0  0
  3 32  1  0  0  0
  3 33  1  0  0  0
  4 34  1  0  0  0
  4 35  1  0  0  0
  4 36  1  0  0  0
  5  6  1  0  0  0
  5 27  1  0  0  0
  5  7  1  0  0  0
  7  8  1  0  0  0
  7 37  1  0  0  0
  7 38  1  0  0  0
  8  9  1  0  0  0
  8 39  1  0  0  0
  8 40  1  0  0  0
  9 13  1  0  0  0
  9 10  2  0  0  0
 10 11  1  0  0  0
 10 27  1  0  0  0
 11 12  1  0  0  0
 12 13  2  0  0  0
 12 17  1  0  0  0
 13 14  1  0  0  0
 14 15  2  0  0  0
 14 16  1  0  0  0
 16 41  1  0  0  0
 16 42  1  0  0  0
 17 18  1  0  0  0
 17 43  1  0  0  0
 18 19  2  0  0  0
 18 20  1  0  0  0
 20 25  2  0  0  0
 20 21  1  0  0  0
 21 22  2  0  0  0
 21 44  1  0  0  0
 22 23  1  0  0  0
 22 45  1  0  0  0
 23 24  2  0  0  0
 23 26  1  0  0  0
 24 25  1  0  0  0
 24 46  1  0  0  0
 25 47  1  0  0  0
 27 48  1  0  0  0
 27 49  1  0  0  0
M  END
> <i_i_glide_confnum>
7

> <i_i_glide_lignum>
3923

> <i_i_glide_posenum>
386

> <i_i_glide_rotatable_bonds>
5

> <i_m_Source_File_Index>
2606

> <b_m_subgroup_collapsed>
0

> <r_i_docking_score>
-5.93237

> <r_i_glide_ecoul>
-2.64501

> <r_i_glide_eff_state_penalty>
0

> <r_i_glide_einternal>
10.5011

> <r_i_glide_emodel>
-49.7164

> <r_i_glide_energy>
-38.4884

> <r_i_glide_erotb>
0.315325

> <r_i_glide_esite>
-0.000281569

> <r_i_glide_evdw>
-35.8434

> <r_i_glide_gscore>
-5.93237

> <r_i_glide_hbond>
-0.299791

> <r_i_glide_ligand_efficiency>
-0.228168

> <r_i_glide_ligand_efficiency_ln>
-1.3932

> <r_i_glide_ligand_efficiency_sa>
-0.675947

> <r_i_glide_lipo>
-2.58878

> <r_i_glide_metal>
0

> <r_i_glide_rewards>
-1.16992

> <s_i_glide_gridfile>
wee1_glide-grid

> <s_m_Source_File>
wee1_decoys_glide_SP.sdf

> <s_m_Source_Path>
/Users/zhangxujun/Desktop

> <s_m_entry_id>
2881

> <s_m_entry_name>
wee1_decoys_glide_SP.2606

> <s_m_subgroup_title>
wee1_decoys_glide_SP

> <s_m_subgroupid>
wee1_decoys_glide_SP


$$$$
