ZINC51125003_1862
                    3D
 Schrodinger Suite 2024-2.
 31 32  0  0  1  0            999 V2000
    6.7044   54.7435   23.4258 C   0  0  0  0  0  0
    5.2473   54.3491   23.4152 C   0  0  0  0  0  0
    4.4272   54.0899   22.3062 C   0  0  0  0  0  0
    2.8400   53.6967   22.9128 S   0  0  0  0  0  0
    3.4324   53.8819   24.5222 C   0  0  0  0  0  0
    4.6893   54.2362   24.6064 N   0  0  0  0  0  0
    2.5785   53.5389   25.5551 N   0  0  0  0  0  0
    2.7901   53.6967   26.8819 C   0  0  0  0  0  0
    3.7762   54.2591   27.3649 O   0  0  0  0  0  0
    1.7106   53.1294   27.7833 C   0  0  0  0  0  0
    0.4869   52.6605   27.2738 C   0  0  0  0  0  0
   -0.4684   52.1300   28.1370 C   0  0  0  0  0  0
   -0.2608   52.0417   29.4774 N   0  0  0  0  0  0
    0.9146   52.4967   29.9796 C   0  0  0  0  0  0
    1.9142   53.0408   29.1693 C   0  0  0  0  0  0
    1.1792   52.3941   31.6816 Cl  0  0  0  0  0  0
   -1.6881   51.6967   27.6032 N   0  0  0  0  0  0
   -2.6537   50.8967   28.3207 N   0  0  0  0  0  0
    4.7215   54.0967   20.8239 C   0  0  0  0  0  0
    7.3204   54.0027   23.9375 H   0  0  0  0  0  0
    7.1181   54.8502   22.4236 H   0  0  0  0  0  0
    6.8663   55.6967   23.9304 H   0  0  0  0  0  0
    0.2561   52.7013   26.2201 H   0  0  0  0  0  0
    2.8379   53.3821   29.6146 H   0  0  0  0  0  0
   -1.9577   51.8604   26.6427 H   0  0  0  0  0  0
   -2.2530   49.9638   28.4818 H   0  0  0  0  0  0
   -2.8938   51.3525   29.1894 H   0  0  0  0  0  0
    5.7226   54.4608   20.5957 H   0  0  0  0  0  0
    4.6415   53.0963   20.3974 H   0  0  0  0  0  0
    4.0211   54.7303   20.2793 H   0  0  0  0  0  0
    1.6890   53.1595   25.2739 H   0  0  0  0  0  0
  1  2  1  0  0  0
  1 20  1  0  0  0
  1 21  1  0  0  0
  1 22  1  0  0  0
  2  6  1  0  0  0
  2  3  2  0  0  0
  3  4  1  0  0  0
  3 19  1  0  0  0
  4  5  1  0  0  0
  5  6  2  0  0  0
  5  7  1  0  0  0
  7  8  1  0  0  0
  7 31  1  0  0  0
  8  9  2  0  0  0
  8 10  1  0  0  0
 10 15  2  0  0  0
 10 11  1  0  0  0
 11 12  2  0  0  0
 11 23  1  0  0  0
 12 13  1  0  0  0
 12 17  1  0  0  0
 13 14  2  0  0  0
 14 15  1  0  0  0
 14 16  1  0  0  0
 15 24  1  0  0  0
 17 18  1  0  0  0
 17 25  1  0  0  0
 18 26  1  0  0  0
 18 27  1  0  0  0
 19 28  1  0  0  0
 19 29  1  0  0  0
 19 30  1  0  0  0
M  END
> <i_i_glide_confnum>
6

> <i_i_glide_lignum>
1863

> <i_i_glide_posenum>
251

> <i_i_glide_rotatable_bonds>
4

> <i_m_Source_File_Index>
1719

> <b_m_subgroup_collapsed>
0

> <r_i_docking_score>
-4.87744

> <r_i_glide_ecoul>
-2.61736

> <r_i_glide_eff_state_penalty>
0

> <r_i_glide_einternal>
5.14972

> <r_i_glide_emodel>
-45.4107

> <r_i_glide_energy>
-36.0699

> <r_i_glide_erotb>
0.620566

> <r_i_glide_esite>
-0.0639441

> <r_i_glide_evdw>
-33.4525

> <r_i_glide_gscore>
-4.87744

> <r_i_glide_hbond>
-0.16

> <r_i_glide_ligand_efficiency>
-0.256707

> <r_i_glide_ligand_efficiency_ln>
-1.23653

> <r_i_glide_ligand_efficiency_sa>
-0.684998

> <r_i_glide_lipo>
-1.56322

> <r_i_glide_metal>
0

> <r_i_glide_rewards>
-1.64561

> <s_i_glide_gridfile>
wee1_glide-grid

> <s_m_Source_File>
wee1_decoys_glide_SP.sdf

> <s_m_Source_Path>
/Users/zhangxujun/Desktop

> <s_m_entry_id>
1994

> <s_m_entry_name>
wee1_decoys_glide_SP.1719

> <s_m_subgroup_title>
wee1_decoys_glide_SP

> <s_m_subgroupid>
wee1_decoys_glide_SP


$$$$
