ZINC39691004_134
                    3D
 Schrodinger Suite 2024-2.
 60 63  0  0  1  0            999 V2000
    2.0940   49.3006   18.6699 C   0  0  0  0  0  0
    1.9453   49.8344   20.0811 C   0  0  0  0  0  0
    2.3037   49.0927   21.1479 C   0  0  0  0  0  0
    1.3825   51.2539   20.1543 C   0  0  0  0  0  0
    1.3758   51.8497   21.4904 N   0  0  0  0  0  0
    0.2889   52.1946   22.2037 C   0  0  0  0  0  0
   -0.8541   52.0801   21.7620 O   0  0  0  0  0  0
    0.4626   52.7843   23.6319 C   0  0  2  0  0  0
   -0.1346   53.6965   23.6814 H   0  0  0  0  0  0
    1.9160   53.2334   23.8742 C   0  0  0  0  0  0
    2.0694   53.1911   25.3282 N   0  0  0  0  0  0
    0.9386   52.4965   25.9599 C   0  0  0  0  0  0
    0.1549   51.8156   24.8019 C   0  0  0  0  0  0
   -1.3670   51.6768   25.0524 C   0  0  0  0  0  0
   -1.6651   50.8224   26.2979 C   0  0  0  0  0  0
   -1.0673   49.4147   26.0817 N   0  3  0  0  0  0
    0.4387   49.4164   25.7389 C   0  0  0  0  0  0
    0.6577   50.3560   24.5347 C   0  0  0  0  0  0
    3.1052   53.6967   26.0610 C   0  0  0  0  0  0
    3.0703   53.7331   27.2930 O   0  0  0  0  0  0
    4.3250   54.1219   25.3857 C   0  0  0  0  0  0
    5.5367   54.5718   25.9037 C   0  0  0  0  0  0
    6.3914   54.7960   24.8186 C   0  0  0  0  0  0
    5.6746   54.4967   23.6685 C   0  0  0  0  0  0
    4.4351   54.0810   24.0307 O   0  0  0  0  0  0
    5.9505   54.6139   22.2063 C   0  0  0  0  0  0
    5.0553   54.0945   21.2629 C   0  0  0  0  0  0
    5.2989   54.2588   19.9017 C   0  0  0  0  0  0
    6.4348   54.9456   19.4813 C   0  0  0  0  0  0
    7.3323   55.4659   20.4104 C   0  0  0  0  0  0
    7.0918   55.2974   21.7721 C   0  0  0  0  0  0
    6.6711   55.1067   18.1608 F   0  0  0  0  0  0
    1.1216   49.2009   18.1882 H   0  0  0  0  0  0
    2.7044   49.9863   18.0822 H   0  0  0  0  0  0
    2.5831   48.3256   18.6460 H   0  0  0  0  0  0
    2.7040   48.0969   21.0230 H   0  0  0  0  0  0
    2.2119   49.4564   22.1590 H   0  0  0  0  0  0
    0.3842   51.2438   19.7110 H   0  0  0  0  0  0
    1.9749   51.9060   19.5099 H   0  0  0  0  0  0
    2.2854   52.0440   21.8763 H   0  0  0  0  0  0
    2.6289   52.4961   23.5041 H   0  0  0  0  0  0
    2.0964   54.2214   23.4451 H   0  0  0  0  0  0
    0.3044   53.2722   26.3874 H   0  0  0  0  0  0
    1.1966   51.8192   26.7729 H   0  0  0  0  0  0
   -1.8814   51.2856   24.1725 H   0  0  0  0  0  0
   -1.7970   52.6663   25.2165 H   0  0  0  0  0  0
   -2.7333   50.6742   26.4651 H   0  0  0  0  0  0
   -1.2161   51.2108   27.2139 H   0  0  0  0  0  0
   -1.5866   48.9213   25.3708 H   0  0  0  0  0  0
    0.7049   48.3817   25.5159 H   0  0  0  0  0  0
    0.9637   49.7155   26.6457 H   0  0  0  0  0  0
    1.7216   50.3664   24.3011 H   0  0  0  0  0  0
    0.1834   49.9216   23.6529 H   0  0  0  0  0  0
    5.7724   54.7070   26.9501 H   0  0  0  0  0  0
    7.4091   55.1543   24.8547 H   0  0  0  0  0  0
    4.1640   53.5713   21.5754 H   0  0  0  0  0  0
    4.6101   53.8582   19.1720 H   0  0  0  0  0  0
    8.2152   55.9882   20.0718 H   0  0  0  0  0  0
    7.7953   55.7051   22.4836 H   0  0  0  0  0  0
   -1.2178   48.8969   26.9664 H   0  0  0  0  0  0
  1  2  1  0  0  0
  1 33  1  0  0  0
  1 34  1  0  0  0
  1 35  1  0  0  0
  2  3  2  0  0  0
  2  4  1  0  0  0
  3 36  1  0  0  0
  3 37  1  0  0  0
  4  5  1  0  0  0
  4 38  1  0  0  0
  4 39  1  0  0  0
  5  6  1  0  0  0
  5 40  1  0  0  0
  6  7  2  0  0  0
  6  8  1  0  0  0
  8  9  1  0  0  0
  8 13  1  0  0  0
  8 10  1  0  0  0
 10 11  1  0  0  0
 10 41  1  0  0  0
 10 42  1  0  0  0
 11 12  1  0  0  0
 11 19  1  0  0  0
 12 13  1  0  0  0
 12 43  1  0  0  0
 12 44  1  0  0  0
 13 18  1  0  0  0
 13 14  1  0  0  0
 14 15  1  0  0  0
 14 45  1  0  0  0
 14 46  1  0  0  0
 15 16  1  0  0  0
 15 47  1  0  0  0
 15 48  1  0  0  0
 16 17  1  0  0  0
 16 49  1  0  0  0
 16 60  1  0  0  0
 17 18  1  0  0  0
 17 50  1  0  0  0
 17 51  1  0  0  0
 18 52  1  0  0  0
 18 53  1  0  0  0
 19 20  2  0  0  0
 19 21  1  0  0  0
 21 25  1  0  0  0
 21 22  2  0  0  0
 22 23  1  0  0  0
 22 54  1  0  0  0
 23 24  2  0  0  0
 23 55  1  0  0  0
 24 25  1  0  0  0
 24 26  1  0  0  0
 26 31  2  0  0  0
 26 27  1  0  0  0
 27 28  2  0  0  0
 27 56  1  0  0  0
 28 29  1  0  0  0
 28 57  1  0  0  0
 29 30  2  0  0  0
 29 32  1  0  0  0
 30 31  1  0  0  0
 30 58  1  0  0  0
 31 59  1  0  0  0
M  CHG  1  16   1
M  END
> <i_i_glide_confnum>
267

> <i_i_glide_lignum>
135

> <i_i_glide_posenum>
176

> <i_i_glide_rotatable_bonds>
7

> <i_m_Source_File_Index>
4264

> <b_m_subgroup_collapsed>
0

> <r_i_docking_score>
-5.96451

> <r_i_glide_ecoul>
-8.42296

> <r_i_glide_eff_state_penalty>
0

> <r_i_glide_einternal>
4.55443

> <r_i_glide_emodel>
-60.2922

> <r_i_glide_energy>
-43.9204

> <r_i_glide_erotb>
0.76373

> <r_i_glide_esite>
-0.1

> <r_i_glide_evdw>
-35.4975

> <r_i_glide_gscore>
-5.96451

> <r_i_glide_hbond>
-0.2

> <r_i_glide_ligand_efficiency>
-0.192403

> <r_i_glide_ligand_efficiency_ln>
-1.34518

> <r_i_glide_ligand_efficiency_sa>
-0.604412

> <r_i_glide_lipo>
-2.27106

> <r_i_glide_metal>
0

> <r_i_glide_rewards>
-1.11885

> <s_i_glide_gridfile>
wee1_glide-grid

> <s_m_Source_File>
wee1_decoys_glide_SP.sdf

> <s_m_Source_Path>
/Users/zhangxujun/Desktop

> <s_m_entry_id>
4539

> <s_m_entry_name>
wee1_decoys_glide_SP.4264

> <s_m_subgroup_title>
wee1_decoys_glide_SP

> <s_m_subgroupid>
wee1_decoys_glide_SP


$$$$
