ZINC59640560_1391
                    3D
 Schrodinger Suite 2024-2.
 47 50  0  0  1  0            999 V2000
    1.8813   53.0667   25.6451 C   0  0  0  0  0  0
    3.2592   53.6961   25.6626 C   0  0  0  0  0  0
    4.0342   54.0967   24.6000 C   0  0  0  0  0  0
    5.3014   54.4889   25.0344 C   0  0  0  0  0  0
    5.2516   54.3929   26.4347 C   0  0  0  0  0  0
    4.0097   53.8760   26.8141 N   0  0  0  0  0  0
    3.5814   53.5101   28.1211 C   0  0  0  0  0  0
    4.3597   52.6135   28.8820 C   0  0  0  0  0  0
    3.8908   52.1011   30.0963 C   0  0  0  0  0  0
    2.6291   52.4974   30.5202 C   0  0  0  0  0  0
    1.8881   53.4036   29.8192 C   0  0  0  0  0  0
    2.3386   53.9518   28.6205 C   0  0  0  0  0  0
    0.7331   53.6551   30.4930 O   0  0  0  0  0  0
    0.6774   52.7036   31.5281 C   0  0  0  0  0  0
    1.9497   52.1186   31.6353 O   0  0  0  0  0  0
    6.3140   54.7429   27.4658 C   0  0  0  0  0  0
    6.4169   54.9013   24.1830 C   0  0  0  0  0  0
    6.3019   54.8976   22.9178 N   0  0  0  0  0  0
    7.3755   55.3873   22.1573 N   0  0  0  0  0  0
    7.4226   55.4343   20.7606 C   0  0  0  0  0  0
    8.6450   55.6964   20.2385 N   0  0  0  0  0  0
    8.7246   55.7538   18.8838 C   0  0  0  0  0  0
    7.6126   55.5618   18.0621 C   0  0  0  0  0  0
    6.3817   55.3120   18.6888 C   0  0  0  0  0  0
    6.2774   55.2583   20.0485 N   0  0  0  0  0  0
    5.2451   55.1098   17.8925 N   0  0  0  0  0  0
    3.9338   54.8284   18.4624 C   0  0  0  0  0  0
    7.7375   55.6161   16.7126 F   0  0  0  0  0  0
    1.5288   52.8920   24.6278 H   0  0  0  0  0  0
    1.8639   52.0998   26.1529 H   0  0  0  0  0  0
    1.1465   53.6995   26.1327 H   0  0  0  0  0  0
    3.7215   54.0542   23.5656 H   0  0  0  0  0  0
    5.3116   52.2687   28.5042 H   0  0  0  0  0  0
    4.4900   51.4134   30.6724 H   0  0  0  0  0  0
    1.7344   54.6625   28.0768 H   0  0  0  0  0  0
   -0.0665   51.9391   31.2798 H   0  0  0  0  0  0
    0.3929   53.1644   32.4767 H   0  0  0  0  0  0
    7.0972   55.3774   27.0573 H   0  0  0  0  0  0
    5.8993   55.2898   28.3144 H   0  0  0  0  0  0
    6.8149   53.8606   27.8576 H   0  0  0  0  0  0
    7.3105   55.2142   24.7185 H   0  0  0  0  0  0
    8.2321   55.5311   22.6863 H   0  0  0  0  0  0
    9.7029   55.9469   18.4649 H   0  0  0  0  0  0
    5.3429   55.1516   16.8876 H   0  0  0  0  0  0
    3.2219   54.5968   17.6706 H   0  0  0  0  0  0
    3.5612   55.6916   19.0099 H   0  0  0  0  0  0
    3.9728   53.9728   19.1382 H   0  0  0  0  0  0
  1  2  1  0  0  0
  1 29  1  0  0  0
  1 30  1  0  0  0
  1 31  1  0  0  0
  2  6  1  0  0  0
  2  3  2  0  0  0
  3  4  1  0  0  0
  3 32  1  0  0  0
  4  5  2  0  0  0
  4 17  1  0  0  0
  5  6  1  0  0  0
  5 16  1  0  0  0
  6  7  1  0  0  0
  7 12  2  0  0  0
  7  8  1  0  0  0
  8  9  2  0  0  0
  8 33  1  0  0  0
  9 10  1  0  0  0
  9 34  1  0  0  0
 10 15  1  0  0  0
 10 11  2  0  0  0
 11 12  1  0  0  0
 11 13  1  0  0  0
 12 35  1  0  0  0
 13 14  1  0  0  0
 14 15  1  0  0  0
 14 36  1  0  0  0
 14 37  1  0  0  0
 16 38  1  0  0  0
 16 39  1  0  0  0
 16 40  1  0  0  0
 17 18  2  0  0  0
 17 41  1  0  0  0
 18 19  1  0  0  0
 19 20  1  0  0  0
 19 42  1  0  0  0
 20 25  2  0  0  0
 20 21  1  0  0  0
 21 22  2  0  0  0
 22 23  1  0  0  0
 22 43  1  0  0  0
 23 24  2  0  0  0
 23 28  1  0  0  0
 24 25  1  0  0  0
 24 26  1  0  0  0
 26 27  1  0  0  0
 26 44  1  0  0  0
 27 45  1  0  0  0
 27 46  1  0  0  0
 27 47  1  0  0  0
M  END
> <i_i_glide_confnum>
5

> <i_i_glide_lignum>
1392

> <i_i_glide_posenum>
355

> <i_i_glide_rotatable_bonds>
5

> <i_m_Source_File_Index>
2769

> <b_m_subgroup_collapsed>
0

> <r_i_docking_score>
-7.27384

> <r_i_glide_ecoul>
-5.65835

> <r_i_glide_eff_state_penalty>
0

> <r_i_glide_einternal>
1.17741

> <r_i_glide_emodel>
-71.1848

> <r_i_glide_energy>
-50.4027

> <r_i_glide_erotb>
0.531273

> <r_i_glide_esite>
-0.1

> <r_i_glide_evdw>
-44.7443

> <r_i_glide_gscore>
-7.27384

> <r_i_glide_hbond>
-0.41097

> <r_i_glide_ligand_efficiency>
-0.25978

> <r_i_glide_ligand_efficiency_ln>
-1.67901

> <r_i_glide_ligand_efficiency_sa>
-0.788845

> <r_i_glide_lipo>
-2.46635

> <r_i_glide_metal>
0

> <r_i_glide_rewards>
-1.74182

> <s_i_glide_gridfile>
wee1_glide-grid

> <s_m_Source_File>
wee1_decoys_glide_SP.sdf

> <s_m_Source_Path>
/Users/zhangxujun/Desktop

> <s_m_entry_id>
3044

> <s_m_entry_name>
wee1_decoys_glide_SP.2769

> <s_m_subgroup_title>
wee1_decoys_glide_SP

> <s_m_subgroupid>
wee1_decoys_glide_SP


$$$$
