@<TRIPOS>MOLECULE
ZINC22972597_5639
50   54    1
SMALL
USER_CHARGES


@<TRIPOS>ATOM
      1 C1          4.7326   52.3101   20.7472 C.3       1 UNK         0.0000 
      2 C2          5.1045   53.6959   20.2586 C.2       1 UNK         0.0000 
      3 C3          4.9360   54.1761   18.9180 C.ar      1 UNK         0.0000 
      4 C4          4.4312   53.6536   17.7167 C.ar      1 UNK         0.0000 
      5 C5          4.4061   54.4539   16.5695 C.ar      1 UNK         0.0000 
      6 C6          4.8851   55.7908   16.5770 C.ar      1 UNK         0.0000 
      7 C7          4.8474   56.6157   15.4254 C.ar      1 UNK         0.0000 
      8 C8          5.3217   57.9253   15.4827 C.ar      1 UNK         0.0000 
      9 C9          5.8461   58.4398   16.6652 C.ar      1 UNK         0.0000 
     10 C10         5.9061   57.6558   17.8156 C.ar      1 UNK         0.0000 
     11 C11         5.4207   56.3248   17.7833 C.ar      1 UNK         0.0000 
     12 C12         5.4344   55.4899   18.9244 C.ar      1 UNK         0.0000 
     13 O13         5.9124   55.8430   20.1501 O.3       1 UNK         0.0000 
     14 C14         5.6643   54.7745   20.9651 C.2       1 UNK         0.0000 
     15 C15         6.0685   54.8965   22.3378 C.2       1 UNK         0.0000 
     16 O16         7.1042   55.4771   22.6566 O.2       1 UNK         0.0000 
     17 N17         5.1586   54.3749   23.1850 N.am      1 UNK         0.0000 
     18 C18         5.2048   54.3526   24.5688 C.2       1 UNK         0.0000 
     19 N19         6.2427   54.4973   25.3561 N.2       1 UNK         0.0000 
     20 C20         5.9409   54.2250   26.6182 C.2       1 UNK         0.0000 
     21 C21         4.6059   53.8643   26.8815 C.2       1 UNK         0.0000 
     22 S22         3.7307   53.9823   25.3757 S.3       1 UNK         0.0000 
     23 C23         4.0061   53.3191   28.1209 C.ar      1 UNK         0.0000 
     24 N24         4.7046   52.5908   28.9579 N.2       1 UNK         0.0000 
     25 N25         3.8802   52.2024   30.0028 N.2       1 UNK         0.0000 
     26 C26         2.7009   52.7153   29.7729 C.ar      1 UNK         0.0000 
     27 S27         1.3462   52.4967   30.8814 S.3       1 UNK         0.0000 
     28 N28         2.7065   53.4439   28.5922 N.pl3     1 UNK         0.0000 
     29 C29         1.5886   54.1972   28.0158 C.3       1 UNK         0.0000 
     30 C30         1.3741   55.5794   28.6042 C.2       1 UNK         0.0000 
     31 C31         1.9709   56.1267   29.6732 C.2       1 UNK         0.0000 
     32 C32         7.1006   54.2898   27.5876 C.3       1 UNK         0.0000 
     33 H33         5.1313   51.5445   20.0825 H         1 UNK         0.0000 
     34 H34         5.1142   52.0850   21.7424 H         1 UNK         0.0000 
     35 H35         3.6518   52.1726   20.7719 H         1 UNK         0.0000 
     36 H36         4.0624   52.6376   17.6753 H         1 UNK         0.0000 
     37 H37         4.0082   54.0464   15.6514 H         1 UNK         0.0000 
     38 H38         4.4415   56.2256   14.5033 H         1 UNK         0.0000 
     39 H39         5.2791   58.5531   14.6045 H         1 UNK         0.0000 
     40 H40         6.1998   59.4611   16.6890 H         1 UNK         0.0000 
     41 H41         6.3045   58.0636   18.7331 H         1 UNK         0.0000 
     42 H42         4.3015   54.0446   22.7672 H         1 UNK         0.0000 
     43 H43         0.6749   53.6171   28.1496 H         1 UNK         0.0000 
     44 H44         1.7000   54.2869   26.9442 H         1 UNK         0.0000 
     45 H45         0.6407   56.1619   28.0817 H         1 UNK         0.0000 
     46 H46         2.7045   55.5806   30.2410 H         1 UNK         0.0000 
     47 H47         1.7307   57.1289   29.9981 H         1 UNK         0.0000 
     48 H48         7.5042   55.2962   27.6715 H         1 UNK         0.0000 
     49 H49         6.8295   54.0026   28.6018 H         1 UNK         0.0000 
     50 H50         7.9041   53.6233   27.2820 H         1 UNK         0.0000 
@<TRIPOS>BOND
     1    1    2 1    
     2    1   33 1    
     3    1   34 1    
     4    1   35 1    
     5    2   14 2    
     6    2    3 1    
     7    3   12 ar   
     8    3    4 ar   
     9    4    5 ar   
    10    4   36 1    
    11    5    6 ar   
    12    5   37 1    
    13    6   11 ar   
    14    6    7 ar   
    15    7    8 ar   
    16    7   38 1    
    17    8    9 ar   
    18    8   39 1    
    19    9   10 ar   
    20    9   40 1    
    21   10   11 ar   
    22   10   41 1    
    23   11   12 ar   
    24   12   13 1    
    25   13   14 1    
    26   14   15 1    
    27   15   16 2    
    28   15   17 am   BACKBONE|DICT|INTERRES
    29   17   18 am   BACKBONE|DICT|INTERRES
    30   17   42 1    
    31   18   22 1    
    32   18   19 2    
    33   19   20 1    
    34   20   21 2    
    35   20   32 1    
    36   21   22 1    
    37   21   23 1    
    38   23   28 ar   
    39   23   24 ar   
    40   24   25 ar   
    41   25   26 ar   
    42   26   27 1    
    43   26   28 ar   
    44   28   29 1    
    45   29   30 1    
    46   29   43 1    
    47   29   44 1    
    48   30   31 2    
    49   30   45 1    
    50   31   46 1    
    51   31   47 1    
    52   32   48 1    
    53   32   49 1    
    54   32   50 1    
@<TRIPOS>SUBSTRUCTURE
     1 UNK         1 GROUP             0       ****    0 ROOT    
