@<TRIPOS>MOLECULE
ZINC07779856_3773
45   48    1
SMALL
USER_CHARGES


@<TRIPOS>ATOM
      1 C1          5.5047   54.8814   21.3118 C.3       1 UNK         0.0000 
      2 C2          5.3590   53.6407   22.2058 C.3       1 UNK         0.0000 
      3 H3          6.3595   53.3180   22.4818 H         1 UNK         0.0000 
      4 C4          4.5536   53.9013   23.4989 C.2       1 UNK         0.0000 
      5 C5          5.1016   54.1634   24.7123 C.2       1 UNK         0.0000 
      6 C6          6.4985   54.4039   24.9815 C.2       1 UNK         0.0000 
      7 N7          6.7874   54.5739   26.2059 N.2       1 UNK         0.0000 
      8 C8          5.6054   54.4511   26.9004 C.ar      1 UNK         0.0000 
      9 C9          4.5280   54.2433   26.0638 C.ar      1 UNK         0.0000 
     10 C10         3.2447   54.0968   26.6029 C.ar      1 UNK         0.0000 
     11 C11         3.0715   54.1621   27.9890 C.ar      1 UNK         0.0000 
     12 C12         4.1726   54.3571   28.8287 C.ar      1 UNK         0.0000 
     13 C13         5.4512   54.4967   28.2850 C.ar      1 UNK         0.0000 
     14 N14         3.1474   53.7825   23.4097 N.pl3     1 UNK         0.0000 
     15 N15         2.3837   53.2194   22.3408 N.2       1 UNK         0.0000 
     16 C16         2.9909   52.6837   21.3565 C.2       1 UNK         0.0000 
     17 S17         4.7044   52.2175   21.2818 S.3       1 UNK         0.0000 
     18 N18         2.2898   52.0970   20.3152 N.pl3     1 UNK         0.0000 
     19 C19         0.8358   51.9514   20.2505 C.3       1 UNK         0.0000 
     20 C20         0.4227   51.6563   18.7960 C.3       1 UNK         0.0000 
     21 C21        -1.1171   51.6100   18.6990 C.3       1 UNK         0.0000 
     22 C22        -1.7189   50.5781   19.6838 C.3       1 UNK         0.0000 
     23 C23        -1.1888   50.7386   21.1292 C.3       1 UNK         0.0000 
     24 C24         0.3526   50.8042   21.1657 C.3       1 UNK         0.0000 
     25 H25         5.9926   55.6967   21.8442 H         1 UNK         0.0000 
     26 H26         6.1076   54.6632   20.4295 H         1 UNK         0.0000 
     27 H27         4.5359   55.2320   20.9675 H         1 UNK         0.0000 
     28 H28         7.2701   54.4404   24.2177 H         1 UNK         0.0000 
     29 H29         2.3810   53.9137   25.9837 H         1 UNK         0.0000 
     30 H30         2.0844   54.0457   28.4122 H         1 UNK         0.0000 
     31 H31         4.0396   54.3957   29.8989 H         1 UNK         0.0000 
     32 H32         6.3033   54.6409   28.9323 H         1 UNK         0.0000 
     33 H33         2.5398   54.0526   24.1678 H         1 UNK         0.0000 
     34 H34         2.8032   51.7404   19.5217 H         1 UNK         0.0000 
     35 H35         0.3841   52.8957   20.5632 H         1 UNK         0.0000 
     36 H36         0.8109   52.4226   18.1223 H         1 UNK         0.0000 
     37 H37         0.8350   50.7010   18.4642 H         1 UNK         0.0000 
     38 H38        -1.5260   52.5992   18.9093 H         1 UNK         0.0000 
     39 H39        -1.4179   51.3686   17.6785 H         1 UNK         0.0000 
     40 H40        -2.8071   50.6473   19.6765 H         1 UNK         0.0000 
     41 H41        -1.4803   49.5735   19.3308 H         1 UNK         0.0000 
     42 H42        -1.6021   51.6467   21.5716 H         1 UNK         0.0000 
     43 H43        -1.5416   49.9129   21.7488 H         1 UNK         0.0000 
     44 H44         0.7669   49.8495   20.8354 H         1 UNK         0.0000 
     45 H45         0.6860   50.9562   22.1933 H         1 UNK         0.0000 
@<TRIPOS>BOND
     1    1    2 1    
     2    1   25 1    
     3    1   26 1    
     4    1   27 1    
     5    2    3 1    
     6    2   17 1    
     7    2    4 1    
     8    4    5 2    
     9    4   14 1    
    10    5    9 1    
    11    5    6 1    
    12    6    7 2    
    13    6   28 1    
    14    7    8 1    
    15    8   13 ar   
    16    8    9 ar   
    17    9   10 ar   
    18   10   11 ar   
    19   10   29 1    
    20   11   12 ar   
    21   11   30 1    
    22   12   13 ar   
    23   12   31 1    
    24   13   32 1    
    25   14   15 1    
    26   14   33 1    
    27   15   16 2    
    28   16   17 1    
    29   16   18 1    
    30   18   19 1    
    31   18   34 1    
    32   19   24 1    
    33   19   20 1    
    34   19   35 1    
    35   20   21 1    
    36   20   36 1    
    37   20   37 1    
    38   21   22 1    
    39   21   38 1    
    40   21   39 1    
    41   22   23 1    
    42   22   40 1    
    43   22   41 1    
    44   23   24 1    
    45   23   42 1    
    46   23   43 1    
    47   24   44 1    
    48   24   45 1    
@<TRIPOS>SUBSTRUCTURE
     1 UNK         1 GROUP             0       ****    0 ROOT    
