@<TRIPOS>MOLECULE
ZINC39695997_183
73   76    1
SMALL
USER_CHARGES


@<TRIPOS>ATOM
      1 C1         -6.0034   54.2796   26.3940 C.3       1 UNK         0.0000 
      2 C2         -5.8904   53.4496   25.1067 C.3       1 UNK         0.0000 
      3 C3         -4.5973   52.6533   25.0377 C.ar      1 UNK         0.0000 
      4 C4         -3.4605   53.2289   24.4741 C.ar      1 UNK         0.0000 
      5 C5         -2.2744   52.5051   24.4114 C.ar      1 UNK         0.0000 
      6 C6         -2.2142   51.1925   24.8987 C.ar      1 UNK         0.0000 
      7 C7         -3.3572   50.6240   25.4699 C.ar      1 UNK         0.0000 
      8 C8         -4.5448   51.3504   25.5425 C.ar      1 UNK         0.0000 
      9 C9         -0.9340   50.3487   24.7760 C.3       1 UNK         0.0000 
     10 H10        -1.2289   49.3068   24.6286 H         1 UNK         0.0000 
     11 C11        -0.1115   50.4073   26.0693 C.3       1 UNK         0.0000 
     12 N12        -0.0929   50.7513   23.6435 N.am      1 UNK         0.0000 
     13 C13        -0.2335   50.3588   22.3645 C.2       1 UNK         0.0000 
     14 O14        -0.9514   49.4188   22.0254 O.2       1 UNK         0.0000 
     15 C15         0.5665   51.1377   21.2818 C.3       1 UNK         0.0000 
     16 H16         0.0286   50.9905   20.3464 H         1 UNK         0.0000 
     17 C17         0.6308   52.6393   21.5820 C.3       1 UNK         0.0000 
     18 N18         1.8823   52.7922   22.3441 N.am      1 UNK         0.0000 
     19 C19         2.7468   51.6212   22.2108 C.3       1 UNK         0.0000 
     20 C20         2.0559   50.7314   21.1588 C.3       1 UNK         0.0000 
     21 C21         2.6819   51.1283   19.7846 C.3       1 UNK         0.0000 
     22 C22         2.0922   50.3289   18.6083 C.3       1 UNK         0.0000 
     23 N23         2.3055   48.8261   18.8818 N.4       1 UNK         0.0000 
     24 C24         1.8201   48.3457   20.2682 C.3       1 UNK         0.0000 
     25 C25         2.4274   49.2553   21.3565 C.3       1 UNK         0.0000 
     26 C26         2.0093   53.7235   23.3178 C.2       1 UNK         0.0000 
     27 O27         1.1005   54.4939   23.5963 O.2       1 UNK         0.0000 
     28 C28         3.2935   53.8536   24.0943 C.ar      1 UNK         0.0000 
     29 C29         4.4952   54.0959   23.4166 C.ar      1 UNK         0.0000 
     30 C30         5.6684   54.3369   24.1260 C.ar      1 UNK         0.0000 
     31 C31         5.6685   54.3399   25.5199 C.ar      1 UNK         0.0000 
     32 C32         4.4657   54.0962   26.1969 C.ar      1 UNK         0.0000 
     33 C33         3.2716   53.8497   25.5022 C.ar      1 UNK         0.0000 
     34 O34         2.0686   53.5951   26.1425 O.3       1 UNK         0.0000 
     35 C35         1.9887   53.6370   27.5624 C.3       1 UNK         0.0000 
     36 O36         6.8728   54.5873   26.1434 O.3       1 UNK         0.0000 
     37 C37         6.9373   54.4952   27.5635 C.3       1 UNK         0.0000 
     38 H38        -6.9258   54.8611   26.4043 H         1 UNK         0.0000 
     39 H39        -5.1691   54.9758   26.4913 H         1 UNK         0.0000 
     40 H40        -6.0058   53.6374   27.2761 H         1 UNK         0.0000 
     41 H41        -6.7407   52.7709   25.0196 H         1 UNK         0.0000 
     42 H42        -5.9565   54.1010   24.2329 H         1 UNK         0.0000 
     43 H43        -3.4933   54.2351   24.0822 H         1 UNK         0.0000 
     44 H44        -1.4011   52.9755   23.9864 H         1 UNK         0.0000 
     45 H45        -3.3283   49.6152   25.8580 H         1 UNK         0.0000 
     46 H46        -5.4188   50.8976   25.9834 H         1 UNK         0.0000 
     47 H47        -0.7067   50.0966   26.9276 H         1 UNK         0.0000 
     48 H48         0.7485   49.7388   26.0181 H         1 UNK         0.0000 
     49 H49         0.2588   51.4144   26.2664 H         1 UNK         0.0000 
     50 H50         0.5492   51.5075   23.8290 H         1 UNK         0.0000 
     51 H51         0.7044   53.1444   20.6184 H         1 UNK         0.0000 
     52 H52        -0.2888   52.8967   22.1008 H         1 UNK         0.0000 
     53 H53         2.6943   51.0842   23.1590 H         1 UNK         0.0000 
     54 H54         3.8053   51.8054   22.0271 H         1 UNK         0.0000 
     55 H55         2.5346   52.1904   19.5841 H         1 UNK         0.0000 
     56 H56         3.7684   51.0065   19.7936 H         1 UNK         0.0000 
     57 H57         1.0248   50.4812   18.4508 H         1 UNK         0.0000 
     58 H58         2.6260   50.5282   17.6752 H         1 UNK         0.0000 
     59 H59         1.8710   48.2885   18.1426 H         1 UNK         0.0000 
     60 H60         0.7299   48.3812   20.2445 H         1 UNK         0.0000 
     61 H61         2.1471   47.3101   20.3620 H         1 UNK         0.0000 
     62 H62         3.5044   49.2148   21.3654 H         1 UNK         0.0000 
     63 H63         2.1190   48.8967   22.3404 H         1 UNK         0.0000 
     64 H64         4.5178   54.1342   22.3369 H         1 UNK         0.0000 
     65 H65         6.5880   54.5302   23.5921 H         1 UNK         0.0000 
     66 H66         4.4576   54.0971   27.2737 H         1 UNK         0.0000 
     67 H67         0.9633   53.4340   27.8701 H         1 UNK         0.0000 
     68 H68         2.6258   52.8800   28.0227 H         1 UNK         0.0000 
     69 H69         2.2577   54.6226   27.9480 H         1 UNK         0.0000 
     70 H70         7.9579   54.6710   27.8878 H         1 UNK         0.0000 
     71 H71         6.3037   55.2417   28.0437 H         1 UNK         0.0000 
     72 H72         6.6518   53.5021   27.9143 H         1 UNK         0.0000 
     73 H73         3.3007   48.6535   18.7813 H         1 UNK         0.0000 
@<TRIPOS>BOND
     1    1    2 1    
     2    1   38 1    
     3    1   39 1    
     4    1   40 1    
     5    2    3 1    
     6    2   41 1    
     7    2   42 1    
     8    3    8 ar   
     9    3    4 ar   
    10    4    5 ar   
    11    4   43 1    
    12    5    6 ar   
    13    5   44 1    
    14    6    7 ar   
    15    6    9 1    
    16    7    8 ar   
    17    7   45 1    
    18    8   46 1    
    19    9   10 1    
    20    9   11 1    
    21    9   12 1    
    22   11   47 1    
    23   11   48 1    
    24   11   49 1    
    25   12   13 am   BACKBONE|DICT|INTERRES
    26   12   50 1    
    27   13   14 2    
    28   13   15 1    
    29   15   16 1    
    30   15   20 1    
    31   15   17 1    
    32   17   18 1    
    33   17   51 1    
    34   17   52 1    
    35   18   19 1    
    36   18   26 am   BACKBONE|DICT|INTERRES
    37   19   20 1    
    38   19   53 1    
    39   19   54 1    
    40   20   25 1    
    41   20   21 1    
    42   21   22 1    
    43   21   55 1    
    44   21   56 1    
    45   22   23 1    
    46   22   57 1    
    47   22   58 1    
    48   23   24 1    
    49   23   59 1    
    50   23   73 1    
    51   24   25 1    
    52   24   60 1    
    53   24   61 1    
    54   25   62 1    
    55   25   63 1    
    56   26   27 2    
    57   26   28 1    
    58   28   33 ar   
    59   28   29 ar   
    60   29   30 ar   
    61   29   64 1    
    62   30   31 ar   
    63   30   65 1    
    64   31   32 ar   
    65   31   36 1    
    66   32   33 ar   
    67   32   66 1    
    68   33   34 1    
    69   34   35 1    
    70   35   67 1    
    71   35   68 1    
    72   35   69 1    
    73   36   37 1    
    74   37   70 1    
    75   37   71 1    
    76   37   72 1    
@<TRIPOS>SUBSTRUCTURE
     1 UNK         1 GROUP             0       ****    0 ROOT    
