ZINC34978245_2316
                    3D
 Schrodinger Suite 2024-2.
 71 74  0  0  1  0            999 V2000
   -1.3808   49.8831   23.4392 C   0  0  0  0  0  0
    0.1237   49.8208   23.1161 C   0  0  2  0  0  0
    0.3505   48.7696   22.9281 H   0  0  0  0  0  0
    1.0261   50.2372   24.3142 C   0  0  0  0  0  0
    1.1005   51.7079   24.4553 N   0  0  0  0  0  0
    1.4976   52.4257   23.2275 C   0  0  0  0  0  0
    0.4885   52.0748   22.1160 C   0  0  0  0  0  0
    0.5067   50.6144   21.9191 N   0  0  0  0  0  0
    0.6620   49.9978   20.7089 C   0  0  0  0  0  0
    0.4395   48.7905   20.5842 O   0  0  0  0  0  0
    1.1011   50.7493   19.4180 C   0  0  0  0  0  0
   -0.0585   51.5805   18.8083 C   0  0  0  0  0  0
    0.3772   52.1524   17.4421 C   0  0  0  0  0  0
    1.7054   52.9339   17.5241 C   0  0  0  0  0  0
    2.8344   52.1043   18.1728 C   0  0  0  0  0  0
    2.4427   51.5222   19.5494 C   0  0  0  0  0  0
    1.0929   52.3667   25.6518 C   0  0  0  0  0  0
    1.5043   53.5256   25.7464 O   0  0  0  0  0  0
    0.5811   51.6740   26.9636 C   0  0  1  0  0  0
    1.3475   50.9469   27.2297 H   0  0  0  0  0  0
    0.4180   52.6148   28.1994 C   0  0  0  0  0  0
    1.6821   53.2486   28.7467 C   0  0  0  0  0  0
    1.8202   54.6520   28.7794 C   0  0  0  0  0  0
    2.9935   55.2168   29.2543 C   0  0  0  0  0  0
    4.0367   54.4057   29.6818 C   0  0  0  0  0  0
    3.9035   53.0226   29.6745 C   0  0  0  0  0  0
    2.7346   52.4369   29.2147 C   0  0  0  0  0  0
   -0.6610   50.8972   26.8453 N   0  0  0  0  0  0
   -1.8744   51.3809   26.5434 C   0  0  0  0  0  0
   -2.0689   52.4951   26.0568 O   0  0  0  0  0  0
   -2.8266   50.4958   26.8853 N   0  0  0  0  0  0
   -4.2193   50.6080   26.7430 C   0  0  0  0  0  0
   -4.8473   51.4624   25.8232 C   0  0  0  0  0  0
   -6.2373   51.4982   25.7458 C   0  0  0  0  0  0
   -6.9964   50.6813   26.5798 C   0  0  0  0  0  0
   -6.3800   49.8228   27.4873 C   0  0  0  0  0  0
   -4.9900   49.7832   27.5655 C   0  0  0  0  0  0
   -1.6063   49.2916   24.3271 H   0  0  0  0  0  0
   -1.7129   50.9001   23.6465 H   0  0  0  0  0  0
   -1.9782   49.4769   22.6226 H   0  0  0  0  0  0
    2.0301   49.8761   24.0817 H   0  0  0  0  0  0
    0.7227   49.7148   25.2197 H   0  0  0  0  0  0
    1.5279   53.5088   23.3589 H   0  0  0  0  0  0
    2.4954   52.1006   22.9292 H   0  0  0  0  0  0
   -0.5124   52.3668   22.4348 H   0  0  0  0  0  0
    0.6766   52.6599   21.2228 H   0  0  0  0  0  0
    1.3025   49.9280   18.7246 H   0  0  0  0  0  0
   -0.9300   50.9525   18.6112 H   0  0  0  0  0  0
   -0.3331   52.4364   19.4234 H   0  0  0  0  0  0
    0.4897   51.3352   16.7271 H   0  0  0  0  0  0
   -0.4067   52.7962   17.0405 H   0  0  0  0  0  0
    2.0098   53.2441   16.5235 H   0  0  0  0  0  0
    1.5535   53.8555   18.0850 H   0  0  0  0  0  0
    3.1046   51.2888   17.4997 H   0  0  0  0  0  0
    3.7345   52.7121   18.2706 H   0  0  0  0  0  0
    2.3978   52.3772   20.2195 H   0  0  0  0  0  0
    3.2555   50.8525   19.8361 H   0  0  0  0  0  0
   -0.2995   53.4040   27.9690 H   0  0  0  0  0  0
   -0.0331   52.0631   29.0271 H   0  0  0  0  0  0
    1.0240   55.2891   28.4233 H   0  0  0  0  0  0
    3.0992   56.2914   29.2813 H   0  0  0  0  0  0
    4.9550   54.8583   30.0283 H   0  0  0  0  0  0
    4.7104   52.3951   30.0184 H   0  0  0  0  0  0
    2.6412   51.3614   29.1982 H   0  0  0  0  0  0
   -0.6090   49.9413   27.1774 H   0  0  0  0  0  0
   -2.5129   49.6740   27.3942 H   0  0  0  0  0  0
   -4.2783   52.0907   25.1549 H   0  0  0  0  0  0
   -6.7225   52.1537   25.0366 H   0  0  0  0  0  0
   -8.0744   50.7087   26.5176 H   0  0  0  0  0  0
   -6.9777   49.1899   28.1269 H   0  0  0  0  0  0
   -4.5160   49.1145   28.2723 H   0  0  0  0  0  0
  1  2  1  0  0  0
  1 38  1  0  0  0
  1 39  1  0  0  0
  1 40  1  0  0  0
  2  3  1  0  0  0
  2  8  1  0  0  0
  2  4  1  0  0  0
  4  5  1  0  0  0
  4 41  1  0  0  0
  4 42  1  0  0  0
  5  6  1  0  0  0
  5 17  1  0  0  0
  6  7  1  0  0  0
  6 43  1  0  0  0
  6 44  1  0  0  0
  7  8  1  0  0  0
  7 45  1  0  0  0
  7 46  1  0  0  0
  8  9  1  0  0  0
  9 10  2  0  0  0
  9 11  1  0  0  0
 11 16  1  0  0  0
 11 12  1  0  0  0
 11 47  1  0  0  0
 12 13  1  0  0  0
 12 48  1  0  0  0
 12 49  1  0  0  0
 13 14  1  0  0  0
 13 50  1  0  0  0
 13 51  1  0  0  0
 14 15  1  0  0  0
 14 52  1  0  0  0
 14 53  1  0  0  0
 15 16  1  0  0  0
 15 54  1  0  0  0
 15 55  1  0  0  0
 16 56  1  0  0  0
 16 57  1  0  0  0
 17 18  2  0  0  0
 17 19  1  0  0  0
 19 20  1  0  0  0
 19 21  1  0  0  0
 19 28  1  0  0  0
 21 22  1  0  0  0
 21 58  1  0  0  0
 21 59  1  0  0  0
 22 27  2  0  0  0
 22 23  1  0  0  0
 23 24  2  0  0  0
 23 60  1  0  0  0
 24 25  1  0  0  0
 24 61  1  0  0  0
 25 26  2  0  0  0
 25 62  1  0  0  0
 26 27  1  0  0  0
 26 63  1  0  0  0
 27 64  1  0  0  0
 28 29  1  0  0  0
 28 65  1  0  0  0
 29 30  2  0  0  0
 29 31  1  0  0  0
 31 32  1  0  0  0
 31 66  1  0  0  0
 32 37  2  0  0  0
 32 33  1  0  0  0
 33 34  2  0  0  0
 33 67  1  0  0  0
 34 35  1  0  0  0
 34 68  1  0  0  0
 35 36  2  0  0  0
 35 69  1  0  0  0
 36 37  1  0  0  0
 36 70  1  0  0  0
 37 71  1  0  0  0
M  END
> <i_i_glide_confnum>
420

> <i_i_glide_lignum>
2317

> <i_i_glide_posenum>
301

> <i_i_glide_rotatable_bonds>
10

> <i_m_Source_File_Index>
3522

> <b_m_subgroup_collapsed>
0

> <r_i_docking_score>
-4.24906

> <r_i_glide_ecoul>
-6.60357

> <r_i_glide_eff_state_penalty>
0

> <r_i_glide_einternal>
8.57989

> <r_i_glide_emodel>
-47.8718

> <r_i_glide_energy>
-41.694

> <r_i_glide_erotb>
0.713198

> <r_i_glide_esite>
-0.216599

> <r_i_glide_evdw>
-35.0904

> <r_i_glide_gscore>
-4.24906

> <r_i_glide_hbond>
-0.257541

> <r_i_glide_ligand_efficiency>
-0.121402

> <r_i_glide_ligand_efficiency_ln>
-0.932763

> <r_i_glide_ligand_efficiency_sa>
-0.397113

> <r_i_glide_lipo>
-1.39619

> <r_i_glide_metal>
0

> <r_i_glide_rewards>
-0.346869

> <s_i_glide_gridfile>
wee1_glide-grid

> <s_m_Source_File>
wee1_decoys_glide_SP.sdf

> <s_m_Source_Path>
/Users/zhangxujun/Desktop

> <s_m_entry_id>
3797

> <s_m_entry_name>
wee1_decoys_glide_SP.3522

> <s_m_subgroup_title>
wee1_decoys_glide_SP

> <s_m_subgroupid>
wee1_decoys_glide_SP


$$$$
