@<TRIPOS>MOLECULE
ZINC35729065_4499
52   54    1
SMALL
USER_CHARGES


@<TRIPOS>ATOM
      1 C1          3.7826   56.2896   16.9178 C.3       1 UNK         0.0000 
      2 C2          3.4402   55.1292   17.8655 C.3       1 UNK         0.0000 
      3 C3          4.2933   53.8416   17.6855 C.3       1 UNK         0.0000 
      4 H4          3.9509   53.1266   18.4366 H         1 UNK         0.0000 
      5 C5          3.9462   53.1719   16.3371 C.3       1 UNK         0.0000 
      6 C6          5.8398   54.0612   17.8808 C.3       1 UNK         0.0000 
      7 H7          6.1235   54.8960   17.2372 H         1 UNK         0.0000 
      8 C8          6.2423   54.4823   19.3252 C.2       1 UNK         0.0000 
      9 O9          7.3878   54.9034   19.4949 O.2       1 UNK         0.0000 
     10 N10         5.3386   54.3334   20.3216 N.am      1 UNK         0.0000 
     11 C11         5.5798   54.4984   21.6840 C.2       1 UNK         0.0000 
     12 N12         6.6925   54.8982   22.2634 N.2       1 UNK         0.0000 
     13 N13         6.6036   54.8945   23.6473 N.2       1 UNK         0.0000 
     14 C14         5.4326   54.4966   24.0927 C.2       1 UNK         0.0000 
     15 S15         4.3165   54.0918   22.8064 S.3       1 UNK         0.0000 
     16 C16         5.0766   54.3813   25.5453 C.ar      1 UNK         0.0000 
     17 C17         6.0873   54.4363   26.5156 C.ar      1 UNK         0.0000 
     18 C18         5.7799   54.3252   27.8688 C.ar      1 UNK         0.0000 
     19 C19         4.4539   54.1608   28.2632 C.ar      1 UNK         0.0000 
     20 C20         3.4391   54.0991   27.3120 C.ar      1 UNK         0.0000 
     21 C21         3.7490   54.2111   25.9579 C.ar      1 UNK         0.0000 
     22 F22         4.1510   54.0666   29.5761 F         1 UNK         0.0000 
     23 N23         6.6289   52.8967   17.4510 N.am      1 UNK         0.0000 
     24 C24         7.8530   52.9307   16.8967 C.2       1 UNK         0.0000 
     25 O25         8.4906   53.9655   16.7061 O.2       1 UNK         0.0000 
     26 N26         8.2741   51.6969   16.5626 N.am      1 UNK         0.0000 
     27 C27         9.5343   51.3315   16.0659 C.ar      1 UNK         0.0000 
     28 C28         9.6049   50.2671   15.1592 C.ar      1 UNK         0.0000 
     29 C29        10.8357   49.8482   14.6537 C.ar      1 UNK         0.0000 
     30 C30        12.0113   50.4709   15.0761 C.ar      1 UNK         0.0000 
     31 C31        11.9533   51.5180   15.9994 C.ar      1 UNK         0.0000 
     32 C32        10.7210   51.9537   16.4819 C.ar      1 UNK         0.0000 
     33 Br33       13.5539   52.3447   16.6121 Br        1 UNK         0.0000 
     34 H34         3.0237   57.0690   16.9777 H         1 UNK         0.0000 
     35 H35         4.7341   56.7514   17.1824 H         1 UNK         0.0000 
     36 H36         3.8423   55.9727   15.8782 H         1 UNK         0.0000 
     37 H37         2.3848   54.8765   17.7443 H         1 UNK         0.0000 
     38 H38         3.5183   55.5065   18.8832 H         1 UNK         0.0000 
     39 H39         4.3398   53.7337   15.4929 H         1 UNK         0.0000 
     40 H40         4.3498   52.1618   16.2780 H         1 UNK         0.0000 
     41 H41         2.8667   53.0818   16.2064 H         1 UNK         0.0000 
     42 H42         4.4236   53.9897   20.0716 H         1 UNK         0.0000 
     43 H43         7.1206   54.5531   26.2239 H         1 UNK         0.0000 
     44 H44         6.5626   54.3739   28.6120 H         1 UNK         0.0000 
     45 H45         2.4157   53.9696   27.6263 H         1 UNK         0.0000 
     46 H46         2.9469   54.1649   25.2363 H         1 UNK         0.0000 
     47 H47         6.2194   51.9958   17.6767 H         1 UNK         0.0000 
     48 H48         7.5959   50.9540   16.6175 H         1 UNK         0.0000 
     49 H49         8.7052   49.7666   14.8287 H         1 UNK         0.0000 
     50 H50        10.8848   49.0405   13.9367 H         1 UNK         0.0000 
     51 H51        12.9637   50.1370   14.6903 H         1 UNK         0.0000 
     52 H52        10.6967   52.7528   17.2093 H         1 UNK         0.0000 
@<TRIPOS>BOND
     1    1    2 1    
     2    1   34 1    
     3    1   35 1    
     4    1   36 1    
     5    2    3 1    
     6    2   37 1    
     7    2   38 1    
     8    3    4 1    
     9    3    5 1    
    10    3    6 1    
    11    5   39 1    
    12    5   40 1    
    13    5   41 1    
    14    6    7 1    
    15    6    8 1    
    16    6   23 1    
    17    8    9 2    
    18    8   10 am   BACKBONE|DICT|INTERRES
    19   10   11 am   BACKBONE|DICT|INTERRES
    20   10   42 1    
    21   11   15 1    
    22   11   12 2    
    23   12   13 1    
    24   13   14 2    
    25   14   15 1    
    26   14   16 1    
    27   16   21 ar   
    28   16   17 ar   
    29   17   18 ar   
    30   17   43 1    
    31   18   19 ar   
    32   18   44 1    
    33   19   20 ar   
    34   19   22 1    
    35   20   21 ar   
    36   20   45 1    
    37   21   46 1    
    38   23   24 am   BACKBONE|DICT|INTERRES
    39   23   47 1    
    40   24   25 2    
    41   24   26 am   BACKBONE|DICT|INTERRES
    42   26   27 1    
    43   26   48 1    
    44   27   32 ar   
    45   27   28 ar   
    46   28   29 ar   
    47   28   49 1    
    48   29   30 ar   
    49   29   50 1    
    50   30   31 ar   
    51   30   51 1    
    52   31   32 ar   
    53   31   33 1    
    54   32   52 1    
@<TRIPOS>SUBSTRUCTURE
     1 UNK         1 GROUP             0       ****    0 ROOT    
