@<TRIPOS>MOLECULE
ZINC20118175_5193
56   58    1
SMALL
USER_CHARGES


@<TRIPOS>ATOM
      1 C1          9.9442   50.5221   15.8935 C.3       1 UNK         0.0000 
      2 C2          9.1035   51.4962   16.7336 C.3       1 UNK         0.0000 
      3 C3          7.9242   52.1022   15.9570 C.3       1 UNK         0.0000 
      4 O4          7.1777   52.9311   16.8409 O.3       1 UNK         0.0000 
      5 C5          5.8846   53.3201   16.5193 C.ar      1 UNK         0.0000 
      6 C6          5.2764   53.0189   15.2873 C.ar      1 UNK         0.0000 
      7 C7          3.9627   53.4040   15.0244 C.ar      1 UNK         0.0000 
      8 C8          3.2382   54.1081   15.9785 C.ar      1 UNK         0.0000 
      9 C9          3.8271   54.4315   17.1967 C.ar      1 UNK         0.0000 
     10 C10         5.1483   54.0467   17.4786 C.ar      1 UNK         0.0000 
     11 C11         5.7629   54.4210   18.8014 C.2       1 UNK         0.0000 
     12 O12         6.8817   54.9315   18.8443 O.2       1 UNK         0.0000 
     13 N13         4.9889   54.1445   19.8716 N.am      1 UNK         0.0000 
     14 C14         5.2420   54.3459   21.2395 C.ar      1 UNK         0.0000 
     15 C15         6.4215   54.8978   21.7584 C.ar      1 UNK         0.0000 
     16 C16         6.5876   55.0269   23.1308 C.ar      1 UNK         0.0000 
     17 C17         5.5727   54.6379   24.0106 C.ar      1 UNK         0.0000 
     18 C18         4.3873   54.0966   23.4834 C.ar      1 UNK         0.0000 
     19 C19         4.2289   53.9500   22.1102 C.ar      1 UNK         0.0000 
     20 C20         5.7601   54.8473   25.4969 C.2       1 UNK         0.0000 
     21 O21         6.7031   55.5142   25.9326 O.2       1 UNK         0.0000 
     22 N22         4.8698   54.2259   26.2889 N.am      1 UNK         0.0000 
     23 C23         4.8883   54.1263   27.7497 C.3       1 UNK         0.0000 
     24 H24         4.8607   55.1459   28.1387 H         1 UNK         0.0000 
     25 C25         6.2028   53.4612   28.2077 C.3       1 UNK         0.0000 
     26 C26         3.6360   53.4346   28.3379 C.ar      1 UNK         0.0000 
     27 C27         2.5813   52.9825   27.5257 C.ar      1 UNK         0.0000 
     28 C28         1.4673   52.3585   28.0818 C.ar      1 UNK         0.0000 
     29 C29         1.3917   52.1839   29.4591 C.ar      1 UNK         0.0000 
     30 C30         2.4179   52.6325   30.2844 C.ar      1 UNK         0.0000 
     31 C31         3.5282   53.2641   29.7260 C.ar      1 UNK         0.0000 
     32 Br32        1.4426   54.6353   15.6255 Br        1 UNK         0.0000 
     33 H33        10.7814   50.1296   16.4747 H         1 UNK         0.0000 
     34 H34        10.3562   51.0102   15.0108 H         1 UNK         0.0000 
     35 H35         9.3507   49.6694   15.5586 H         1 UNK         0.0000 
     36 H36         8.7253   50.9685   17.6106 H         1 UNK         0.0000 
     37 H37         9.7398   52.2961   17.1154 H         1 UNK         0.0000 
     38 H38         8.2793   52.6919   15.1127 H         1 UNK         0.0000 
     39 H39         7.3045   51.2973   15.5685 H         1 UNK         0.0000 
     40 H40         5.8035   52.4761   14.5172 H         1 UNK         0.0000 
     41 H41         3.5084   53.1549   14.0761 H         1 UNK         0.0000 
     42 H42         3.2446   54.9923   17.9154 H         1 UNK         0.0000 
     43 H43         4.1032   53.7086   19.6632 H         1 UNK         0.0000 
     44 H44         7.2334   55.2267   21.1303 H         1 UNK         0.0000 
     45 H45         7.5043   55.4626   23.5036 H         1 UNK         0.0000 
     46 H46         3.5711   53.7907   24.1187 H         1 UNK         0.0000 
     47 H47         3.3085   53.5267   21.7317 H         1 UNK         0.0000 
     48 H48         4.0664   53.8138   25.8430 H         1 UNK         0.0000 
     49 H49         6.2244   53.2981   29.2748 H         1 UNK         0.0000 
     50 H50         6.3459   52.4966   27.7272 H         1 UNK         0.0000 
     51 H51         7.0750   54.0725   27.9793 H         1 UNK         0.0000 
     52 H52         2.6052   53.0982   26.4531 H         1 UNK         0.0000 
     53 H53         0.6636   52.0097   27.4488 H         1 UNK         0.0000 
     54 H54         0.5251   51.7015   29.8895 H         1 UNK         0.0000 
     55 H55         2.3443   52.4964   31.3550 H         1 UNK         0.0000 
     56 H56         4.3045   53.6209   30.3851 H         1 UNK         0.0000 
@<TRIPOS>BOND
     1    1    2 1    
     2    1   33 1    
     3    1   34 1    
     4    1   35 1    
     5    2    3 1    
     6    2   36 1    
     7    2   37 1    
     8    3    4 1    
     9    3   38 1    
    10    3   39 1    
    11    4    5 1    
    12    5   10 ar   
    13    5    6 ar   
    14    6    7 ar   
    15    6   40 1    
    16    7    8 ar   
    17    7   41 1    
    18    8    9 ar   
    19    8   32 1    
    20    9   10 ar   
    21    9   42 1    
    22   10   11 1    
    23   11   12 2    
    24   11   13 am   BACKBONE|DICT|INTERRES
    25   13   14 1    
    26   13   43 1    
    27   14   19 ar   
    28   14   15 ar   
    29   15   16 ar   
    30   15   44 1    
    31   16   17 ar   
    32   16   45 1    
    33   17   18 ar   
    34   17   20 1    
    35   18   19 ar   
    36   18   46 1    
    37   19   47 1    
    38   20   21 2    
    39   20   22 am   BACKBONE|DICT|INTERRES
    40   22   23 1    
    41   22   48 1    
    42   23   24 1    
    43   23   25 1    
    44   23   26 1    
    45   25   49 1    
    46   25   50 1    
    47   25   51 1    
    48   26   31 ar   
    49   26   27 ar   
    50   27   28 ar   
    51   27   52 1    
    52   28   29 ar   
    53   28   53 1    
    54   29   30 ar   
    55   29   54 1    
    56   30   31 ar   
    57   30   55 1    
    58   31   56 1    
@<TRIPOS>SUBSTRUCTURE
     1 UNK         1 GROUP             0       ****    0 ROOT    
