@<TRIPOS>MOLECULE
ZINC00989129_915
61   64    1
SMALL
USER_CHARGES


@<TRIPOS>ATOM
      1 C1          0.8224   52.6481   28.6019 C.3       1 UNK         0.0000 
      2 C2          1.6208   53.2988   27.4644 C.3       1 UNK         0.0000 
      3 C3          3.1069   53.4795   27.8258 C.3       1 UNK         0.0000 
      4 O4          1.4744   52.4648   26.3159 O.3       1 UNK         0.0000 
      5 C5          1.6360   52.9230   25.0491 C.2       1 UNK         0.0000 
      6 O6          1.9113   54.0966   24.7959 O.2       1 UNK         0.0000 
      7 C7          1.4256   51.8872   24.0027 C.2       1 UNK         0.0000 
      8 C8          2.0024   51.9568   22.7673 C.2       1 UNK         0.0000 
      9 N9          1.8221   51.0376   21.7537 N.am      1 UNK         0.0000 
     10 C10         2.4717   51.2803   20.5622 C.2       1 UNK         0.0000 
     11 O11         2.3847   50.5827   19.5483 O.2       1 UNK         0.0000 
     12 C12         3.2716   52.4800   20.6316 C.2       1 UNK         0.0000 
     13 C13         3.9806   52.9239   19.5630 C.2       1 UNK         0.0000 
     14 C14         4.8147   54.1446   19.4995 C.ar      1 UNK         0.0000 
     15 C15         5.6041   54.5606   20.5761 C.ar      1 UNK         0.0000 
     16 C16         6.3429   55.7378   20.4959 C.ar      1 UNK         0.0000 
     17 C17         6.3043   56.5218   19.3441 C.ar      1 UNK         0.0000 
     18 C18         5.5263   56.0975   18.2563 C.ar      1 UNK         0.0000 
     19 C19         4.7921   54.9154   18.3332 C.ar      1 UNK         0.0000 
     20 O20         7.0425   57.6905   19.3654 O.3       1 UNK         0.0000 
     21 C21         6.9947   58.5558   18.2332 C.3       1 UNK         0.0000 
     22 S22         3.1083   53.2205   22.2072 S.3       1 UNK         0.0000 
     23 C23         0.9732   49.9462   22.0155 C.2       1 UNK         0.0000 
     24 C24         0.3303   49.7523   23.1952 C.2       1 UNK         0.0000 
     25 C25         0.4673   50.7234   24.3701 C.3       1 UNK         0.0000 
     26 H26         0.9720   50.1662   25.1628 H         1 UNK         0.0000 
     27 C27        -0.8834   51.1303   24.9786 C.ar      1 UNK         0.0000 
     28 C28        -1.3404   50.5040   26.1401 C.ar      1 UNK         0.0000 
     29 C29        -2.5547   50.8816   26.7070 C.ar      1 UNK         0.0000 
     30 C30        -3.3355   51.8818   26.1112 C.ar      1 UNK         0.0000 
     31 C31        -2.8778   52.4984   24.9467 C.ar      1 UNK         0.0000 
     32 C32        -1.6617   52.1247   24.3770 C.ar      1 UNK         0.0000 
     33 O33        -4.5534   52.3121   26.6048 O.3       1 UNK         0.0000 
     34 C34        -5.1181   51.6316   27.7222 C.3       1 UNK         0.0000 
     35 C35        -0.5258   48.6209   23.3955 C.1       1 UNK         0.0000 
     36 N36        -1.2176   47.7013   23.5269 N.1       1 UNK         0.0000 
     37 N37         0.7842   49.0202   21.0030 N.pl3     1 UNK         0.0000 
     38 H38         0.8896   53.2348   29.5185 H         1 UNK         0.0000 
     39 H39        -0.2331   52.5720   28.3392 H         1 UNK         0.0000 
     40 H40         1.1797   51.6413   28.8198 H         1 UNK         0.0000 
     41 H41         1.1780   54.2774   27.2682 H         1 UNK         0.0000 
     42 H42         3.2208   54.0909   28.7213 H         1 UNK         0.0000 
     43 H43         3.5932   52.5213   28.0080 H         1 UNK         0.0000 
     44 H44         3.6505   53.9771   27.0235 H         1 UNK         0.0000 
     45 H45         3.9662   52.3438   18.6469 H         1 UNK         0.0000 
     46 H46         5.6583   53.9747   21.4813 H         1 UNK         0.0000 
     47 H47         6.9439   56.0477   21.3380 H         1 UNK         0.0000 
     48 H48         5.4699   56.6747   17.3463 H         1 UNK         0.0000 
     49 H49         4.1899   54.6131   17.4866 H         1 UNK         0.0000 
     50 H50         7.5986   59.4415   18.4280 H         1 UNK         0.0000 
     51 H51         7.3998   58.0683   17.3441 H         1 UNK         0.0000 
     52 H52         5.9772   58.8945   18.0259 H         1 UNK         0.0000 
     53 H53        -0.7639   49.7201   26.6140 H         1 UNK         0.0000 
     54 H54        -2.8678   50.3688   27.6058 H         1 UNK         0.0000 
     55 H55        -3.4743   53.2679   24.4815 H         1 UNK         0.0000 
     56 H56        -1.3233   52.6098   23.4728 H         1 UNK         0.0000 
     57 H57        -6.0764   52.0856   27.9716 H         1 UNK         0.0000 
     58 H58        -4.4814   51.6959   28.6065 H         1 UNK         0.0000 
     59 H59        -5.2991   50.5795   27.4952 H         1 UNK         0.0000 
     60 H60         0.1558   48.2368   21.1083 H         1 UNK         0.0000 
     61 H61         1.2621   49.1397   20.1146 H         1 UNK         0.0000 
@<TRIPOS>BOND
     1    1    2 1    
     2    1   38 1    
     3    1   39 1    
     4    1   40 1    
     5    2    3 1    
     6    2    4 1    
     7    2   41 1    
     8    3   42 1    
     9    3   43 1    
    10    3   44 1    
    11    4    5 1    
    12    5    6 2    
    13    5    7 1    
    14    7   25 1    
    15    7    8 2    
    16    8   22 1    
    17    8    9 am   BACKBONE|DICT|INTERRES
    18    9   10 am   BACKBONE|DICT|INTERRES
    19    9   23 1    
    20   10   11 2    
    21   10   12 1    
    22   12   13 2    
    23   12   22 1    
    24   13   14 1    
    25   13   45 1    
    26   14   19 ar   
    27   14   15 ar   
    28   15   16 ar   
    29   15   46 1    
    30   16   17 ar   
    31   16   47 1    
    32   17   18 ar   
    33   17   20 1    
    34   18   19 ar   
    35   18   48 1    
    36   19   49 1    
    37   20   21 1    
    38   21   50 1    
    39   21   51 1    
    40   21   52 1    
    41   23   24 2    
    42   23   37 1    
    43   24   25 1    
    44   24   35 1    
    45   25   26 1    
    46   25   27 1    
    47   27   32 ar   
    48   27   28 ar   
    49   28   29 ar   
    50   28   53 1    
    51   29   30 ar   
    52   29   54 1    
    53   30   31 ar   
    54   30   33 1    
    55   31   32 ar   
    56   31   55 1    
    57   32   56 1    
    58   33   34 1    
    59   34   57 1    
    60   34   58 1    
    61   34   59 1    
    62   35   36 3    
    63   37   60 1    
    64   37   61 1    
@<TRIPOS>SUBSTRUCTURE
     1 UNK         1 GROUP             0       ****    0 ROOT    
