@<TRIPOS>MOLECULE
ZINC56753544_233
57   59    1
SMALL
USER_CHARGES


@<TRIPOS>ATOM
      1 C1          7.8000   57.2584   17.4438 C.3       1 UNK         0.0000 
      2 C2          6.2920   57.0013   17.6477 C.3       1 UNK         0.0000 
      3 H3          5.8495   57.9231   18.0391 H         1 UNK         0.0000 
      4 C4          5.5914   56.7065   16.3029 C.3       1 UNK         0.0000 
      5 C5          4.0680   56.6403   16.3899 C.ar      1 UNK         0.0000 
      6 C6          3.3019   57.7587   16.0417 C.ar      1 UNK         0.0000 
      7 C7          1.9089   57.6971   16.0817 C.ar      1 UNK         0.0000 
      8 C8          1.2706   56.5228   16.4811 C.ar      1 UNK         0.0000 
      9 C9          2.0286   55.4097   16.8439 C.ar      1 UNK         0.0000 
     10 C10         3.4216   55.4651   16.7972 C.ar      1 UNK         0.0000 
     11 F11         4.1396   54.3734   17.1513 F         1 UNK         0.0000 
     12 N12         6.0487   55.9360   18.6286 N.am      1 UNK         0.0000 
     13 C13         6.2139   56.0541   19.9537 C.2       1 UNK         0.0000 
     14 O14         6.7044   57.0543   20.4819 O.2       1 UNK         0.0000 
     15 N15         5.7414   54.9782   20.6190 N.am      1 UNK         0.0000 
     16 C16         5.7569   54.7863   22.0128 C.ar      1 UNK         0.0000 
     17 C17         4.7158   54.0646   22.5983 C.ar      1 UNK         0.0000 
     18 C18         4.6636   53.9084   23.9866 C.ar      1 UNK         0.0000 
     19 C19         5.6456   54.4789   24.8169 C.ar      1 UNK         0.0000 
     20 C20         6.7039   55.1584   24.2049 C.ar      1 UNK         0.0000 
     21 C21         6.7691   55.2968   22.8260 C.ar      1 UNK         0.0000 
     22 C22         5.6722   54.3133   26.3328 C.2       1 UNK         0.0000 
     23 O23         6.7710   54.3903   26.8931 O.2       1 UNK         0.0000 
     24 N24         4.5316   54.0853   27.0496 N.am      1 UNK         0.0000 
     25 C25         4.6358   53.7551   28.4934 C.3       1 UNK         0.0000 
     26 C26         3.5771   52.6833   28.8669 C.3       1 UNK         0.0000 
     27 N27         2.1667   53.0821   28.3710 N.4       1 UNK         0.0000 
     28 C28         2.2065   53.3937   26.8603 C.3       1 UNK         0.0000 
     29 C29         3.1967   54.5499   26.6324 C.3       1 UNK         0.0000 
     30 C30         1.1480   51.9556   28.6638 C.3       1 UNK         0.0000 
     31 H31         7.9623   58.0263   16.6866 H         1 UNK         0.0000 
     32 H32         8.2811   57.6147   18.3551 H         1 UNK         0.0000 
     33 H33         8.3174   56.3628   17.0975 H         1 UNK         0.0000 
     34 H34         5.9623   55.7732   15.8749 H         1 UNK         0.0000 
     35 H35         5.8606   57.4769   15.5784 H         1 UNK         0.0000 
     36 H36         3.7804   58.6813   15.7406 H         1 UNK         0.0000 
     37 H37         1.3252   58.5674   15.8200 H         1 UNK         0.0000 
     38 H38         0.1926   56.4797   16.5199 H         1 UNK         0.0000 
     39 H39         1.5402   54.5009   17.1645 H         1 UNK         0.0000 
     40 H40         5.6083   55.1028   18.2653 H         1 UNK         0.0000 
     41 H41         5.1956   54.3146   20.0899 H         1 UNK         0.0000 
     42 H42         3.9377   53.6331   21.9838 H         1 UNK         0.0000 
     43 H43         3.8688   53.3017   24.3968 H         1 UNK         0.0000 
     44 H44         7.5051   55.5853   24.7895 H         1 UNK         0.0000 
     45 H45         7.6169   55.8189   22.4071 H         1 UNK         0.0000 
     46 H46         5.6262   53.3701   28.7480 H         1 UNK         0.0000 
     47 H47         4.4632   54.6499   29.0919 H         1 UNK         0.0000 
     48 H48         3.4954   52.6169   29.9522 H         1 UNK         0.0000 
     49 H49         3.8262   51.6968   28.4815 H         1 UNK         0.0000 
     50 H50         1.1981   53.6965   26.5798 H         1 UNK         0.0000 
     51 H51         2.4778   52.4922   26.3127 H         1 UNK         0.0000 
     52 H52         2.9196   55.3825   27.2817 H         1 UNK         0.0000 
     53 H53         3.1492   54.9617   25.6256 H         1 UNK         0.0000 
     54 H54         1.4608   51.0543   28.1328 H         1 UNK         0.0000 
     55 H55         1.1280   51.7928   29.7429 H         1 UNK         0.0000 
     56 H56         0.1690   52.2906   28.3142 H         1 UNK         0.0000 
     57 H57         1.8771   53.9245   28.8503 H         1 UNK         0.0000 
@<TRIPOS>BOND
     1    1    2 1    
     2    1   31 1    
     3    1   32 1    
     4    1   33 1    
     5    2    3 1    
     6    2    4 1    
     7    2   12 1    
     8    4    5 1    
     9    4   34 1    
    10    4   35 1    
    11    5   10 ar   
    12    5    6 ar   
    13    6    7 ar   
    14    6   36 1    
    15    7    8 ar   
    16    7   37 1    
    17    8    9 ar   
    18    8   38 1    
    19    9   10 ar   
    20    9   39 1    
    21   10   11 1    
    22   12   13 am   BACKBONE|DICT|INTERRES
    23   12   40 1    
    24   13   14 2    
    25   13   15 am   BACKBONE|DICT|INTERRES
    26   15   16 1    
    27   15   41 1    
    28   16   21 ar   
    29   16   17 ar   
    30   17   18 ar   
    31   17   42 1    
    32   18   19 ar   
    33   18   43 1    
    34   19   20 ar   
    35   19   22 1    
    36   20   21 ar   
    37   20   44 1    
    38   21   45 1    
    39   22   23 2    
    40   22   24 am   BACKBONE|DICT|INTERRES
    41   24   29 1    
    42   24   25 1    
    43   25   26 1    
    44   25   46 1    
    45   25   47 1    
    46   26   27 1    
    47   26   48 1    
    48   26   49 1    
    49   27   28 1    
    50   27   30 1    
    51   27   57 1    
    52   28   29 1    
    53   28   50 1    
    54   28   51 1    
    55   29   52 1    
    56   29   53 1    
    57   30   54 1    
    58   30   55 1    
    59   30   56 1    
@<TRIPOS>SUBSTRUCTURE
     1 UNK         1 GROUP             0       ****    0 ROOT    
