@<TRIPOS>MOLECULE
ZINC16568881_5984
63   67    1
SMALL
USER_CHARGES


@<TRIPOS>ATOM
      1 C1          1.3354   50.3760   21.7657 C.3       1 UNK         0.0000 
      2 C2          2.4237   51.4278   21.6548 C.ar      1 UNK         0.0000 
      3 C3          3.5287   51.1970   20.8332 C.ar      1 UNK         0.0000 
      4 C4          4.5420   52.1477   20.7383 C.ar      1 UNK         0.0000 
      5 C5          4.4360   53.3431   21.4565 C.ar      1 UNK         0.0000 
      6 C6          3.3083   53.5972   22.2441 C.ar      1 UNK         0.0000 
      7 C7          2.3088   52.6350   22.3513 C.ar      1 UNK         0.0000 
      8 N8          5.4603   54.3055   21.3547 N.pl3     1 UNK         0.0000 
      9 C9          5.7971   55.0722   20.2536 C.ar      1 UNK         0.0000 
     10 N10         6.7541   55.9187   20.5528 N.2       1 UNK         0.0000 
     11 N11         7.1040   55.6966   21.8763 N.2       1 UNK         0.0000 
     12 C12         6.3178   54.7608   22.3418 C.ar      1 UNK         0.0000 
     13 S13         6.4957   54.0965   23.9606 S.3       1 UNK         0.0000 
     14 C14         5.3452   55.1894   24.8257 C.3       1 UNK         0.0000 
     15 C15         4.9846   54.6414   26.1914 C.ar      1 UNK         0.0000 
     16 C16         5.8714   54.8063   27.2554 C.ar      1 UNK         0.0000 
     17 C17         5.5219   54.3467   28.5189 C.ar      1 UNK         0.0000 
     18 C18         4.2981   53.7111   28.7159 C.ar      1 UNK         0.0000 
     19 C19         3.4099   53.5432   27.6561 C.ar      1 UNK         0.0000 
     20 C20         3.7521   54.0112   26.3907 C.ar      1 UNK         0.0000 
     21 C21         5.2038   54.8941   18.8522 C.3       1 UNK         0.0000 
     22 H22         4.2601   54.3517   18.9368 H         1 UNK         0.0000 
     23 C23         4.8445   56.2326   18.1681 C.3       1 UNK         0.0000 
     24 N24         6.0588   54.0271   18.0224 N.am      1 UNK         0.0000 
     25 C25         7.2928   54.3141   17.5659 C.2       1 UNK         0.0000 
     26 O26         7.7793   55.4437   17.5818 O.2       1 UNK         0.0000 
     27 N27         7.9267   53.2122   17.1224 N.am      1 UNK         0.0000 
     28 C28         9.2808   53.0860   16.7371 C.ar      1 UNK         0.0000 
     29 C29        10.2872   53.8975   17.2826 C.ar      1 UNK         0.0000 
     30 C30        11.6231   53.7153   16.9528 C.ar      1 UNK         0.0000 
     31 C31        12.0061   52.7003   16.0874 C.ar      1 UNK         0.0000 
     32 C32        11.0372   51.8401   15.5200 C.ar      1 UNK         0.0000 
     33 C33         9.6543   52.0317   15.8404 C.ar      1 UNK         0.0000 
     34 C34         8.7049   51.1640   15.2296 C.ar      1 UNK         0.0000 
     35 C35         9.1071   50.1463   14.3693 C.ar      1 UNK         0.0000 
     36 C36        10.4525   49.9596   14.0815 C.ar      1 UNK         0.0000 
     37 C37        11.4143   50.7945   14.6387 C.ar      1 UNK         0.0000 
     38 H38         1.1255   49.9452   20.7871 H         1 UNK         0.0000 
     39 H39         1.6525   49.5712   22.4307 H         1 UNK         0.0000 
     40 H40         0.4010   50.7994   22.1335 H         1 UNK         0.0000 
     41 H41         3.6039   50.2798   20.2654 H         1 UNK         0.0000 
     42 H42         5.3949   51.9520   20.1013 H         1 UNK         0.0000 
     43 H43         3.1806   54.5421   22.7469 H         1 UNK         0.0000 
     44 H44         1.4422   52.8315   22.9665 H         1 UNK         0.0000 
     45 H45         5.7881   56.1799   24.9247 H         1 UNK         0.0000 
     46 H46         4.4375   55.2967   24.2419 H         1 UNK         0.0000 
     47 H47         6.8207   55.3016   27.1137 H         1 UNK         0.0000 
     48 H48         6.2102   54.4967   29.3352 H         1 UNK         0.0000 
     49 H49         4.0361   53.3497   29.6984 H         1 UNK         0.0000 
     50 H50         2.4605   53.0517   27.8143 H         1 UNK         0.0000 
     51 H51         3.0631   53.8768   25.5691 H         1 UNK         0.0000 
     52 H52         4.0465   56.7488   18.6977 H         1 UNK         0.0000 
     53 H53         5.6958   56.9143   18.1249 H         1 UNK         0.0000 
     54 H54         4.5012   56.0750   17.1447 H         1 UNK         0.0000 
     55 H55         5.6706   53.1230   17.7925 H         1 UNK         0.0000 
     56 H56         7.3935   52.3565   17.0943 H         1 UNK         0.0000 
     57 H57        10.0524   54.6735   17.9964 H         1 UNK         0.0000 
     58 H58        12.3690   54.3598   17.3945 H         1 UNK         0.0000 
     59 H59        13.0486   52.5626   15.8441 H         1 UNK         0.0000 
     60 H60         7.6519   51.2961   15.4269 H         1 UNK         0.0000 
     61 H61         8.3720   49.4955   13.9182 H         1 UNK         0.0000 
     62 H62        10.7537   49.1759   13.4015 H         1 UNK         0.0000 
     63 H63        12.4576   50.6481   14.3930 H         1 UNK         0.0000 
@<TRIPOS>BOND
     1    1    2 1    
     2    1   38 1    
     3    1   39 1    
     4    1   40 1    
     5    2    7 ar   
     6    2    3 ar   
     7    3    4 ar   
     8    3   41 1    
     9    4    5 ar   
    10    4   42 1    
    11    5    6 ar   
    12    5    8 1    
    13    6    7 ar   
    14    6   43 1    
    15    7   44 1    
    16    8   12 ar   
    17    8    9 ar   
    18    9   10 ar   
    19    9   21 1    
    20   10   11 ar   
    21   11   12 ar   
    22   12   13 1    
    23   13   14 1    
    24   14   15 1    
    25   14   45 1    
    26   14   46 1    
    27   15   20 ar   
    28   15   16 ar   
    29   16   17 ar   
    30   16   47 1    
    31   17   18 ar   
    32   17   48 1    
    33   18   19 ar   
    34   18   49 1    
    35   19   20 ar   
    36   19   50 1    
    37   20   51 1    
    38   21   22 1    
    39   21   23 1    
    40   21   24 1    
    41   23   52 1    
    42   23   53 1    
    43   23   54 1    
    44   24   25 am   BACKBONE|DICT|INTERRES
    45   24   55 1    
    46   25   26 2    
    47   25   27 am   BACKBONE|DICT|INTERRES
    48   27   28 1    
    49   27   56 1    
    50   28   33 ar   
    51   28   29 ar   
    52   29   30 ar   
    53   29   57 1    
    54   30   31 ar   
    55   30   58 1    
    56   31   32 ar   
    57   31   59 1    
    58   32   37 ar   
    59   32   33 ar   
    60   33   34 ar   
    61   34   35 ar   
    62   34   60 1    
    63   35   36 ar   
    64   35   61 1    
    65   36   37 ar   
    66   36   62 1    
    67   37   63 1    
@<TRIPOS>SUBSTRUCTURE
     1 UNK         1 GROUP             0       ****    0 ROOT    
