@<TRIPOS>MOLECULE
ZINC12847038_3240
55   59    1
SMALL
USER_CHARGES


@<TRIPOS>ATOM
      1 C1          6.1584   53.6154   16.9751 C.ar      1 UNK         0.0000 
      2 C2          7.3121   54.3432   16.6867 C.ar      1 UNK         0.0000 
      3 C3          7.8895   55.1656   17.6632 C.ar      1 UNK         0.0000 
      4 C4          7.2947   55.2433   18.9263 C.ar      1 UNK         0.0000 
      5 C5          6.1394   54.5027   19.2304 C.ar      1 UNK         0.0000 
      6 C6          5.5743   53.6964   18.2389 C.ar      1 UNK         0.0000 
      7 N7          5.5085   54.4798   20.4888 N.am      1 UNK         0.0000 
      8 C8          5.9937   54.8962   21.6819 C.2       1 UNK         0.0000 
      9 O9          7.0429   55.5211   21.8500 O.2       1 UNK         0.0000 
     10 C10         5.1934   54.4966   22.8157 C.ar      1 UNK         0.0000 
     11 C11         5.6478   54.4974   24.1441 C.ar      1 UNK         0.0000 
     12 C12         4.5528   54.2173   24.9300 C.ar      1 UNK         0.0000 
     13 N13         3.5187   53.9664   24.0494 N.pl3     1 UNK         0.0000 
     14 N14         3.9121   54.1750   22.7791 N.2       1 UNK         0.0000 
     15 C15         2.1102   53.7532   24.4090 C.3       1 UNK         0.0000 
     16 H16         1.6304   54.7298   24.3592 H         1 UNK         0.0000 
     17 C17         2.0779   53.2780   25.8816 C.3       1 UNK         0.0000 
     18 C18         3.0288   54.0515   26.8319 C.3       1 UNK         0.0000 
     19 H19         2.7046   55.0882   26.9147 H         1 UNK         0.0000 
     20 N20         4.3955   54.1045   26.2958 N.pl3     1 UNK         0.0000 
     21 C21         2.9136   53.5241   28.2653 C.ar      1 UNK         0.0000 
     22 C22         3.9534   52.7826   28.8712 C.ar      1 UNK         0.0000 
     23 C23         3.8180   52.2644   30.1632 C.ar      1 UNK         0.0000 
     24 C24         2.6159   52.4936   30.8205 C.ar      1 UNK         0.0000 
     25 C25         1.6085   53.2182   30.2524 C.ar      1 UNK         0.0000 
     26 C26         1.7259   53.7637   28.9804 C.ar      1 UNK         0.0000 
     27 O27         0.5802   53.3236   31.1318 O.3       1 UNK         0.0000 
     28 C28         0.8931   52.4445   32.1801 C.3       1 UNK         0.0000 
     29 O29         2.2460   52.0966   32.0643 O.3       1 UNK         0.0000 
     30 C30         1.3252   52.8156   23.4523 C.3       1 UNK         0.0000 
     31 F31         0.0686   52.6621   23.8697 F         1 UNK         0.0000 
     32 F32         1.2644   53.2954   22.2112 F         1 UNK         0.0000 
     33 F33         1.8716   51.6000   23.3903 F         1 UNK         0.0000 
     34 C34         9.1584   55.9765   17.4105 C.3       1 UNK         0.0000 
     35 C35         9.7211   55.9134   15.9789 C.3       1 UNK         0.0000 
     36 C36        10.9275   56.7387   15.8127 C.1       1 UNK         0.0000 
     37 N37        11.8750   57.3901   15.6834 N.1       1 UNK         0.0000 
     38 H38         5.7215   52.9704   16.2257 H         1 UNK         0.0000 
     39 H39         7.7497   54.2503   15.7027 H         1 UNK         0.0000 
     40 H40         7.7609   55.8875   19.6547 H         1 UNK         0.0000 
     41 H41         4.6945   53.1027   18.4426 H         1 UNK         0.0000 
     42 H42         4.6277   53.9886   20.5157 H         1 UNK         0.0000 
     43 H43         6.6481   54.7259   24.4831 H         1 UNK         0.0000 
     44 H44         1.0535   53.3266   26.2477 H         1 UNK         0.0000 
     45 H45         2.3042   52.2142   25.9252 H         1 UNK         0.0000 
     46 H46         4.9962   54.6536   26.8945 H         1 UNK         0.0000 
     47 H47         4.8707   52.5855   28.3336 H         1 UNK         0.0000 
     48 H48         4.6188   51.7003   30.6194 H         1 UNK         0.0000 
     49 H49         0.9188   54.3353   28.5454 H         1 UNK         0.0000 
     50 H50         0.3043   51.5375   32.0820 H         1 UNK         0.0000 
     51 H51         0.6717   52.8959   33.1474 H         1 UNK         0.0000 
     52 H52         9.9218   55.6267   18.1105 H         1 UNK         0.0000 
     53 H53         8.9486   57.0182   17.6662 H         1 UNK         0.0000 
     54 H54         8.9824   56.2689   15.2569 H         1 UNK         0.0000 
     55 H55         9.9919   54.8907   15.7146 H         1 UNK         0.0000 
@<TRIPOS>BOND
     1    1    6 ar   
     2    1    2 ar   
     3    1   38 1    
     4    2    3 ar   
     5    2   39 1    
     6    3    4 ar   
     7    3   34 1    
     8    4    5 ar   
     9    4   40 1    
    10    5    6 ar   
    11    5    7 1    
    12    6   41 1    
    13    7    8 am   BACKBONE|DICT|INTERRES
    14    7   42 1    
    15    8    9 2    
    16    8   10 1    
    17   10   14 ar   
    18   10   11 ar   
    19   11   12 ar   
    20   11   43 1    
    21   12   20 1    
    22   12   13 ar   
    23   13   14 ar   
    24   13   15 1    
    25   15   16 1    
    26   15   17 1    
    27   15   30 1    
    28   17   18 1    
    29   17   44 1    
    30   17   45 1    
    31   18   19 1    
    32   18   20 1    
    33   18   21 1    
    34   20   46 1    
    35   21   26 ar   
    36   21   22 ar   
    37   22   23 ar   
    38   22   47 1    
    39   23   24 ar   
    40   23   48 1    
    41   24   29 1    
    42   24   25 ar   
    43   25   26 ar   
    44   25   27 1    
    45   26   49 1    
    46   27   28 1    
    47   28   29 1    
    48   28   50 1    
    49   28   51 1    
    50   30   31 1    
    51   30   32 1    
    52   30   33 1    
    53   34   35 1    
    54   34   52 1    
    55   34   53 1    
    56   35   36 1    
    57   35   54 1    
    58   35   55 1    
    59   36   37 3    
@<TRIPOS>SUBSTRUCTURE
     1 UNK         1 GROUP             0       ****    0 ROOT    
