ZINC24890149_4334
                    3D
 Schrodinger Suite 2024-2.
 58 62  0  0  1  0            999 V2000
    1.1522   52.9011   27.8461 C   0  0  0  0  0  0
    2.1776   53.3385   26.8196 C   0  0  0  0  0  0
    1.7700   53.6967   25.5386 C   0  0  0  0  0  0
    2.7046   54.0999   24.5935 C   0  0  0  0  0  0
    4.0763   54.0743   24.8696 C   0  0  0  0  0  0
    4.4695   53.7079   26.1759 C   0  0  0  0  0  0
    3.5311   53.3592   27.1425 C   0  0  0  0  0  0
    5.0112   54.3564   23.8134 N   0  0  0  0  0  0
    4.6581   54.3837   22.3554 C   0  0  1  0  0  0
    3.9899   55.2302   22.1819 H   0  0  0  0  0  0
    5.9846   54.6322   21.6079 C   0  0  2  0  0  0
    6.2770   53.7843   21.0151 H   0  0  0  0  0  0
    7.0125   54.8630   22.7030 C   0  0  0  0  0  0
    6.3145   54.7081   24.0386 C   0  0  0  0  0  0
    6.9060   54.8906   25.1047 O   0  0  0  0  0  0
    5.9369   55.7715   20.5646 C   0  0  0  0  0  0
    6.3054   56.9017   20.8810 O   0  0  0  0  0  0
    5.5005   55.4313   19.3306 N   0  0  0  0  0  0
    5.3680   56.2270   18.1725 C   0  0  0  0  0  0
    5.7742   57.5668   18.0622 C   0  0  0  0  0  0
    5.5886   58.2636   16.8715 C   0  0  0  0  0  0
    5.0191   57.6337   15.7576 C   0  0  0  0  0  0
    4.6252   56.2943   15.8676 C   0  0  0  0  0  0
    4.7940   55.5998   17.0650 C   0  0  0  0  0  0
    4.8555   58.3568   14.4365 C   0  0  0  0  0  0
    4.8195   57.7227   13.3792 O   0  0  0  0  0  0
    4.7302   59.6968   14.4826 N   0  0  0  0  0  0
    4.6638   60.5639   13.3135 C   0  0  0  0  0  0
    3.4361   60.5063   12.4304 C   0  0  0  0  0  0
    3.6665   61.6959   13.3320 C   0  0  0  0  0  0
    3.8977   53.1498   21.8169 C   0  0  0  0  0  0
    2.5306   52.9750   21.5702 C   0  0  0  0  0  0
    2.1557   51.7455   21.0336 C   0  0  0  0  0  0
    3.2326   50.9194   20.8207 C   0  0  0  0  0  0
    4.7036   51.6967   21.2814 S   0  0  0  0  0  0
    1.5857   52.2060   28.5641 H   0  0  0  0  0  0
    0.3249   52.3724   27.3673 H   0  0  0  0  0  0
    0.7477   53.7597   28.3841 H   0  0  0  0  0  0
    0.7230   53.6876   25.2760 H   0  0  0  0  0  0
    2.3382   54.4461   23.6454 H   0  0  0  0  0  0
    5.5036   53.6266   26.4625 H   0  0  0  0  0  0
    3.8653   53.0677   28.1267 H   0  0  0  0  0  0
    7.5271   55.8225   22.6721 H   0  0  0  0  0  0
    7.7985   54.1089   22.6537 H   0  0  0  0  0  0
    5.1950   54.4765   19.2167 H   0  0  0  0  0  0
    6.2257   58.1039   18.8772 H   0  0  0  0  0  0
    5.9076   59.2963   16.8309 H   0  0  0  0  0  0
    4.1823   55.7789   15.0253 H   0  0  0  0  0  0
    4.4745   54.5684   17.1201 H   0  0  0  0  0  0
    4.7880   60.1797   15.3772 H   0  0  0  0  0  0
    5.6287   60.7276   12.8319 H   0  0  0  0  0  0
    3.5728   60.6157   11.3546 H   0  0  0  0  0  0
    2.6554   59.7874   12.6796 H   0  0  0  0  0  0
    3.0576   61.8206   14.2286 H   0  0  0  0  0  0
    3.9645   62.6492   12.8984 H   0  0  0  0  0  0
    1.7912   53.7369   21.7577 H   0  0  0  0  0  0
    1.1367   51.4808   20.7936 H   0  0  0  0  0  0
    3.2356   49.9268   20.3942 H   0  0  0  0  0  0
  1  2  1  0  0  0
  1 36  1  0  0  0
  1 37  1  0  0  0
  1 38  1  0  0  0
  2  7  2  0  0  0
  2  3  1  0  0  0
  3  4  2  0  0  0
  3 39  1  0  0  0
  4  5  1  0  0  0
  4 40  1  0  0  0
  5  6  2  0  0  0
  5  8  1  0  0  0
  6  7  1  0  0  0
  6 41  1  0  0  0
  7 42  1  0  0  0
  8 14  1  0  0  0
  8  9  1  0  0  0
  9 10  1  0  0  0
  9 11  1  0  0  0
  9 31  1  0  0  0
 11 12  1  0  0  0
 11 13  1  0  0  0
 11 16  1  0  0  0
 13 14  1  0  0  0
 13 43  1  0  0  0
 13 44  1  0  0  0
 14 15  2  0  0  0
 16 17  2  0  0  0
 16 18  1  0  0  0
 18 19  1  0  0  0
 18 45  1  0  0  0
 19 24  2  0  0  0
 19 20  1  0  0  0
 20 21  2  0  0  0
 20 46  1  0  0  0
 21 22  1  0  0  0
 21 47  1  0  0  0
 22 23  2  0  0  0
 22 25  1  0  0  0
 23 24  1  0  0  0
 23 48  1  0  0  0
 24 49  1  0  0  0
 25 26  2  0  0  0
 25 27  1  0  0  0
 27 28  1  0  0  0
 27 50  1  0  0  0
 28 30  1  0  0  0
 28 29  1  0  0  0
 28 51  1  0  0  0
 29 30  1  0  0  0
 29 52  1  0  0  0
 29 53  1  0  0  0
 30 54  1  0  0  0
 30 55  1  0  0  0
 31 35  1  0  0  0
 31 32  2  0  0  0
 32 33  1  0  0  0
 32 56  1  0  0  0
 33 34  2  0  0  0
 33 57  1  0  0  0
 34 35  1  0  0  0
 34 58  1  0  0  0
M  END
> <i_i_glide_confnum>
72

> <i_i_glide_lignum>
4335

> <i_i_glide_posenum>
172

> <i_i_glide_rotatable_bonds>
8

> <i_m_Source_File_Index>
1165

> <b_m_subgroup_collapsed>
0

> <r_i_docking_score>
-5.6884

> <r_i_glide_ecoul>
-8.00503

> <r_i_glide_eff_state_penalty>
0

> <r_i_glide_einternal>
8.60029

> <r_i_glide_emodel>
-51.4906

> <r_i_glide_energy>
-40.2224

> <r_i_glide_erotb>
0.762194

> <r_i_glide_esite>
-0.113615

> <r_i_glide_evdw>
-32.2174

> <r_i_glide_gscore>
-5.6884

> <r_i_glide_hbond>
-0.548519

> <r_i_glide_ligand_efficiency>
-0.172376

> <r_i_glide_ligand_efficiency_ln>
-1.26507

> <r_i_glide_ligand_efficiency_sa>
-0.552901

> <r_i_glide_lipo>
-1.85977

> <r_i_glide_metal>
0

> <r_i_glide_rewards>
-1.11707

> <s_i_glide_gridfile>
wee1_glide-grid

> <s_m_Source_File>
wee1_decoys_glide_SP.sdf

> <s_m_Source_Path>
/Users/zhangxujun/Desktop

> <s_m_entry_id>
1440

> <s_m_entry_name>
wee1_decoys_glide_SP.1165

> <s_m_subgroup_title>
wee1_decoys_glide_SP

> <s_m_subgroupid>
wee1_decoys_glide_SP


$$$$
