@<TRIPOS>MOLECULE
ZINC36619904_2627
40   42    1
SMALL
USER_CHARGES


@<TRIPOS>ATOM
      1 C1          5.1123   56.3607   16.6636 C.ar      1 UNK         0.0000 
      2 C2          5.9289   57.0727   17.5476 C.ar      1 UNK         0.0000 
      3 C3          6.0834   56.6260   18.8641 C.ar      1 UNK         0.0000 
      4 C4          5.4097   55.4631   19.2818 C.ar      1 UNK         0.0000 
      5 N5          4.6275   54.8119   18.3915 N.pl3     1 UNK         0.0000 
      6 C6          4.4597   55.2108   17.1145 C.ar      1 UNK         0.0000 
      7 N7          5.5140   55.0246   20.6360 N.am      1 UNK         0.0000 
      8 C8          4.6650   54.0537   21.3312 C.2       1 UNK         0.0000 
      9 O9          3.8248   53.3613   20.7581 O.2       1 UNK         0.0000 
     10 C10         4.8588   54.0248   22.8165 C.ar      1 UNK         0.0000 
     11 C11         3.7531   54.0261   23.6745 C.ar      1 UNK         0.0000 
     12 C12         3.9407   54.0969   25.0541 C.ar      1 UNK         0.0000 
     13 C13         5.2387   54.1421   25.5776 C.ar      1 UNK         0.0000 
     14 C14         6.3366   54.0972   24.7167 C.ar      1 UNK         0.0000 
     15 C15         6.1521   54.0582   23.3446 C.ar      1 UNK         0.0000 
     16 S16         5.6179   54.3149   27.3290 S.o2      1 UNK         0.0000 
     17 O17         5.9762   52.9722   27.7918 O.2       1 UNK         0.0000 
     18 O18         6.7044   55.2967   27.2817 O.2       1 UNK         0.0000 
     19 N19         4.2874   54.8946   27.9409 N.2       1 UNK         0.0000 
     20 C20         3.2263   54.1734   28.4273 C.ar      1 UNK         0.0000 
     21 C21         2.2495   54.8842   29.1344 C.ar      1 UNK         0.0000 
     22 C22         1.1153   54.2526   29.6405 C.ar      1 UNK         0.0000 
     23 C23         0.9397   52.8879   29.4327 C.ar      1 UNK         0.0000 
     24 C24         1.8944   52.1566   28.7360 C.ar      1 UNK         0.0000 
     25 C25         3.0251   52.7990   28.2397 C.ar      1 UNK         0.0000 
     26 Cl26       -0.4739   52.0975   30.0239 Cl        1 UNK         0.0000 
     27 O27         6.8046   57.2973   19.6746 O.co2     1 UNK         0.0000 
     28 H28         4.9847   56.7036   15.6467 H         1 UNK         0.0000 
     29 H29         6.4278   57.9728   17.2176 H         1 UNK         0.0000 
     30 H30         3.8062   54.5990   16.5086 H         1 UNK         0.0000 
     31 H31         6.1623   55.5439   21.2116 H         1 UNK         0.0000 
     32 H32         2.7477   54.0082   23.2763 H         1 UNK         0.0000 
     33 H33         3.0764   54.1314   25.6988 H         1 UNK         0.0000 
     34 H34         7.3424   54.1296   25.1091 H         1 UNK         0.0000 
     35 H35         7.0245   54.0624   22.7068 H         1 UNK         0.0000 
     36 H36         2.3683   55.9472   29.2911 H         1 UNK         0.0000 
     37 H37         0.3742   54.8216   30.1821 H         1 UNK         0.0000 
     38 H38         1.7537   51.0986   28.5667 H         1 UNK         0.0000 
     39 H39         3.7303   52.2078   27.6816 H         1 UNK         0.0000 
     40 H40         4.1343   53.9891   18.7179 H         1 UNK         0.0000 
@<TRIPOS>BOND
     1    1    6 ar   
     2    1   28 1    
     3    1    2 ar   
     4    2    3 ar   
     5    2   29 1    
     6    3   27 1    
     7    3    4 ar   
     8    4    7 1    
     9    4    5 ar   
    10    5   40 1    
    11    5    6 ar   
    12    6   30 1    
    13    7    8 am   BACKBONE|DICT|INTERRES
    14    7   31 1    
    15    8    9 2    
    16    8   10 1    
    17   10   15 ar   
    18   10   11 ar   
    19   11   12 ar   
    20   11   32 1    
    21   12   13 ar   
    22   12   33 1    
    23   13   14 ar   
    24   13   16 1    
    25   14   15 ar   
    26   14   34 1    
    27   15   35 1    
    28   16   17 2    
    29   16   18 2    
    30   16   19 1    
    31   19   20 1    
    32   20   25 ar   
    33   20   21 ar   
    34   21   22 ar   
    35   21   36 1    
    36   22   23 ar   
    37   22   37 1    
    38   23   24 ar   
    39   23   26 1    
    40   24   25 ar   
    41   24   38 1    
    42   25   39 1    
@<TRIPOS>SUBSTRUCTURE
     1 UNK         1 GROUP             0       ****    0 ROOT    
