@<TRIPOS>MOLECULE
ZINC51090096_4749
29   30    1
SMALL
USER_CHARGES


@<TRIPOS>ATOM
      1 C1          4.2526   54.0761   21.7527 C.ar      1 UNK         0.0000 
      2 C2          4.0922   53.9966   23.1362 C.ar      1 UNK         0.0000 
      3 C3          5.1377   54.4254   23.9798 C.ar      1 UNK         0.0000 
      4 N4          6.3049   54.8978   23.4536 N.ar      1 UNK         0.0000 
      5 C5          6.4407   54.9938   22.1061 C.ar      1 UNK         0.0000 
      6 C6          5.4375   54.5823   21.2255 C.ar      1 UNK         0.0000 
      7 N7          7.6289   55.5981   21.6817 N.pl3     1 UNK         0.0000 
      8 N8          8.0386   55.6967   20.2905 N.3       1 UNK         0.0000 
      9 C9          5.0310   54.3963   25.4966 C.2       1 UNK         0.0000 
     10 O10         6.0084   54.6565   26.2030 O.2       1 UNK         0.0000 
     11 N11         3.8128   54.0518   25.9818 N.am      1 UNK         0.0000 
     12 C12         3.4092   53.7096   27.2869 C.ar      1 UNK         0.0000 
     13 C13         4.1823   53.9076   28.4453 C.ar      1 UNK         0.0000 
     14 C14         3.7161   53.4514   29.6811 C.ar      1 UNK         0.0000 
     15 C15         2.4929   52.7895   29.7726 C.ar      1 UNK         0.0000 
     16 C16         1.7070   52.6187   28.6362 C.ar      1 UNK         0.0000 
     17 C17         2.1576   53.0831   27.4002 C.ar      1 UNK         0.0000 
     18 F18         1.3795   52.8943   26.3070 F         1 UNK         0.0000 
     19 Br19        1.9102   52.0992   31.4487 Br        1 UNK         0.0000 
     20 H20         3.4581   53.7613   21.0931 H         1 UNK         0.0000 
     21 H21         3.1614   53.6043   23.5199 H         1 UNK         0.0000 
     22 H22         5.5559   54.6744   20.1581 H         1 UNK         0.0000 
     23 H23         8.4113   55.6955   22.3282 H         1 UNK         0.0000 
     24 H24         7.9887   54.7862   19.8511 H         1 UNK         0.0000 
     25 H25         7.4680   56.3816   19.8107 H         1 UNK         0.0000 
     26 H26         3.0958   53.8874   25.2930 H         1 UNK         0.0000 
     27 H27         5.1465   54.3945   28.4129 H         1 UNK         0.0000 
     28 H28         4.3042   53.5932   30.5731 H         1 UNK         0.0000 
     29 H29         0.7550   52.1081   28.7067 H         1 UNK         0.0000 
@<TRIPOS>BOND
     1    1    6 ar   
     2    1    2 ar   
     3    1   20 1    
     4    2    3 ar   
     5    2   21 1    
     6    3    4 ar   
     7    3    9 1    
     8    4    5 ar   
     9    5    6 ar   
    10    5    7 1    
    11    6   22 1    
    12    7    8 1    
    13    7   23 1    
    14    8   24 1    
    15    8   25 1    
    16    9   10 2    
    17    9   11 am   BACKBONE|DICT|INTERRES
    18   11   12 1    
    19   11   26 1    
    20   12   17 ar   
    21   12   13 ar   
    22   13   14 ar   
    23   13   27 1    
    24   14   15 ar   
    25   14   28 1    
    26   15   16 ar   
    27   15   19 1    
    28   16   17 ar   
    29   16   29 1    
    30   17   18 1    
@<TRIPOS>SUBSTRUCTURE
     1 UNK         1 GROUP             0       ****    0 ROOT    
