@<TRIPOS>MOLECULE
ZINC23377508_2144
57   59    1
SMALL
USER_CHARGES


@<TRIPOS>ATOM
      1 C1          4.0137   54.4967   24.7107 C.ar      1 UNK         0.0000 
      2 C2          4.1575   54.3733   26.0904 C.ar      1 UNK         0.0000 
      3 C3          5.4126   54.1076   26.6422 C.ar      1 UNK         0.0000 
      4 C4          6.5270   54.0216   25.8031 C.ar      1 UNK         0.0000 
      5 C5          6.3781   54.0981   24.4221 C.ar      1 UNK         0.0000 
      6 C6          5.1162   54.3155   23.8670 C.ar      1 UNK         0.0000 
      7 C7          4.9779   54.4125   22.3464 C.3       1 UNK         0.0000 
      8 N8          4.3607   53.2544   21.6808 N.3       1 UNK         0.0000 
      9 C9          2.9273   53.1424   22.0271 C.3       1 UNK         0.0000 
     10 C10         2.1542   52.1172   21.1677 C.3       1 UNK         0.0000 
     11 N11         2.3876   52.4524   19.6774 N.4       1 UNK         0.0000 
     12 C12         3.9010   52.3235   19.4116 C.3       1 UNK         0.0000 
     13 C13         4.5985   53.4175   20.2353 C.3       1 UNK         0.0000 
     14 C14         1.5673   51.5393   18.7279 C.3       1 UNK         0.0000 
     15 C15         0.1904   52.1890   18.5246 C.2       1 UNK         0.0000 
     16 O16        -0.6519   52.0967   19.4223 O.2       1 UNK         0.0000 
     17 N17         0.0378   52.8721   17.3659 N.am      1 UNK         0.0000 
     18 C18        -0.9333   53.7568   17.0537 C.2       1 UNK         0.0000 
     19 O19        -1.9786   53.9389   17.6822 O.2       1 UNK         0.0000 
     20 N20        -0.5779   54.4892   15.9823 N.am      1 UNK         0.0000 
     21 C21        -0.9957   55.8615   15.6630 C.3       1 UNK         0.0000 
     22 C22        -2.5025   56.0598   15.3835 C.3       1 UNK         0.0000 
     23 C23        -2.8790   57.4302   15.9793 C.3       1 UNK         0.0000 
     24 C24        -1.5635   58.0754   16.4283 C.3       1 UNK         0.0000 
     25 C25        -0.6515   56.8943   16.7502 C.3       1 UNK         0.0000 
     26 C26         5.5531   53.8726   28.1444 C.3       1 UNK         0.0000 
     27 F27         6.8282   53.6970   28.4904 F         1 UNK         0.0000 
     28 F28         5.0655   54.8967   28.8385 F         1 UNK         0.0000 
     29 F29         4.8730   52.7813   28.4913 F         1 UNK         0.0000 
     30 H30         3.0381   54.7175   24.3038 H         1 UNK         0.0000 
     31 H31         3.2914   54.4670   26.7299 H         1 UNK         0.0000 
     32 H32         7.5039   53.8304   26.2170 H         1 UNK         0.0000 
     33 H33         7.2479   53.9867   23.7897 H         1 UNK         0.0000 
     34 H34         5.9764   54.5843   21.9411 H         1 UNK         0.0000 
     35 H35         4.4029   55.2966   22.0822 H         1 UNK         0.0000 
     36 H36         2.4682   54.1103   21.8218 H         1 UNK         0.0000 
     37 H37         2.7918   52.8719   23.0737 H         1 UNK         0.0000 
     38 H38         1.0835   52.2205   21.3446 H         1 UNK         0.0000 
     39 H39         2.4673   51.0857   21.3404 H         1 UNK         0.0000 
     40 H40         4.2135   51.3115   19.6817 H         1 UNK         0.0000 
     41 H41         4.0684   52.4945   18.3461 H         1 UNK         0.0000 
     42 H42         5.6672   53.3880   20.0154 H         1 UNK         0.0000 
     43 H43         4.1890   54.3798   19.9135 H         1 UNK         0.0000 
     44 H44         1.5217   50.5431   19.1697 H         1 UNK         0.0000 
     45 H45         2.1204   51.4674   17.7888 H         1 UNK         0.0000 
     46 H46         0.8136   52.8219   16.7257 H         1 UNK         0.0000 
     47 H47         0.1098   54.1005   15.3554 H         1 UNK         0.0000 
     48 H48        -0.4653   56.2041   14.7717 H         1 UNK         0.0000 
     49 H49        -3.1183   55.2891   15.8505 H         1 UNK         0.0000 
     50 H50        -2.7098   56.0012   14.3131 H         1 UNK         0.0000 
     51 H51        -3.5398   57.2958   16.8392 H         1 UNK         0.0000 
     52 H52        -3.4115   58.0566   15.2602 H         1 UNK         0.0000 
     53 H53        -1.6908   58.7372   17.2811 H         1 UNK         0.0000 
     54 H54        -1.1361   58.6678   15.6170 H         1 UNK         0.0000 
     55 H55         0.4089   57.1501   16.7672 H         1 UNK         0.0000 
     56 H56        -0.8814   56.5117   17.7463 H         1 UNK         0.0000 
     57 H57         2.1108   53.4132   19.4986 H         1 UNK         0.0000 
@<TRIPOS>BOND
     1    1    6 ar   
     2    1    2 ar   
     3    1   30 1    
     4    2    3 ar   
     5    2   31 1    
     6    3    4 ar   
     7    3   26 1    
     8    4    5 ar   
     9    4   32 1    
    10    5    6 ar   
    11    5   33 1    
    12    6    7 1    
    13    7    8 1    
    14    7   34 1    
    15    7   35 1    
    16    8   13 1    
    17    8    9 1    
    18    9   10 1    
    19    9   36 1    
    20    9   37 1    
    21   10   11 1    
    22   10   38 1    
    23   10   39 1    
    24   11   12 1    
    25   11   14 1    
    26   11   57 1    
    27   12   13 1    
    28   12   40 1    
    29   12   41 1    
    30   13   42 1    
    31   13   43 1    
    32   14   15 1    
    33   14   44 1    
    34   14   45 1    
    35   15   16 2    
    36   15   17 am   BACKBONE|DICT|INTERRES
    37   17   18 am   BACKBONE|DICT|INTERRES
    38   17   46 1    
    39   18   19 2    
    40   18   20 am   BACKBONE|DICT|INTERRES
    41   20   21 1    
    42   20   47 1    
    43   21   25 1    
    44   21   22 1    
    45   21   48 1    
    46   22   23 1    
    47   22   49 1    
    48   22   50 1    
    49   23   24 1    
    50   23   51 1    
    51   23   52 1    
    52   24   25 1    
    53   24   53 1    
    54   24   54 1    
    55   25   55 1    
    56   25   56 1    
    57   26   27 1    
    58   26   28 1    
    59   26   29 1    
@<TRIPOS>SUBSTRUCTURE
     1 UNK         1 GROUP             0       ****    0 ROOT    
