ZINC13137740_472
                    3D
 Schrodinger Suite 2024-2.
 59 62  0  0  1  0            999 V2000
    0.7138   52.6769   31.7495 C   0  0  0  0  0  0
    1.1649   52.7401   30.3959 O   0  0  0  0  0  0
    0.3052   52.3828   29.3689 C   0  0  0  0  0  0
   -0.8959   51.6967   29.6231 C   0  0  0  0  0  0
   -1.7466   51.3005   28.5940 C   0  0  0  0  0  0
   -1.4435   51.6449   27.2832 C   0  0  0  0  0  0
   -0.2605   52.3208   27.0090 C   0  0  0  0  0  0
    0.6468   52.6834   28.0266 C   0  0  0  0  0  0
    1.9464   53.3882   27.6582 C   0  0  0  0  0  0
    2.6177   53.9962   28.4957 O   0  0  0  0  0  0
    2.2666   53.3025   26.3479 N   0  0  0  0  0  0
    3.3638   53.7692   25.6376 C   0  0  0  0  0  0
    3.4738   53.7264   24.2266 C   0  0  0  0  0  0
    4.7660   54.1477   23.8268 C   0  0  0  0  0  0
    5.5612   54.5591   24.8737 C   0  0  0  0  0  0
    4.7950   54.4237   26.4106 S   0  0  0  0  0  0
    6.9208   55.0199   24.4405 C   0  0  0  0  0  0
    6.9566   54.5757   22.9708 C   0  0  0  0  0  0
    5.5087   54.3259   22.5188 C   0  0  0  0  0  0
    2.3992   53.2980   23.3326 C   0  0  0  0  0  0
    1.2918   52.9557   23.7427 O   0  0  0  0  0  0
    2.6698   53.2971   22.0288 N   0  0  0  0  0  0
   -2.5575   51.2085   25.9503 S   0  0  0  0  0  0
   -3.9163   51.4382   26.4539 O   0  0  0  0  0  0
   -2.1075   51.9061   24.7394 O   0  0  0  0  0  0
   -2.3669   49.4629   25.6819 N   0  0  0  0  0  0
   -0.9882   48.9009   25.6585 C   0  0  0  0  0  0
   -0.1875   49.2206   24.3832 C   0  0  0  0  0  0
   -0.6776   48.5193   23.1050 C   0  0  0  0  0  0
   -2.1571   48.7371   22.7348 C   0  0  0  0  0  0
   -3.1399   48.0313   23.6911 C   0  0  0  0  0  0
   -3.4931   48.7866   24.9897 C   0  0  0  0  0  0
    1.5376   52.8969   32.4246 H   0  0  0  0  0  0
   -0.0837   53.3981   31.9377 H   0  0  0  0  0  0
    0.3671   51.6903   32.0403 H   0  0  0  0  0  0
   -1.1907   51.4135   30.6223 H   0  0  0  0  0  0
   -2.6427   50.7383   28.8217 H   0  0  0  0  0  0
   -0.0724   52.5593   25.9734 H   0  0  0  0  0  0
    1.5692   52.8886   25.7441 H   0  0  0  0  0  0
    7.7200   54.5355   24.9965 H   0  0  0  0  0  0
    7.0521   56.0957   24.5396 H   0  0  0  0  0  0
    7.5243   53.6485   22.8887 H   0  0  0  0  0  0
    7.4684   55.3035   22.3390 H   0  0  0  0  0  0
    5.1414   55.1825   21.9526 H   0  0  0  0  0  0
    5.4602   53.4545   21.8635 H   0  0  0  0  0  0
    3.5667   53.5994   21.6849 H   0  0  0  0  0  0
    1.9350   53.0687   21.3730 H   0  0  0  0  0  0
   -0.4465   49.3660   26.4814 H   0  0  0  0  0  0
   -1.0083   47.8452   25.9318 H   0  0  0  0  0  0
   -0.1515   50.2979   24.2239 H   0  0  0  0  0  0
    0.8485   48.9247   24.5525 H   0  0  0  0  0  0
   -0.0546   48.8463   22.2709 H   0  0  0  0  0  0
   -0.4957   47.4487   23.2056 H   0  0  0  0  0  0
   -2.3153   48.3454   21.7277 H   0  0  0  0  0  0
   -2.3820   49.8041   22.6765 H   0  0  0  0  0  0
   -2.7433   47.0481   23.9458 H   0  0  0  0  0  0
   -4.0708   47.8286   23.1611 H   0  0  0  0  0  0
   -3.8313   48.0078   25.6747 H   0  0  0  0  0  0
   -4.3469   49.4587   24.8972 H   0  0  0  0  0  0
  1  2  1  0  0  0
  1 33  1  0  0  0
  1 34  1  0  0  0
  1 35  1  0  0  0
  2  3  1  0  0  0
  3  8  2  0  0  0
  3  4  1  0  0  0
  4  5  2  0  0  0
  4 36  1  0  0  0
  5  6  1  0  0  0
  5 37  1  0  0  0
  6  7  2  0  0  0
  6 23  1  0  0  0
  7  8  1  0  0  0
  7 38  1  0  0  0
  8  9  1  0  0  0
  9 10  2  0  0  0
  9 11  1  0  0  0
 11 12  1  0  0  0
 11 39  1  0  0  0
 12 16  1  0  0  0
 12 13  2  0  0  0
 13 14  1  0  0  0
 13 20  1  0  0  0
 14 19  1  0  0  0
 14 15  2  0  0  0
 15 16  1  0  0  0
 15 17  1  0  0  0
 17 18  1  0  0  0
 17 40  1  0  0  0
 17 41  1  0  0  0
 18 19  1  0  0  0
 18 42  1  0  0  0
 18 43  1  0  0  0
 19 44  1  0  0  0
 19 45  1  0  0  0
 20 21  2  0  0  0
 20 22  1  0  0  0
 22 46  1  0  0  0
 22 47  1  0  0  0
 23 24  2  0  0  0
 23 25  2  0  0  0
 23 26  1  0  0  0
 26 32  1  0  0  0
 26 27  1  0  0  0
 27 28  1  0  0  0
 27 48  1  0  0  0
 27 49  1  0  0  0
 28 29  1  0  0  0
 28 50  1  0  0  0
 28 51  1  0  0  0
 29 30  1  0  0  0
 29 52  1  0  0  0
 29 53  1  0  0  0
 30 31  1  0  0  0
 30 54  1  0  0  0
 30 55  1  0  0  0
 31 32  1  0  0  0
 31 56  1  0  0  0
 31 57  1  0  0  0
 32 58  1  0  0  0
 32 59  1  0  0  0
M  END
> <i_i_glide_confnum>
624

> <i_i_glide_lignum>
473

> <i_i_glide_posenum>
324

> <i_i_glide_rotatable_bonds>
7

> <i_m_Source_File_Index>
3850

> <b_m_subgroup_collapsed>
0

> <r_i_docking_score>
-3.57442

> <r_i_glide_ecoul>
-4.89718

> <r_i_glide_eff_state_penalty>
0

> <r_i_glide_einternal>
5.30934

> <r_i_glide_emodel>
-51.225

> <r_i_glide_energy>
-47.8886

> <r_i_glide_erotb>
0.444065

> <r_i_glide_esite>
-0.136657

> <r_i_glide_evdw>
-42.9914

> <r_i_glide_gscore>
-3.57442

> <r_i_glide_hbond>
0

> <r_i_glide_ligand_efficiency>
-0.111701

> <r_i_glide_ligand_efficiency_ln>
-0.80041

> <r_i_glide_ligand_efficiency_sa>
-0.354627

> <r_i_glide_lipo>
-1.82764

> <r_i_glide_metal>
0

> <r_i_glide_rewards>
0.829959

> <s_i_glide_gridfile>
wee1_glide-grid

> <s_m_Source_File>
wee1_decoys_glide_SP.sdf

> <s_m_Source_Path>
/Users/zhangxujun/Desktop

> <s_m_entry_id>
4125

> <s_m_entry_name>
wee1_decoys_glide_SP.3850

> <s_m_subgroup_title>
wee1_decoys_glide_SP

> <s_m_subgroupid>
wee1_decoys_glide_SP


$$$$
