@<TRIPOS>MOLECULE
ZINC54108327_6173
32   35    1
SMALL
USER_CHARGES


@<TRIPOS>ATOM
      1 C1         -0.5129   51.6716   28.8976 C.ar      1 UNK         0.0000 
      2 C2          0.4319   51.8818   27.8959 C.ar      1 UNK         0.0000 
      3 C3          1.4162   52.8835   28.0747 C.ar      1 UNK         0.0000 
      4 C4          2.4500   53.1230   27.1336 C.ar      1 UNK         0.0000 
      5 C5          3.4240   54.0945   27.3867 C.ar      1 UNK         0.0000 
      6 C6          3.3073   54.8965   28.5273 C.ar      1 UNK         0.0000 
      7 C7          2.2920   54.7042   29.4555 C.ar      1 UNK         0.0000 
      8 C8          1.3567   53.6677   29.2677 C.ar      1 UNK         0.0000 
      9 N9          0.4343   53.4396   30.2440 N.ar      1 UNK         0.0000 
     10 C10        -0.4559   52.4361   30.0570 C.ar      1 UNK         0.0000 
     11 N11         4.5041   54.2955   26.4830 N.pl3     1 UNK         0.0000 
     12 C12         4.4751   54.2735   25.0932 C.ar      1 UNK         0.0000 
     13 C13         3.4604   54.0961   24.1408 C.ar      1 UNK         0.0000 
     14 C14         3.8493   54.0966   22.7960 C.ar      1 UNK         0.0000 
     15 C15         5.1759   54.2847   22.4069 C.ar      1 UNK         0.0000 
     16 C16         6.1806   54.4947   23.3495 C.ar      1 UNK         0.0000 
     17 C17         5.8263   54.4924   24.7031 C.ar      1 UNK         0.0000 
     18 N18         6.6379   54.6670   25.7847 N.2       1 UNK         0.0000 
     19 C19         5.8435   54.4979   26.8032 C.ar      1 UNK         0.0000 
     20 N20         6.3029   54.4966   28.0817 N.pl3     1 UNK         0.0000 
     21 F21         5.4937   54.2842   21.0931 F         1 UNK         0.0000 
     22 H22        -1.2583   50.8966   28.7958 H         1 UNK         0.0000 
     23 H23         0.4325   51.2746   27.0028 H         1 UNK         0.0000 
     24 H24         2.5039   52.4970   26.2548 H         1 UNK         0.0000 
     25 H25         4.0058   55.6963   28.7100 H         1 UNK         0.0000 
     26 H26         2.2223   55.3331   30.3315 H         1 UNK         0.0000 
     27 H27        -1.1314   52.2320   30.8763 H         1 UNK         0.0000 
     28 H28         2.4281   53.9548   24.4209 H         1 UNK         0.0000 
     29 H29         3.1022   53.9561   22.0282 H         1 UNK         0.0000 
     30 H30         7.2039   54.6523   23.0423 H         1 UNK         0.0000 
     31 H31         7.1095   55.0470   28.3686 H         1 UNK         0.0000 
     32 H32         5.7502   54.1035   28.8281 H         1 UNK         0.0000 
@<TRIPOS>BOND
     1    1   10 ar   
     2    1    2 ar   
     3    1   22 1    
     4    2    3 ar   
     5    2   23 1    
     6    3    8 ar   
     7    3    4 ar   
     8    4    5 ar   
     9    4   24 1    
    10    5    6 ar   
    11    5   11 1    
    12    6    7 ar   
    13    6   25 1    
    14    7    8 ar   
    15    7   26 1    
    16    8    9 ar   
    17    9   10 ar   
    18   10   27 1    
    19   11   19 ar   
    20   11   12 ar   
    21   12   17 ar   
    22   12   13 ar   
    23   13   14 ar   
    24   13   28 1    
    25   14   15 ar   
    26   14   29 1    
    27   15   16 ar   
    28   15   21 1    
    29   16   17 ar   
    30   16   30 1    
    31   17   18 ar   
    32   18   19 ar   
    33   19   20 1    
    34   20   31 1    
    35   20   32 1    
@<TRIPOS>SUBSTRUCTURE
     1 UNK         1 GROUP             0       ****    0 ROOT    
