@<TRIPOS>MOLECULE
ZINC59425667_5621
49   51    1
SMALL
USER_CHARGES


@<TRIPOS>ATOM
      1 C1          6.9016   54.3235   27.4808 C.3       1 UNK         0.0000 
      2 O2          6.6173   55.2950   26.4832 O.3       1 UNK         0.0000 
      3 C3          5.9070   54.8540   25.3904 C.ar      1 UNK         0.0000 
      4 C4          6.5209   54.9996   24.1457 C.ar      1 UNK         0.0000 
      5 C5          5.8720   54.6311   22.9601 C.ar      1 UNK         0.0000 
      6 C6          4.5883   54.0890   23.0507 C.ar      1 UNK         0.0000 
      7 C7          3.9603   53.9484   24.2847 C.ar      1 UNK         0.0000 
      8 C8          4.6038   54.3254   25.4775 C.ar      1 UNK         0.0000 
      9 O9          4.0067   54.2064   26.7242 O.3       1 UNK         0.0000 
     10 C10         2.7573   53.5155   26.8176 C.3       1 UNK         0.0000 
     11 C11         2.2899   53.3814   28.2625 C.ar      1 UNK         0.0000 
     12 C12         1.0229   53.8645   28.6097 C.ar      1 UNK         0.0000 
     13 C13         0.5246   53.6964   29.8991 C.ar      1 UNK         0.0000 
     14 C14         1.2946   53.0480   30.8593 C.ar      1 UNK         0.0000 
     15 C15         2.5617   52.5686   30.5299 C.ar      1 UNK         0.0000 
     16 C16         3.0637   52.7325   29.2387 C.ar      1 UNK         0.0000 
     17 Cl17        4.6392   52.1202   28.8919 Cl        1 UNK         0.0000 
     18 Cl18        0.7044   52.8966   32.4700 Cl        1 UNK         0.0000 
     19 C19         6.4379   54.8936   21.6349 C.2       1 UNK         0.0000 
     20 N20         7.6035   55.3831   21.4463 N.2       1 UNK         0.0000 
     21 N21         8.0223   55.7560   20.1894 N.am      1 UNK         0.0000 
     22 C22         7.3325   56.4655   19.2532 C.2       1 UNK         0.0000 
     23 O23         6.1025   56.4941   19.1590 O.2       1 UNK         0.0000 
     24 C24         8.1742   57.3539   18.3673 C.ar      1 UNK         0.0000 
     25 C25         9.5184   57.0629   18.0903 C.ar      1 UNK         0.0000 
     26 C26        10.2877   57.9453   17.3387 C.ar      1 UNK         0.0000 
     27 C27         9.7336   59.1335   16.8434 C.ar      1 UNK         0.0000 
     28 C28         8.3825   59.4051   17.0930 C.ar      1 UNK         0.0000 
     29 C29         7.6120   58.5233   17.8427 C.ar      1 UNK         0.0000 
     30 N30        10.5661   60.0929   16.0780 N.pl3     1 UNK         0.0000 
     31 O31        11.7048   59.7593   15.7617 O.co2     1 UNK         0.0000 
     32 O32        10.0930   61.1930   15.8045 O.co2     1 UNK         0.0000 
     33 H33         6.1998   54.4292   28.3078 H         1 UNK         0.0000 
     34 H34         6.8668   53.2942   27.1152 H         1 UNK         0.0000 
     35 H35         7.9040   54.4965   27.8734 H         1 UNK         0.0000 
     36 H36         7.5039   55.4456   24.1069 H         1 UNK         0.0000 
     37 H37         4.0444   53.8053   22.1595 H         1 UNK         0.0000 
     38 H38         2.9622   53.5409   24.2837 H         1 UNK         0.0000 
     39 H39         2.0017   54.0473   26.2364 H         1 UNK         0.0000 
     40 H40         2.8391   52.5077   26.4051 H         1 UNK         0.0000 
     41 H41         0.4102   54.3644   27.8778 H         1 UNK         0.0000 
     42 H42        -0.4543   54.0734   30.1552 H         1 UNK         0.0000 
     43 H43         3.1635   52.0898   31.2889 H         1 UNK         0.0000 
     44 H44         5.7806   54.6400   20.8065 H         1 UNK         0.0000 
     45 H45         9.0186   55.9180   20.1702 H         1 UNK         0.0000 
     46 H46         9.9930   56.1649   18.4653 H         1 UNK         0.0000 
     47 H47        11.3252   57.7039   17.1558 H         1 UNK         0.0000 
     48 H48         7.9135   60.3083   16.7197 H         1 UNK         0.0000 
     49 H49         6.5775   58.7814   18.0310 H         1 UNK         0.0000 
@<TRIPOS>BOND
     1    1    2 1    
     2    1   33 1    
     3    1   34 1    
     4    1   35 1    
     5    2    3 1    
     6    3    8 ar   
     7    3    4 ar   
     8    4    5 ar   
     9    4   36 1    
    10    5    6 ar   
    11    5   19 1    
    12    6    7 ar   
    13    6   37 1    
    14    7    8 ar   
    15    7   38 1    
    16    8    9 1    
    17    9   10 1    
    18   10   11 1    
    19   10   39 1    
    20   10   40 1    
    21   11   16 ar   
    22   11   12 ar   
    23   12   13 ar   
    24   12   41 1    
    25   13   14 ar   
    26   13   42 1    
    27   14   15 ar   
    28   14   18 1    
    29   15   16 ar   
    30   15   43 1    
    31   16   17 1    
    32   19   20 2    
    33   19   44 1    
    34   20   21 1    
    35   21   22 am   BACKBONE|DICT|INTERRES
    36   21   45 1    
    37   22   23 2    
    38   22   24 1    
    39   24   29 ar   
    40   24   25 ar   
    41   25   26 ar   
    42   25   46 1    
    43   26   27 ar   
    44   26   47 1    
    45   27   28 ar   
    46   27   30 1    
    47   28   29 ar   
    48   28   48 1    
    49   29   49 1    
    50   30   31 2    
    51   30   32 1    
@<TRIPOS>SUBSTRUCTURE
     1 UNK         1 GROUP             0       ****    0 ROOT    
