@<TRIPOS>MOLECULE
ZINC50360496_4451
28   30    1
SMALL
USER_CHARGES


@<TRIPOS>ATOM
      1 C1          1.3275   53.1412   29.0312 C.2       1 UNK         0.0000 
      2 C2          1.8999   53.9259   28.0430 C.2       1 UNK         0.0000 
      3 O3          1.9818   55.2084   28.4820 O.3       1 UNK         0.0000 
      4 C4          1.4939   55.2332   29.7446 C.2       1 UNK         0.0000 
      5 C5          1.0699   53.9708   30.1241 C.2       1 UNK         0.0000 
      6 Br6         0.3047   53.4780   31.7933 Br        1 UNK         0.0000 
      7 Br7         1.5041   56.8966   30.6600 Br        1 UNK         0.0000 
      8 C8          2.3913   53.6605   26.6403 C.3       1 UNK         0.0000 
      9 N9          3.7190   54.2245   26.4282 N.pl3     1 UNK         0.0000 
     10 C10         4.3258   54.2852   25.1636 C.ar      1 UNK         0.0000 
     11 C11         3.6183   53.9911   23.9811 C.ar      1 UNK         0.0000 
     12 C12         4.2797   54.0972   22.7597 C.ar      1 UNK         0.0000 
     13 C13         5.5817   54.4958   22.6924 C.ar      1 UNK         0.0000 
     14 C14         6.3081   54.7918   23.8397 C.ar      1 UNK         0.0000 
     15 C15         5.6788   54.6800   25.0826 C.ar      1 UNK         0.0000 
     16 Br16        6.7032   55.0887   26.6429 Br        1 UNK         0.0000 
     17 N17         5.9038   54.5362   21.3586 N.pl3     1 UNK         0.0000 
     18 H18         6.7955   54.8211   20.9810 H         1 UNK         0.0000 
     19 C19         4.8614   54.1699   20.5864 C.ar      1 UNK         0.0000 
     20 O20         4.8222   54.1135   19.3633 O.2       1 UNK         0.0000 
     21 N21         3.8716   53.9029   21.4617 N.pl3     1 UNK         0.0000 
     22 H22         2.9380   53.6499   21.1687 H         1 UNK         0.0000 
     23 H23         1.1198   52.0827   28.9705 H         1 UNK         0.0000 
     24 H24         2.4224   52.5892   26.4359 H         1 UNK         0.0000 
     25 H25         1.6797   54.0968   25.9394 H         1 UNK         0.0000 
     26 H26         4.3374   54.2406   27.2288 H         1 UNK         0.0000 
     27 H27         2.5822   53.6911   24.0039 H         1 UNK         0.0000 
     28 H28         7.3326   55.1161   23.7829 H         1 UNK         0.0000 
@<TRIPOS>BOND
     1    1    5 1    
     2    1    2 2    
     3    1   23 1    
     4    2    3 1    
     5    2    8 1    
     6    3    4 1    
     7    4    5 2    
     8    4    7 1    
     9    5    6 1    
    10    8    9 1    
    11    8   24 1    
    12    8   25 1    
    13    9   10 1    
    14    9   26 1    
    15   10   15 ar   
    16   10   11 ar   
    17   11   12 ar   
    18   11   27 1    
    19   12   21 ar   
    20   12   13 ar   
    21   13   14 ar   
    22   13   17 ar   
    23   14   15 ar   
    24   14   28 1    
    25   15   16 1    
    26   17   18 1    
    27   17   19 ar   
    28   19   20 2    
    29   19   21 ar   
    30   21   22 1    
@<TRIPOS>SUBSTRUCTURE
     1 UNK         1 GROUP             0       ****    0 ROOT    
