@<TRIPOS>MOLECULE
ZINC16941194_86
64   67    1
SMALL
USER_CHARGES


@<TRIPOS>ATOM
      1 C1          4.6483   54.2340   26.2756 C.ar      1 UNK         0.0000 
      2 C2          5.9959   54.4974   26.0419 C.ar      1 UNK         0.0000 
      3 C3          6.4530   54.6313   24.7325 C.ar      1 UNK         0.0000 
      4 C4          5.5709   54.4966   23.6541 C.ar      1 UNK         0.0000 
      5 C5          4.2208   54.2087   23.9046 C.ar      1 UNK         0.0000 
      6 C6          3.7588   54.0946   25.2133 C.ar      1 UNK         0.0000 
      7 C7          6.0990   54.7094   22.2874 C.2       1 UNK         0.0000 
      8 C8          5.4140   54.6189   21.1236 C.2       1 UNK         0.0000 
      9 C9          6.0346   54.8969   19.8373 C.2       1 UNK         0.0000 
     10 O10         7.1837   55.3455   19.7775 O.2       1 UNK         0.0000 
     11 N11         5.3083   54.6533   18.7092 N.am      1 UNK         0.0000 
     12 C12         3.9284   54.1305   18.6184 C.3       1 UNK         0.0000 
     13 H13         3.2892   54.7083   19.2823 H         1 UNK         0.0000 
     14 C14         3.5509   54.4471   17.1645 C.3       1 UNK         0.0000 
     15 C15         4.8635   54.3099   16.4158 C.3       1 UNK         0.0000 
     16 C16         5.8943   54.8934   17.3796 C.3       1 UNK         0.0000 
     17 N17         3.8352   52.6980   18.9018 N.am      1 UNK         0.0000 
     18 C18         2.7048   52.0050   19.1065 C.2       1 UNK         0.0000 
     19 O19         1.5787   52.4967   19.1508 O.2       1 UNK         0.0000 
     20 N20         2.9840   50.7072   19.2818 N.am      1 UNK         0.0000 
     21 C21         2.0883   49.5951   19.6398 C.3       1 UNK         0.0000 
     22 H22         2.7048   48.7653   19.9943 H         1 UNK         0.0000 
     23 N23         1.0603   49.8810   20.6619 N.am      1 UNK         0.0000 
     24 C24        -0.3000   49.8953   20.0944 C.3       1 UNK         0.0000 
     25 C25        -0.0854   49.7749   18.5868 C.3       1 UNK         0.0000 
     26 C26         1.2643   49.0980   18.4442 C.3       1 UNK         0.0000 
     27 C27         1.3825   50.1297   21.9626 C.2       1 UNK         0.0000 
     28 O28         2.5518   50.0989   22.3567 O.2       1 UNK         0.0000 
     29 C29         0.2921   50.4346   22.8674 C.2       1 UNK         0.0000 
     30 C30         0.4914   50.8577   24.1348 C.2       1 UNK         0.0000 
     31 C31        -0.5841   51.1976   25.0863 C.ar      1 UNK         0.0000 
     32 C32        -0.3481   51.0417   26.4560 C.ar      1 UNK         0.0000 
     33 C33        -1.3625   51.2972   27.3749 C.ar      1 UNK         0.0000 
     34 C34        -2.6170   51.6975   26.9261 C.ar      1 UNK         0.0000 
     35 C35        -2.8595   51.8790   25.5677 C.ar      1 UNK         0.0000 
     36 C36        -1.8452   51.6277   24.6480 C.ar      1 UNK         0.0000 
     37 H37         4.2922   54.1317   27.2898 H         1 UNK         0.0000 
     38 H38         6.6781   54.6004   26.8718 H         1 UNK         0.0000 
     39 H39         7.4972   54.8500   24.5576 H         1 UNK         0.0000 
     40 H40         3.5123   54.0983   23.0978 H         1 UNK         0.0000 
     41 H41         2.7179   53.8830   25.4030 H         1 UNK         0.0000 
     42 H42         7.1490   54.9769   22.2494 H         1 UNK         0.0000 
     43 H43         4.3739   54.3395   21.1267 H         1 UNK         0.0000 
     44 H44         3.1884   55.4738   17.0875 H         1 UNK         0.0000 
     45 H45         2.7678   53.7995   16.7649 H         1 UNK         0.0000 
     46 H46         4.8689   54.8066   15.4449 H         1 UNK         0.0000 
     47 H47         5.0769   53.2537   16.2366 H         1 UNK         0.0000 
     48 H48         5.9928   55.9676   17.2064 H         1 UNK         0.0000 
     49 H49         6.8547   54.3907   17.2532 H         1 UNK         0.0000 
     50 H50         4.7044   52.1798   18.8890 H         1 UNK         0.0000 
     51 H51         3.8882   50.4233   18.9127 H         1 UNK         0.0000 
     52 H52        -0.8668   49.0348   20.4498 H         1 UNK         0.0000 
     53 H53        -0.8259   50.8277   20.3080 H         1 UNK         0.0000 
     54 H54        -0.8948   49.2391   18.0892 H         1 UNK         0.0000 
     55 H55        -0.0414   50.7678   18.1368 H         1 UNK         0.0000 
     56 H56         1.7414   49.2997   17.4832 H         1 UNK         0.0000 
     57 H57         1.1369   48.0153   18.5079 H         1 UNK         0.0000 
     58 H58        -0.7147   50.3095   22.5010 H         1 UNK         0.0000 
     59 H59         1.5038   50.9794   24.5035 H         1 UNK         0.0000 
     60 H60         0.6103   50.6913   26.8139 H         1 UNK         0.0000 
     61 H61        -1.1887   51.1395   28.4303 H         1 UNK         0.0000 
     62 H62        -3.4073   51.8702   27.6406 H         1 UNK         0.0000 
     63 H63        -3.8339   52.1980   25.2301 H         1 UNK         0.0000 
     64 H64        -2.0522   51.7629   23.5969 H         1 UNK         0.0000 
@<TRIPOS>BOND
     1    1    6 ar   
     2    1    2 ar   
     3    1   37 1    
     4    2    3 ar   
     5    2   38 1    
     6    3    4 ar   
     7    3   39 1    
     8    4    5 ar   
     9    4    7 1    
    10    5    6 ar   
    11    5   40 1    
    12    6   41 1    
    13    7    8 2    
    14    7   42 1    
    15    8    9 1    
    16    8   43 1    
    17    9   10 2    
    18    9   11 am   BACKBONE|DICT|INTERRES
    19   11   16 1    
    20   11   12 1    
    21   12   13 1    
    22   12   14 1    
    23   12   17 1    
    24   14   15 1    
    25   14   44 1    
    26   14   45 1    
    27   15   16 1    
    28   15   46 1    
    29   15   47 1    
    30   16   48 1    
    31   16   49 1    
    32   17   18 am   BACKBONE|DICT|INTERRES
    33   17   50 1    
    34   18   19 2    
    35   18   20 am   BACKBONE|DICT|INTERRES
    36   20   21 1    
    37   20   51 1    
    38   21   22 1    
    39   21   26 1    
    40   21   23 1    
    41   23   24 1    
    42   23   27 am   BACKBONE|DICT|INTERRES
    43   24   25 1    
    44   24   52 1    
    45   24   53 1    
    46   25   26 1    
    47   25   54 1    
    48   25   55 1    
    49   26   56 1    
    50   26   57 1    
    51   27   28 2    
    52   27   29 1    
    53   29   30 2    
    54   29   58 1    
    55   30   31 1    
    56   30   59 1    
    57   31   36 ar   
    58   31   32 ar   
    59   32   33 ar   
    60   32   60 1    
    61   33   34 ar   
    62   33   61 1    
    63   34   35 ar   
    64   34   62 1    
    65   35   36 ar   
    66   35   63 1    
    67   36   64 1    
@<TRIPOS>SUBSTRUCTURE
     1 UNK         1 GROUP             0       ****    0 ROOT    
