@<TRIPOS>MOLECULE
ZINC08918719_3454
65   68    1
SMALL
USER_CHARGES


@<TRIPOS>ATOM
      1 C1          4.1590   53.8262   29.4264 C.3       1 UNK         0.0000 
      2 C2          2.8937   53.7774   28.5294 C.3       1 UNK         0.0000 
      3 C3          2.0428   52.5702   29.0051 C.3       1 UNK         0.0000 
      4 C4          2.0779   55.0726   28.7759 C.3       1 UNK         0.0000 
      5 C5          3.3043   53.5975   27.0162 C.3       1 UNK         0.0000 
      6 H6          3.9450   52.7140   27.0011 H         1 UNK         0.0000 
      7 C7          4.1184   54.7825   26.4380 C.3       1 UNK         0.0000 
      8 C8          4.7940   54.4179   25.1043 C.3       1 UNK         0.0000 
      9 C9          3.7692   53.8038   24.1421 C.2       1 UNK         0.0000 
     10 C10         2.5404   53.3297   24.6146 C.2       1 UNK         0.0000 
     11 S11         1.5360   52.7484   23.3373 S.3       1 UNK         0.0000 
     12 C12         2.7971   53.0106   22.1557 C.2       1 UNK         0.0000 
     13 C13         3.9003   53.6894   22.7289 C.2       1 UNK         0.0000 
     14 C14         5.1054   54.0944   22.0194 C.2       1 UNK         0.0000 
     15 O15         6.1993   54.0957   22.5851 O.2       1 UNK         0.0000 
     16 N16         4.8922   54.4984   20.7479 N.am      1 UNK         0.0000 
     17 C17         5.7842   55.1005   19.8385 C.ar      1 UNK         0.0000 
     18 C18         7.1572   55.2968   20.0700 C.ar      1 UNK         0.0000 
     19 C19         7.9444   55.9291   19.1114 C.ar      1 UNK         0.0000 
     20 C20         7.3682   56.3703   17.9236 C.ar      1 UNK         0.0000 
     21 C21         6.0100   56.1768   17.6821 C.ar      1 UNK         0.0000 
     22 C22         5.2212   55.5413   18.6382 C.ar      1 UNK         0.0000 
     23 Cl23        8.3451   57.1638   16.7412 Cl        1 UNK         0.0000 
     24 N24         2.7002   52.5168   20.8461 N.am      1 UNK         0.0000 
     25 C25         1.5936   52.0964   20.1872 C.2       1 UNK         0.0000 
     26 O26         0.4417   52.1848   20.6136 O.2       1 UNK         0.0000 
     27 C27         1.8014   51.4741   18.7941 C.3       1 UNK         0.0000 
     28 C28         2.0509   48.9234   19.2488 C.3       1 UNK         0.0000 
     29 C29         1.3366   49.0037   20.5803 C.2       1 UNK         0.0000 
     30 C30         0.0011   48.9953   20.9623 C.2       1 UNK         0.0000 
     31 C31        -0.0289   49.1940   22.3440 C.2       1 UNK         0.0000 
     32 C32         1.2910   49.2971   22.7477 C.2       1 UNK         0.0000 
     33 O33         2.1188   49.1793   21.6780 O.3       1 UNK         0.0000 
     34 C34         2.0909   53.3289   26.0729 C.3       1 UNK         0.0000 
     35 H35         4.7345   54.7427   29.2886 H         1 UNK         0.0000 
     36 H36         3.9043   53.7816   30.4847 H         1 UNK         0.0000 
     37 H37         4.8249   52.9854   29.2270 H         1 UNK         0.0000 
     38 H38         1.0640   52.5428   28.5249 H         1 UNK         0.0000 
     39 H39         2.5387   51.6216   28.7936 H         1 UNK         0.0000 
     40 H40         1.8576   52.6034   30.0797 H         1 UNK         0.0000 
     41 H41         1.1487   55.0928   28.2063 H         1 UNK         0.0000 
     42 H42         1.8021   55.1764   29.8259 H         1 UNK         0.0000 
     43 H43         2.6410   55.9685   28.5129 H         1 UNK         0.0000 
     44 H44         3.5070   55.6782   26.3523 H         1 UNK         0.0000 
     45 H45         4.9197   55.0570   27.1230 H         1 UNK         0.0000 
     46 H46         5.6032   53.7058   25.2764 H         1 UNK         0.0000 
     47 H47         5.2543   55.3125   24.6842 H         1 UNK         0.0000 
     48 H48         3.9299   54.4797   20.4415 H         1 UNK         0.0000 
     49 H49         7.6483   54.9728   20.9731 H         1 UNK         0.0000 
     50 H50         9.0010   56.0745   19.2915 H         1 UNK         0.0000 
     51 H51         5.5678   56.5230   16.7584 H         1 UNK         0.0000 
     52 H52         4.1667   55.4061   18.4417 H         1 UNK         0.0000 
     53 H53         3.5691   52.4917   20.3323 H         1 UNK         0.0000 
     54 H54         0.8697   51.1491   18.3270 H         1 UNK         0.0000 
     55 H55         2.3192   52.1747   18.1372 H         1 UNK         0.0000 
     56 H56         1.4049   48.6835   18.4030 H         1 UNK         0.0000 
     57 H57         2.8752   48.2078   19.2441 H         1 UNK         0.0000 
     58 H58        -0.8533   48.8860   20.3107 H         1 UNK         0.0000 
     59 H59        -0.9042   49.2526   22.9747 H         1 UNK         0.0000 
     60 H60         1.7724   49.4368   23.7061 H         1 UNK         0.0000 
     61 H61         1.3360   54.0968   26.2084 H         1 UNK         0.0000 
     62 H62         1.6300   52.3711   26.3114 H         1 UNK         0.0000 
     63 N63         2.7042   50.2768   18.8814 N.4       1 UNK         0.0000 
     64 H64         3.1550   50.1170   17.9770 H         1 UNK         0.0000 
     65 H65         3.5016   50.4397   19.4800 H         1 UNK         0.0000 
@<TRIPOS>BOND
     1    1    2 1    
     2    1   35 1    
     3    1   36 1    
     4    1   37 1    
     5    2    3 1    
     6    2    4 1    
     7    2    5 1    
     8    3   38 1    
     9    3   39 1    
    10    3   40 1    
    11    4   41 1    
    12    4   42 1    
    13    4   43 1    
    14    5    6 1    
    15    5   34 1    
    16    5    7 1    
    17    7    8 1    
    18    7   44 1    
    19    7   45 1    
    20    8    9 1    
    21    8   46 1    
    22    8   47 1    
    23    9   13 1    
    24    9   10 2    
    25   10   11 1    
    26   10   34 1    
    27   11   12 1    
    28   12   13 2    
    29   12   24 am   BACKBONE|DICT|INTERRES
    30   13   14 1    
    31   14   15 2    
    32   14   16 am   BACKBONE|DICT|INTERRES
    33   16   17 1    
    34   16   48 1    
    35   17   22 ar   
    36   17   18 ar   
    37   18   19 ar   
    38   18   49 1    
    39   19   20 ar   
    40   19   50 1    
    41   20   21 ar   
    42   20   23 1    
    43   21   22 ar   
    44   21   51 1    
    45   22   52 1    
    46   24   25 am   BACKBONE|DICT|INTERRES
    47   24   53 1    
    48   25   26 2    
    49   25   27 1    
    50   27   54 1    
    51   27   55 1    
    52   27   63 1    
    53   28   29 1    
    54   28   56 1    
    55   28   57 1    
    56   28   63 1    
    57   29   33 1    
    58   29   30 2    
    59   30   31 1    
    60   30   58 1    
    61   31   32 2    
    62   31   59 1    
    63   32   33 1    
    64   32   60 1    
    65   34   61 1    
    66   34   62 1    
    67   63   64 1    
    68   63   65 1    
@<TRIPOS>SUBSTRUCTURE
     1 UNK         1 GROUP             0       ****    0 ROOT    
