ZINC23554891_5086
                    3D
 Schrodinger Suite 2024-2.
 57 60  0  0  1  0            999 V2000
    2.1853   49.7155   21.9091 C   0  0  0  0  0  0
    1.7896   50.1850   23.1615 C   0  0  0  0  0  0
    1.0294   51.3566   23.1292 C   0  0  0  0  0  0
    0.8195   51.8637   21.4738 S   0  0  0  0  0  0
    1.7501   50.5296   20.8795 C   0  0  0  0  0  0
    0.4697   52.1941   24.2745 C   0  0  2  0  0  0
   -0.3056   52.8731   23.9199 H   0  0  0  0  0  0
    1.5608   53.0016   25.0342 C   0  0  0  0  0  0
    2.5905   53.5124   24.1362 N   0  0  0  0  0  0
    3.7612   54.0737   24.4740 C   0  0  0  0  0  0
    4.0661   54.3224   25.6433 O   0  0  0  0  0  0
    4.7044   54.3629   23.3261 C   0  0  0  0  0  0
    5.9775   54.8961   23.5818 C   0  0  0  0  0  0
    6.8019   55.2832   22.5295 C   0  0  0  0  0  0
    6.3915   55.1179   21.2062 C   0  0  0  0  0  0
    5.1516   54.5327   20.9405 C   0  0  0  0  0  0
    4.3190   54.1557   21.9867 C   0  0  0  0  0  0
    7.2581   55.5572   20.1945 N   0  0  0  0  0  0
    7.1566   55.0871   18.4891 S   0  0  0  0  0  0
    8.4334   55.4890   17.8903 O   0  0  0  0  0  0
    6.7042   53.6941   18.4436 O   0  0  0  0  0  0
    5.8830   56.1187   17.7650 C   0  0  0  0  0  0
    4.6252   55.5756   17.4801 C   0  0  0  0  0  0
    3.6456   56.3751   16.8973 C   0  0  0  0  0  0
    3.9227   57.7087   16.6023 C   0  0  0  0  0  0
    5.1752   58.2524   16.8828 C   0  0  0  0  0  0
    6.1611   57.4574   17.4681 C   0  0  0  0  0  0
    2.9651   58.4797   16.0365 F   0  0  0  0  0  0
   -0.2823   51.2459   25.2426 N   0  3  0  0  0  0
   -0.9836   51.9610   26.4152 C   0  0  0  0  0  0
   -2.0857   51.0001   26.8688 C   0  0  0  0  0  0
   -2.2810   49.9754   25.7502 C   0  0  0  0  0  0
   -1.4193   50.4404   24.5806 C   0  0  0  0  0  0
    2.7806   48.8239   21.7652 H   0  0  0  0  0  0
    2.0610   49.6865   24.0810 H   0  0  0  0  0  0
    1.9341   50.4144   19.8197 H   0  0  0  0  0  0
    1.1045   53.8475   25.5484 H   0  0  0  0  0  0
    2.0224   52.3893   25.8102 H   0  0  0  0  0  0
    2.4237   53.3567   23.1524 H   0  0  0  0  0  0
    6.3153   55.0591   24.5973 H   0  0  0  0  0  0
    7.7647   55.7261   22.7450 H   0  0  0  0  0  0
    4.8029   54.3844   19.9306 H   0  0  0  0  0  0
    3.3571   53.7371   21.7247 H   0  0  0  0  0  0
    8.0657   56.0981   20.4558 H   0  0  0  0  0  0
    4.4060   54.5379   17.6971 H   0  0  0  0  0  0
    2.6715   55.9646   16.6703 H   0  0  0  0  0  0
    5.3730   59.2925   16.6555 H   0  0  0  0  0  0
    7.1340   57.8798   17.6821 H   0  0  0  0  0  0
   -0.2379   52.2026   27.1746 H   0  0  0  0  0  0
   -1.4001   52.8868   26.0112 H   0  0  0  0  0  0
   -1.8109   50.4984   27.7982 H   0  0  0  0  0  0
   -3.0071   51.5482   27.0651 H   0  0  0  0  0  0
   -3.3271   49.8924   25.4567 H   0  0  0  0  0  0
   -1.9640   48.9857   26.0807 H   0  0  0  0  0  0
   -1.9462   51.1312   23.9180 H   0  0  0  0  0  0
   -0.9861   49.6376   23.9804 H   0  0  0  0  0  0
    0.3886   50.5891   25.6195 H   0  0  0  0  0  0
  1  5  2  0  0  0
  1  2  1  0  0  0
  1 34  1  0  0  0
  2  3  2  0  0  0
  2 35  1  0  0  0
  3  4  1  0  0  0
  3  6  1  0  0  0
  4  5  1  0  0  0
  5 36  1  0  0  0
  6  7  1  0  0  0
  6  8  1  0  0  0
  6 29  1  0  0  0
  8  9  1  0  0  0
  8 37  1  0  0  0
  8 38  1  0  0  0
  9 10  1  0  0  0
  9 39  1  0  0  0
 10 11  2  0  0  0
 10 12  1  0  0  0
 12 17  2  0  0  0
 12 13  1  0  0  0
 13 14  2  0  0  0
 13 40  1  0  0  0
 14 15  1  0  0  0
 14 41  1  0  0  0
 15 16  2  0  0  0
 15 18  1  0  0  0
 16 17  1  0  0  0
 16 42  1  0  0  0
 17 43  1  0  0  0
 18 19  1  0  0  0
 18 44  1  0  0  0
 19 20  2  0  0  0
 19 21  2  0  0  0
 19 22  1  0  0  0
 22 27  2  0  0  0
 22 23  1  0  0  0
 23 24  2  0  0  0
 23 45  1  0  0  0
 24 25  1  0  0  0
 24 46  1  0  0  0
 25 26  2  0  0  0
 25 28  1  0  0  0
 26 27  1  0  0  0
 26 47  1  0  0  0
 27 48  1  0  0  0
 29 33  1  0  0  0
 29 30  1  0  0  0
 29 57  1  0  0  0
 30 31  1  0  0  0
 30 49  1  0  0  0
 30 50  1  0  0  0
 31 32  1  0  0  0
 31 51  1  0  0  0
 31 52  1  0  0  0
 32 33  1  0  0  0
 32 53  1  0  0  0
 32 54  1  0  0  0
 33 55  1  0  0  0
 33 56  1  0  0  0
M  CHG  1  29   1
M  END
> <i_i_glide_confnum>
342

> <i_i_glide_lignum>
5087

> <i_i_glide_posenum>
246

> <i_i_glide_rotatable_bonds>
9

> <i_m_Source_File_Index>
3781

> <b_m_subgroup_collapsed>
0

> <r_i_docking_score>
-3.80548

> <r_i_glide_ecoul>
-3.13496

> <r_i_glide_eff_state_penalty>
0

> <r_i_glide_einternal>
5.79987

> <r_i_glide_emodel>
-47.8325

> <r_i_glide_energy>
-39.4281

> <r_i_glide_erotb>
0.808586

> <r_i_glide_esite>
-0.0828146

> <r_i_glide_evdw>
-36.2932

> <r_i_glide_gscore>
-3.80548

> <r_i_glide_hbond>
0

> <r_i_glide_ligand_efficiency>
-0.118921

> <r_i_glide_ligand_efficiency_ln>
-0.85215

> <r_i_glide_ligand_efficiency_sa>
-0.377551

> <r_i_glide_lipo>
-1.79499

> <r_i_glide_metal>
0

> <r_i_glide_rewards>
-0.45135

> <s_i_glide_gridfile>
wee1_glide-grid

> <s_m_Source_File>
wee1_decoys_glide_SP.sdf

> <s_m_Source_Path>
/Users/zhangxujun/Desktop

> <s_m_entry_id>
4056

> <s_m_entry_name>
wee1_decoys_glide_SP.3781

> <s_m_subgroup_title>
wee1_decoys_glide_SP

> <s_m_subgroupid>
wee1_decoys_glide_SP


$$$$
