@<TRIPOS>MOLECULE
ZINC32072164_48
49   52    1
SMALL
USER_CHARGES


@<TRIPOS>ATOM
      1 C1          6.6190   54.4951   26.8827 C.3       1 UNK         0.0000 
      2 C2          5.2026   54.2100   26.4333 C.ar      1 UNK         0.0000 
      3 C3          4.6502   54.1552   25.1223 C.ar      1 UNK         0.0000 
      4 N4          3.3753   53.8262   25.1703 N.2       1 UNK         0.0000 
      5 N5          3.0767   53.5592   26.4429 N.pl3     1 UNK         0.0000 
      6 C6          4.1536   53.8011   27.2495 C.ar      1 UNK         0.0000 
      7 N7          4.0469   53.5685   28.6064 N.am      1 UNK         0.0000 
      8 C8          3.0545   52.8962   29.2253 C.2       1 UNK         0.0000 
      9 O9          3.0659   52.7101   30.4392 O.2       1 UNK         0.0000 
     10 C10         1.9642   52.3258   28.2737 C.3       1 UNK         0.0000 
     11 C11         1.7497   53.1581   26.9488 C.3       1 UNK         0.0000 
     12 H12         1.2069   54.0672   27.2119 H         1 UNK         0.0000 
     13 C13         0.8418   52.4645   25.8856 C.2       1 UNK         0.0000 
     14 O14         0.5859   53.0759   24.8483 O.2       1 UNK         0.0000 
     15 N15         0.4138   51.2044   26.1272 N.am      1 UNK         0.0000 
     16 C16        -0.2730   50.3131   25.2785 C.ar      1 UNK         0.0000 
     17 C17        -0.2785   48.9797   25.6817 C.ar      1 UNK         0.0000 
     18 C18        -0.9237   48.0113   24.9206 C.ar      1 UNK         0.0000 
     19 C19        -1.5807   48.3560   23.7349 C.ar      1 UNK         0.0000 
     20 C20        -1.5736   49.6978   23.3258 C.ar      1 UNK         0.0000 
     21 C21        -0.9296   50.6696   24.0907 C.ar      1 UNK         0.0000 
     22 C22        -2.2806   47.2862   22.9509 C.2       1 UNK         0.0000 
     23 O23        -2.3295   46.1024   23.2942 O.2       1 UNK         0.0000 
     24 C24        -2.9732   47.6849   21.6483 C.3       1 UNK         0.0000 
     25 C25         5.2698   54.4171   23.7669 C.ar      1 UNK         0.0000 
     26 C26         4.5556   54.0946   22.5972 C.ar      1 UNK         0.0000 
     27 C27         5.0662   54.3911   21.3368 C.ar      1 UNK         0.0000 
     28 C28         6.3036   55.0140   21.2276 C.ar      1 UNK         0.0000 
     29 C29         7.0410   55.3100   22.3672 C.ar      1 UNK         0.0000 
     30 C30         6.5309   55.0109   23.6288 C.ar      1 UNK         0.0000 
     31 Cl31        6.9305   55.4280   19.6751 Cl        1 UNK         0.0000 
     32 H32         7.3413   53.9879   26.2467 H         1 UNK         0.0000 
     33 H33         6.8485   55.5589   26.8449 H         1 UNK         0.0000 
     34 H34         6.8175   54.1389   27.8941 H         1 UNK         0.0000 
     35 H35         4.7639   53.9032   29.2318 H         1 UNK         0.0000 
     36 H36         2.2714   51.3015   28.0594 H         1 UNK         0.0000 
     37 H37         1.0428   52.3064   28.8582 H         1 UNK         0.0000 
     38 H38         0.6914   50.7925   27.0039 H         1 UNK         0.0000 
     39 H39         0.2098   48.6704   26.5951 H         1 UNK         0.0000 
     40 H40        -0.9075   46.9916   25.2809 H         1 UNK         0.0000 
     41 H41        -2.0692   50.0146   22.4195 H         1 UNK         0.0000 
     42 H42        -0.9655   51.6887   23.7419 H         1 UNK         0.0000 
     43 H43        -2.2494   48.1099   20.9535 H         1 UNK         0.0000 
     44 H44        -3.4462   46.8230   21.1780 H         1 UNK         0.0000 
     45 H45        -3.7364   48.4380   21.8444 H         1 UNK         0.0000 
     46 H46         3.5820   53.6290   22.6513 H         1 UNK         0.0000 
     47 H47         4.4937   54.1540   20.4513 H         1 UNK         0.0000 
     48 H48         7.9980   55.7990   22.2719 H         1 UNK         0.0000 
     49 H49         7.1179   55.2960   24.4839 H         1 UNK         0.0000 
@<TRIPOS>BOND
     1    1    2 1    
     2    1   32 1    
     3    1   33 1    
     4    1   34 1    
     5    2    6 ar   
     6    2    3 ar   
     7    3    4 ar   
     8    3   25 1    
     9    4    5 ar   
    10    5   11 1    
    11    5    6 ar   
    12    6    7 1    
    13    7    8 am   BACKBONE|DICT|INTERRES
    14    7   35 1    
    15    8    9 2    
    16    8   10 1    
    17   10   11 1    
    18   10   36 1    
    19   10   37 1    
    20   11   12 1    
    21   11   13 1    
    22   13   14 2    
    23   13   15 am   BACKBONE|DICT|INTERRES
    24   15   16 1    
    25   15   38 1    
    26   16   21 ar   
    27   16   17 ar   
    28   17   18 ar   
    29   17   39 1    
    30   18   19 ar   
    31   18   40 1    
    32   19   20 ar   
    33   19   22 1    
    34   20   21 ar   
    35   20   41 1    
    36   21   42 1    
    37   22   23 2    
    38   22   24 1    
    39   24   43 1    
    40   24   44 1    
    41   24   45 1    
    42   25   30 ar   
    43   25   26 ar   
    44   26   27 ar   
    45   26   46 1    
    46   27   28 ar   
    47   27   47 1    
    48   28   29 ar   
    49   28   31 1    
    50   29   30 ar   
    51   29   48 1    
    52   30   49 1    
@<TRIPOS>SUBSTRUCTURE
     1 UNK         1 GROUP             0       ****    0 ROOT    
