@<TRIPOS>MOLECULE
ZINC58994039_3035
49   51    1
SMALL
USER_CHARGES


@<TRIPOS>ATOM
      1 C1          1.4055   50.3442   23.6598 C.2       1 UNK         0.0000 
      2 C2          1.9045   51.4949   23.1801 C.2       1 UNK         0.0000 
      3 C3          1.4172   52.8783   23.5611 C.3       1 UNK         0.0000 
      4 S4          2.4366   53.6991   24.8169 S.3       1 UNK         0.0000 
      5 C5          4.0406   54.0969   24.1372 C.ar      1 UNK         0.0000 
      6 C6          4.2222   54.0958   22.7478 C.ar      1 UNK         0.0000 
      7 C7          5.4711   54.3675   22.1933 C.ar      1 UNK         0.0000 
      8 C8          6.5497   54.6486   23.0234 C.ar      1 UNK         0.0000 
      9 C9          6.3863   54.6506   24.4062 C.ar      1 UNK         0.0000 
     10 C10         5.1357   54.3681   24.9869 C.ar      1 UNK         0.0000 
     11 N11         4.9141   54.3148   26.3842 N.am      1 UNK         0.0000 
     12 C12         5.7880   54.3781   27.4112 C.2       1 UNK         0.0000 
     13 O13         7.0074   54.4897   27.2815 O.2       1 UNK         0.0000 
     14 C14         5.2177   54.2814   28.8355 C.3       1 UNK         0.0000 
     15 S15         3.5052   54.8967   29.0844 S.3       1 UNK         0.0000 
     16 C16         2.5133   53.4454   28.9663 C.ar      1 UNK         0.0000 
     17 N17         1.1876   53.5369   29.0000 N.2       1 UNK         0.0000 
     18 C18         0.8123   52.2998   28.8112 C.ar      1 UNK         0.0000 
     19 N19         1.9040   51.5005   28.6901 N.pl3     1 UNK         0.0000 
     20 N20         3.0093   52.2312   28.8150 N.2       1 UNK         0.0000 
     21 N21        -0.4631   51.8188   28.6640 N.pl3     1 UNK         0.0000 
     22 N22        -1.0341   51.6986   27.4001 N.2       1 UNK         0.0000 
     23 C23        -2.0778   50.9864   27.2905 C.2       1 UNK         0.0000 
     24 C24        -2.7413   50.7432   26.0037 C.ar      1 UNK         0.0000 
     25 C25        -3.9002   49.9561   25.9486 C.ar      1 UNK         0.0000 
     26 C26        -4.5332   49.7044   24.7295 C.ar      1 UNK         0.0000 
     27 C27        -4.0079   50.2263   23.5471 C.ar      1 UNK         0.0000 
     28 C28        -2.8528   51.0051   23.5838 C.ar      1 UNK         0.0000 
     29 C29        -2.2342   51.2659   24.8044 C.ar      1 UNK         0.0000 
     30 Br30       -2.0952   51.6963   21.9785 Br        1 UNK         0.0000 
     31 H31         0.5973   50.3355   24.3775 H         1 UNK         0.0000 
     32 H32         1.8032   49.3912   23.3412 H         1 UNK         0.0000 
     33 H33         2.7115   51.4566   22.4620 H         1 UNK         0.0000 
     34 H34         1.3138   53.5095   22.6780 H         1 UNK         0.0000 
     35 H35         0.4199   52.7956   23.9843 H         1 UNK         0.0000 
     36 H36         3.4028   53.8895   22.0782 H         1 UNK         0.0000 
     37 H37         5.5972   54.3646   21.1195 H         1 UNK         0.0000 
     38 H38         7.5147   54.8711   22.5944 H         1 UNK         0.0000 
     39 H39         7.2597   54.8779   24.9934 H         1 UNK         0.0000 
     40 H40         3.9451   54.1780   26.6345 H         1 UNK         0.0000 
     41 H41         5.3331   53.2618   29.1969 H         1 UNK         0.0000 
     42 H42         5.8571   54.8970   29.4713 H         1 UNK         0.0000 
     43 H43        -0.9005   51.2383   29.3681 H         1 UNK         0.0000 
     44 H44        -2.5342   50.4970   28.1488 H         1 UNK         0.0000 
     45 H45        -4.3112   49.5267   26.8511 H         1 UNK         0.0000 
     46 H46        -5.4261   49.0970   24.7028 H         1 UNK         0.0000 
     47 H47        -4.4932   50.0237   22.6034 H         1 UNK         0.0000 
     48 H48        -1.3439   51.8734   24.8113 H         1 UNK         0.0000 
     49 H49         1.8950   50.5090   28.5045 H         1 UNK         0.0000 
@<TRIPOS>BOND
     1    1    2 2    
     2    1   31 1    
     3    1   32 1    
     4    2    3 1    
     5    2   33 1    
     6    3    4 1    
     7    3   34 1    
     8    3   35 1    
     9    4    5 1    
    10    5   10 ar   
    11    5    6 ar   
    12    6    7 ar   
    13    6   36 1    
    14    7    8 ar   
    15    7   37 1    
    16    8    9 ar   
    17    8   38 1    
    18    9   10 ar   
    19    9   39 1    
    20   10   11 1    
    21   11   12 am   BACKBONE|DICT|INTERRES
    22   11   40 1    
    23   12   13 2    
    24   12   14 1    
    25   14   15 1    
    26   14   41 1    
    27   14   42 1    
    28   15   16 1    
    29   16   20 ar   
    30   16   17 ar   
    31   17   18 ar   
    32   18   19 ar   
    33   18   21 1    
    34   19   20 ar   
    35   19   49 1    
    36   21   22 1    
    37   21   43 1    
    38   22   23 2    
    39   23   24 1    
    40   23   44 1    
    41   24   29 ar   
    42   24   25 ar   
    43   25   26 ar   
    44   25   45 1    
    45   26   27 ar   
    46   26   46 1    
    47   27   28 ar   
    48   27   47 1    
    49   28   29 ar   
    50   28   30 1    
    51   29   48 1    
@<TRIPOS>SUBSTRUCTURE
     1 UNK         1 GROUP             0       ****    0 ROOT    
