@<TRIPOS>MOLECULE
ZINC46772222_3032
60   62    1
SMALL
USER_CHARGES


@<TRIPOS>ATOM
      1 C1          1.7269   59.1983   15.2268 C.3       1 UNK         0.0000 
      2 C2          2.4525   58.0843   15.9679 C.ar      1 UNK         0.0000 
      3 C3          3.7248   58.3337   16.4817 C.ar      1 UNK         0.0000 
      4 C4          4.4095   57.3557   17.1935 C.ar      1 UNK         0.0000 
      5 C5          3.8359   56.0933   17.3952 C.ar      1 UNK         0.0000 
      6 C6          2.5595   55.8429   16.8813 C.ar      1 UNK         0.0000 
      7 C7          1.8610   56.8261   16.1712 C.ar      1 UNK         0.0000 
      8 C8          0.4726   56.5087   15.6347 C.3       1 UNK         0.0000 
      9 N9          4.4265   55.0445   18.1271 N.pl3     1 UNK         0.0000 
     10 C10         5.7099   54.7584   18.5200 C.2       1 UNK         0.0000 
     11 S11         7.1089   55.5835   18.1583 S.2       1 UNK         0.0000 
     12 N12         5.8837   53.6427   19.2825 N.pl3     1 UNK         0.0000 
     13 N13         4.8629   52.8171   19.7769 N.am      1 UNK         0.0000 
     14 C14         4.1427   53.1937   20.8634 C.2       1 UNK         0.0000 
     15 O15         4.3149   54.2589   21.4626 O.2       1 UNK         0.0000 
     16 C16         3.1052   52.2039   21.3549 C.ar      1 UNK         0.0000 
     17 C17         3.0867   50.8718   20.9047 C.ar      1 UNK         0.0000 
     18 C18         2.1335   49.9715   21.3817 C.ar      1 UNK         0.0000 
     19 C19         1.1702   50.3903   22.2958 C.ar      1 UNK         0.0000 
     20 C20         1.1592   51.7114   22.7492 C.ar      1 UNK         0.0000 
     21 C21         2.1351   52.6078   22.2902 C.ar      1 UNK         0.0000 
     22 S22        -0.1436   52.2533   23.8656 S.o2      1 UNK         0.0000 
     23 O23         0.0214   53.6955   24.0808 O.2       1 UNK         0.0000 
     24 O24        -1.3962   51.7215   23.3135 O.2       1 UNK         0.0000 
     25 N25         0.1224   51.4403   25.4494 N.pl3     1 UNK         0.0000 
     26 C26         0.0180   49.9810   25.4684 C.3       1 UNK         0.0000 
     27 C27         0.8501   52.0274   26.5062 C.ar      1 UNK         0.0000 
     28 C28         1.9172   52.8966   26.2554 C.ar      1 UNK         0.0000 
     29 C29         2.6555   53.4367   27.3049 C.ar      1 UNK         0.0000 
     30 C30         2.3361   53.1177   28.6314 C.ar      1 UNK         0.0000 
     31 C31         1.2534   52.2772   28.8848 C.ar      1 UNK         0.0000 
     32 C32         0.5153   51.7339   27.8346 C.ar      1 UNK         0.0000 
     33 O33         3.0369   53.5767   29.7305 O.3       1 UNK         0.0000 
     34 C34         4.2334   54.3170   29.5182 C.3       1 UNK         0.0000 
     35 H35         2.2740   60.1432   15.2651 H         1 UNK         0.0000 
     36 H36         1.5725   58.9239   14.1843 H         1 UNK         0.0000 
     37 H37         0.7487   59.3723   15.6786 H         1 UNK         0.0000 
     38 H38         4.1916   59.2978   16.3474 H         1 UNK         0.0000 
     39 H39         5.3658   57.6315   17.6037 H         1 UNK         0.0000 
     40 H40         2.0979   54.8777   17.0455 H         1 UNK         0.0000 
     41 H41         0.1971   55.4652   15.7945 H         1 UNK         0.0000 
     42 H42         0.4288   56.7050   14.5636 H         1 UNK         0.0000 
     43 H43        -0.2707   57.1437   16.1184 H         1 UNK         0.0000 
     44 H44         3.7531   54.3347   18.3736 H         1 UNK         0.0000 
     45 H45         6.7607   53.4917   19.7622 H         1 UNK         0.0000 
     46 H46         4.5522   52.1451   19.0851 H         1 UNK         0.0000 
     47 H47         3.8085   50.5067   20.1873 H         1 UNK         0.0000 
     48 H48         2.1338   48.9504   21.0291 H         1 UNK         0.0000 
     49 H49         0.4219   49.6912   22.6358 H         1 UNK         0.0000 
     50 H50         2.1175   53.6332   22.6379 H         1 UNK         0.0000 
     51 H51         0.9908   49.5246   25.2873 H         1 UNK         0.0000 
     52 H52        -0.3562   49.6064   26.4216 H         1 UNK         0.0000 
     53 H53        -0.6723   49.6279   24.7024 H         1 UNK         0.0000 
     54 H54         2.2035   53.1423   25.2443 H         1 UNK         0.0000 
     55 H55         3.4784   54.0938   27.0675 H         1 UNK         0.0000 
     56 H56         0.9896   52.0349   29.9034 H         1 UNK         0.0000 
     57 H57        -0.3144   51.0777   28.0661 H         1 UNK         0.0000 
     58 H58         4.7045   54.4976   30.4810 H         1 UNK         0.0000 
     59 H59         4.9503   53.7678   28.9057 H         1 UNK         0.0000 
     60 H60         4.0310   55.2858   29.0588 H         1 UNK         0.0000 
@<TRIPOS>BOND
     1    1    2 1    
     2    1   35 1    
     3    1   36 1    
     4    1   37 1    
     5    2    7 ar   
     6    2    3 ar   
     7    3    4 ar   
     8    3   38 1    
     9    4    5 ar   
    10    4   39 1    
    11    5    6 ar   
    12    5    9 1    
    13    6    7 ar   
    14    6   40 1    
    15    7    8 1    
    16    8   41 1    
    17    8   42 1    
    18    8   43 1    
    19    9   10 1    
    20    9   44 1    
    21   10   11 2    
    22   10   12 1    
    23   12   13 1    
    24   12   45 1    
    25   13   14 am   BACKBONE|DICT|INTERRES
    26   13   46 1    
    27   14   15 2    
    28   14   16 1    
    29   16   21 ar   
    30   16   17 ar   
    31   17   18 ar   
    32   17   47 1    
    33   18   19 ar   
    34   18   48 1    
    35   19   20 ar   
    36   19   49 1    
    37   20   21 ar   
    38   20   22 1    
    39   21   50 1    
    40   22   23 2    
    41   22   24 2    
    42   22   25 1    
    43   25   26 1    
    44   25   27 1    
    45   26   51 1    
    46   26   52 1    
    47   26   53 1    
    48   27   32 ar   
    49   27   28 ar   
    50   28   29 ar   
    51   28   54 1    
    52   29   30 ar   
    53   29   55 1    
    54   30   31 ar   
    55   30   33 1    
    56   31   32 ar   
    57   31   56 1    
    58   32   57 1    
    59   33   34 1    
    60   34   58 1    
    61   34   59 1    
    62   34   60 1    
@<TRIPOS>SUBSTRUCTURE
     1 UNK         1 GROUP             0       ****    0 ROOT    
