@<TRIPOS>MOLECULE
ZINC39678565_645
66   69    1
SMALL
USER_CHARGES


@<TRIPOS>ATOM
      1 C1          2.7856   53.8871   27.4313 C.3       1 UNK         0.0000 
      2 C2          3.5090   54.0199   26.1039 C.ar      1 UNK         0.0000 
      3 C3          2.7923   54.0967   24.9151 C.ar      1 UNK         0.0000 
      4 C4          3.4617   54.2413   23.7038 C.ar      1 UNK         0.0000 
      5 C5          4.8687   54.2737   23.6219 C.ar      1 UNK         0.0000 
      6 C6          5.5838   54.2260   24.8495 C.ar      1 UNK         0.0000 
      7 C7          4.8981   54.0967   26.0646 C.ar      1 UNK         0.0000 
      8 C8          7.1044   54.2843   24.9360 C.3       1 UNK         0.0000 
      9 C9          5.5700   54.4967   22.2750 C.2       1 UNK         0.0000 
     10 O10         6.6513   55.0909   22.2515 O.2       1 UNK         0.0000 
     11 N11         4.9953   54.1092   21.1020 N.am      1 UNK         0.0000 
     12 C12         3.8782   53.1862   20.9461 C.3       1 UNK         0.0000 
     13 C13         4.0796   52.5700   19.5476 C.3       1 UNK         0.0000 
     14 H14         4.7213   51.6973   19.6815 H         1 UNK         0.0000 
     15 C15         4.7524   53.7207   18.7225 C.3       1 UNK         0.0000 
     16 C16         5.6266   54.3929   19.8074 C.3       1 UNK         0.0000 
     17 C17         3.7386   54.7303   18.0963 C.3       1 UNK         0.0000 
     18 C18         4.4191   55.9516   17.4408 C.3       1 UNK         0.0000 
     19 N19         5.3988   55.4465   16.3587 N.4       1 UNK         0.0000 
     20 C20         6.3809   54.3547   16.8431 C.3       1 UNK         0.0000 
     21 C21         5.5710   53.2217   17.5081 C.3       1 UNK         0.0000 
     22 C22         2.6918   52.0885   19.0411 C.2       1 UNK         0.0000 
     23 O23         1.6400   52.4257   19.5871 O.2       1 UNK         0.0000 
     24 N24         2.7044   51.2968   17.9609 N.am      1 UNK         0.0000 
     25 C25         1.5268   50.8894   17.1963 C.3       1 UNK         0.0000 
     26 C26         0.9010   52.0391   16.4102 C.ar      1 UNK         0.0000 
     27 C27         1.2659   52.2641   15.0809 C.ar      1 UNK         0.0000 
     28 C28         0.6878   53.3115   14.3639 C.ar      1 UNK         0.0000 
     29 C29        -0.2564   54.1391   14.9720 C.ar      1 UNK         0.0000 
     30 C30        -0.6335   53.9249   16.3060 C.ar      1 UNK         0.0000 
     31 C31        -0.0695   52.8555   17.0023 C.ar      1 UNK         0.0000 
     32 O32        -1.5561   54.7010   16.9761 O.3       1 UNK         0.0000 
     33 C33        -1.6404   56.0817   16.6302 C.3       1 UNK         0.0000 
     34 F34        -2.4776   56.2606   15.6068 F         1 UNK         0.0000 
     35 F35        -2.0891   56.7617   17.6817 F         1 UNK         0.0000 
     36 H36         1.7593   54.2507   27.3647 H         1 UNK         0.0000 
     37 H37         2.7746   52.8474   27.7580 H         1 UNK         0.0000 
     38 H38         3.2822   54.4823   28.1985 H         1 UNK         0.0000 
     39 H39         1.7120   54.0721   24.9264 H         1 UNK         0.0000 
     40 H40         2.8347   54.3854   22.8412 H         1 UNK         0.0000 
     41 H41         5.4495   54.0477   26.9925 H         1 UNK         0.0000 
     42 H42         7.4704   54.0631   25.9386 H         1 UNK         0.0000 
     43 H43         7.5483   53.5565   24.2564 H         1 UNK         0.0000 
     44 H44         7.4679   55.2727   24.6549 H         1 UNK         0.0000 
     45 H45         2.9942   53.8210   20.9120 H         1 UNK         0.0000 
     46 H46         3.8194   52.4033   21.7052 H         1 UNK         0.0000 
     47 H47         6.5732   53.8562   19.8015 H         1 UNK         0.0000 
     48 H48         5.8946   55.4317   19.6297 H         1 UNK         0.0000 
     49 H49         3.0571   54.2453   17.3934 H         1 UNK         0.0000 
     50 H50         3.1045   55.1220   18.8818 H         1 UNK         0.0000 
     51 H51         3.7016   56.5930   16.9265 H         1 UNK         0.0000 
     52 H52         4.9919   56.5708   18.1305 H         1 UNK         0.0000 
     53 H53         4.8573   55.0652   15.5939 H         1 UNK         0.0000 
     54 H54         6.9210   54.0112   15.9597 H         1 UNK         0.0000 
     55 H55         7.0864   54.8391   17.5210 H         1 UNK         0.0000 
     56 H56         6.3015   52.4967   17.8619 H         1 UNK         0.0000 
     57 H57         4.9503   52.6772   16.7932 H         1 UNK         0.0000 
     58 H58         3.5926   50.8790   17.6819 H         1 UNK         0.0000 
     59 H59         0.7841   50.4392   17.8579 H         1 UNK         0.0000 
     60 H60         1.8244   50.0972   16.5073 H         1 UNK         0.0000 
     61 H61         2.0025   51.6327   14.6038 H         1 UNK         0.0000 
     62 H62         0.9708   53.4825   13.3349 H         1 UNK         0.0000 
     63 H63        -0.6931   54.9398   14.3941 H         1 UNK         0.0000 
     64 H64        -0.3681   52.6819   18.0252 H         1 UNK         0.0000 
     65 H65        -0.6724   56.5228   16.3786 H         1 UNK         0.0000 
     66 H66         5.9170   56.2275   15.9773 H         1 UNK         0.0000 
@<TRIPOS>BOND
     1    1    2 1    
     2    1   36 1    
     3    1   37 1    
     4    1   38 1    
     5    2    7 ar   
     6    2    3 ar   
     7    3    4 ar   
     8    3   39 1    
     9    4    5 ar   
    10    4   40 1    
    11    5    6 ar   
    12    5    9 1    
    13    6    7 ar   
    14    6    8 1    
    15    7   41 1    
    16    8   42 1    
    17    8   43 1    
    18    8   44 1    
    19    9   10 2    
    20    9   11 am   BACKBONE|DICT|INTERRES
    21   11   16 1    
    22   11   12 1    
    23   12   13 1    
    24   12   45 1    
    25   12   46 1    
    26   13   14 1    
    27   13   15 1    
    28   13   22 1    
    29   15   21 1    
    30   15   16 1    
    31   15   17 1    
    32   16   47 1    
    33   16   48 1    
    34   17   18 1    
    35   17   49 1    
    36   17   50 1    
    37   18   19 1    
    38   18   51 1    
    39   18   52 1    
    40   19   20 1    
    41   19   53 1    
    42   19   66 1    
    43   20   21 1    
    44   20   54 1    
    45   20   55 1    
    46   21   56 1    
    47   21   57 1    
    48   22   23 2    
    49   22   24 am   BACKBONE|DICT|INTERRES
    50   24   25 1    
    51   24   58 1    
    52   25   26 1    
    53   25   59 1    
    54   25   60 1    
    55   26   31 ar   
    56   26   27 ar   
    57   27   28 ar   
    58   27   61 1    
    59   28   29 ar   
    60   28   62 1    
    61   29   30 ar   
    62   29   63 1    
    63   30   31 ar   
    64   30   32 1    
    65   31   64 1    
    66   32   33 1    
    67   33   34 1    
    68   33   35 1    
    69   33   65 1    
@<TRIPOS>SUBSTRUCTURE
     1 UNK         1 GROUP             0       ****    0 ROOT    
