@<TRIPOS>MOLECULE
ZINC64982849_861
59   61    1
SMALL
USER_CHARGES


@<TRIPOS>ATOM
      1 C1         -0.6301   51.7491   27.4206 C.3       1 UNK         0.0000 
      2 C2          0.5689   51.9203   26.4670 C.3       1 UNK         0.0000 
      3 H3          1.3145   51.1794   26.7564 H         1 UNK         0.0000 
      4 C4          0.1344   51.7201   24.9920 C.2       1 UNK         0.0000 
      5 O5         -0.6624   52.5037   24.4716 O.2       1 UNK         0.0000 
      6 N6          0.7452   50.7081   24.3400 N.am      1 UNK         0.0000 
      7 C7          0.7069   50.3787   22.9755 C.ar      1 UNK         0.0000 
      8 C8          1.8080   49.6753   22.4810 C.ar      1 UNK         0.0000 
      9 C9          1.8484   49.2724   21.1492 C.ar      1 UNK         0.0000 
     10 C10         0.7723   49.5584   20.3106 C.ar      1 UNK         0.0000 
     11 C11        -0.3234   50.2784   20.7898 C.ar      1 UNK         0.0000 
     12 C12        -0.3593   50.6893   22.1201 C.ar      1 UNK         0.0000 
     13 S13         0.7927   48.9861   18.6115 S.o2      1 UNK         0.0000 
     14 O14         1.4258   47.6641   18.6196 O.2       1 UNK         0.0000 
     15 O15        -0.5474   49.1727   18.0432 O.2       1 UNK         0.0000 
     16 N16         1.9044   50.0631   17.7591 N.pl3     1 UNK         0.0000 
     17 C17         1.6643   51.4171   17.5052 C.ar      1 UNK         0.0000 
     18 C18         2.6812   52.1597   16.8972 C.ar      1 UNK         0.0000 
     19 C19         2.4710   53.5158   16.6397 C.ar      1 UNK         0.0000 
     20 C20         1.2532   54.0973   16.9939 C.ar      1 UNK         0.0000 
     21 C21         0.2857   53.2964   17.6034 C.ar      1 UNK         0.0000 
     22 N22         0.4764   51.9791   17.8604 N.ar      1 UNK         0.0000 
     23 O23         1.1042   53.2369   26.7086 O.3       1 UNK         0.0000 
     24 C24         2.3665   53.5710   26.2509 C.ar      1 UNK         0.0000 
     25 C25         2.5875   53.7006   24.8708 C.ar      1 UNK         0.0000 
     26 C26         3.8208   54.0994   24.3720 C.ar      1 UNK         0.0000 
     27 C27         4.8578   54.3831   25.2504 C.ar      1 UNK         0.0000 
     28 C28         4.6529   54.2793   26.6224 C.ar      1 UNK         0.0000 
     29 C29         3.4104   53.8853   27.1611 C.ar      1 UNK         0.0000 
     30 C30         3.2007   53.8352   28.7072 C.3       1 UNK         0.0000 
     31 C31         2.0600   54.7969   29.1286 C.3       1 UNK         0.0000 
     32 C32         4.4611   54.2676   29.5029 C.3       1 UNK         0.0000 
     33 C33         2.8844   52.3950   29.1776 C.3       1 UNK         0.0000 
     34 H34        -1.0625   50.7503   27.3495 H         1 UNK         0.0000 
     35 H35        -0.3377   51.9017   28.4595 H         1 UNK         0.0000 
     36 H36        -1.4190   52.4712   27.2033 H         1 UNK         0.0000 
     37 H37         1.4282   50.1863   24.8659 H         1 UNK         0.0000 
     38 H38         2.6396   49.4267   23.1246 H         1 UNK         0.0000 
     39 H39         2.7030   48.7261   20.7778 H         1 UNK         0.0000 
     40 H40        -1.1532   50.5055   20.1374 H         1 UNK         0.0000 
     41 H41        -1.2283   51.2215   22.4752 H         1 UNK         0.0000 
     42 H42         2.8252   49.6965   17.5064 H         1 UNK         0.0000 
     43 H43         3.6218   51.6957   16.6371 H         1 UNK         0.0000 
     44 H44         3.2473   54.1065   16.1729 H         1 UNK         0.0000 
     45 H45         1.0713   55.1457   16.8090 H         1 UNK         0.0000 
     46 H46        -0.6651   53.7140   17.8996 H         1 UNK         0.0000 
     47 H47         1.7965   53.5366   24.1603 H         1 UNK         0.0000 
     48 H48         3.9687   54.1983   23.3065 H         1 UNK         0.0000 
     49 H49         5.8187   54.6916   24.8664 H         1 UNK         0.0000 
     50 H50         5.4926   54.5262   27.2499 H         1 UNK         0.0000 
     51 H51         1.0873   54.4982   28.7443 H         1 UNK         0.0000 
     52 H52         1.9519   54.8454   30.2124 H         1 UNK         0.0000 
     53 H53         2.2477   55.8123   28.7784 H         1 UNK         0.0000 
     54 H54         5.3123   53.6254   29.2816 H         1 UNK         0.0000 
     55 H55         4.7529   55.2966   29.2844 H         1 UNK         0.0000 
     56 H56         4.3043   54.2056   30.5790 H         1 UNK         0.0000 
     57 H57         3.6685   51.6970   28.8811 H         1 UNK         0.0000 
     58 H58         2.7967   52.3401   30.2628 H         1 UNK         0.0000 
     59 H59         1.9443   52.0181   28.7871 H         1 UNK         0.0000 
@<TRIPOS>BOND
     1    1    2 1    
     2    1   34 1    
     3    1   35 1    
     4    1   36 1    
     5    2    3 1    
     6    2    4 1    
     7    2   23 1    
     8    4    5 2    
     9    4    6 am   BACKBONE|DICT|INTERRES
    10    6    7 1    
    11    6   37 1    
    12    7   12 ar   
    13    7    8 ar   
    14    8    9 ar   
    15    8   38 1    
    16    9   10 ar   
    17    9   39 1    
    18   10   11 ar   
    19   10   13 1    
    20   11   12 ar   
    21   11   40 1    
    22   12   41 1    
    23   13   14 2    
    24   13   15 2    
    25   13   16 1    
    26   16   17 1    
    27   16   42 1    
    28   17   22 ar   
    29   17   18 ar   
    30   18   19 ar   
    31   18   43 1    
    32   19   20 ar   
    33   19   44 1    
    34   20   21 ar   
    35   20   45 1    
    36   21   22 ar   
    37   21   46 1    
    38   23   24 1    
    39   24   29 ar   
    40   24   25 ar   
    41   25   26 ar   
    42   25   47 1    
    43   26   27 ar   
    44   26   48 1    
    45   27   28 ar   
    46   27   49 1    
    47   28   29 ar   
    48   28   50 1    
    49   29   30 1    
    50   30   31 1    
    51   30   32 1    
    52   30   33 1    
    53   31   51 1    
    54   31   52 1    
    55   31   53 1    
    56   32   54 1    
    57   32   55 1    
    58   32   56 1    
    59   33   57 1    
    60   33   58 1    
    61   33   59 1    
@<TRIPOS>SUBSTRUCTURE
     1 UNK         1 GROUP             0       ****    0 ROOT    
