ZINC35863309_5342
                    3D
 Schrodinger Suite 2024-2.
 70 74  0  0  1  0            999 V2000
   -6.5381   53.5044   26.4063 C   0  0  0  0  0  0
   -5.4807   52.3997   26.6213 C   0  0  0  0  0  0
   -4.1791   52.5744   25.8086 C   0  0  0  0  0  0
   -4.0950   53.5180   25.0178 O   0  0  0  0  0  0
   -3.2249   51.6065   25.8883 N   0  0  0  0  0  0
   -3.1529   50.6565   27.0119 C   0  0  0  0  0  0
   -2.2127   51.2634   28.0768 C   0  0  0  0  0  0
   -0.9140   51.8235   27.4827 C   0  0  0  0  0  0
    0.1725   52.1354   28.3040 C   0  0  0  0  0  0
    1.3560   52.6500   27.7750 C   0  0  0  0  0  0
    1.4859   52.8291   26.3923 C   0  0  0  0  0  0
    0.4118   52.4970   25.5754 C   0  0  0  0  0  0
   -0.8053   52.0441   26.0918 C   0  0  0  0  0  0
   -1.9593   51.7066   25.1317 C   0  0  1  0  0  0
   -2.0298   52.5544   24.4475 H   0  0  0  0  0  0
   -1.6771   50.5163   24.2136 C   0  0  0  0  0  0
   -0.8118   49.4787   24.5885 C   0  0  0  0  0  0
   -0.5467   48.4299   23.7111 C   0  0  0  0  0  0
   -1.1457   48.4064   22.4500 C   0  0  0  0  0  0
   -2.0143   49.4294   22.0718 C   0  0  0  0  0  0
   -2.2817   50.4777   22.9506 C   0  0  0  0  0  0
   -2.5943   49.4104   20.8500 F   0  0  0  0  0  0
    2.6090   53.2997   25.7465 O   0  0  0  0  0  0
    3.6352   53.9458   26.4921 C   0  0  0  0  0  0
    4.8434   54.1294   25.6027 C   0  0  0  0  0  0
    6.2039   54.0975   25.8396 C   0  0  0  0  0  0
    6.8271   54.2992   24.6111 C   0  0  0  0  0  0
    5.8313   54.3959   23.6449 C   0  0  0  0  0  0
    4.6246   54.3716   24.2786 O   0  0  0  0  0  0
    5.9237   54.7070   22.2293 C   0  0  0  0  0  0
    6.9331   55.2966   21.8331 O   0  0  0  0  0  0
    4.8729   54.4225   21.4001 N   0  0  0  0  0  0
    4.9204   54.8650   19.9868 C   0  0  0  0  0  0
    5.2933   53.6567   19.0960 C   0  0  0  0  0  0
    4.3054   52.4967   19.3269 N   0  3  0  0  0  0
    4.1791   52.1305   20.8207 C   0  0  1  0  0  0
    5.1050   51.6572   21.1518 H   0  0  0  0  0  0
    3.8488   53.3887   21.6637 C   0  0  0  0  0  0
    3.0655   51.0726   20.8943 C   0  0  0  0  0  0
   -7.4238   53.3031   27.0114 H   0  0  0  0  0  0
   -6.1652   54.4843   26.7092 H   0  0  0  0  0  0
   -6.8738   53.5543   25.3680 H   0  0  0  0  0  0
   -5.9243   51.4357   26.3599 H   0  0  0  0  0  0
   -5.2301   52.3690   27.6815 H   0  0  0  0  0  0
   -4.1227   50.3314   27.3891 H   0  0  0  0  0  0
   -2.7461   49.7050   26.6618 H   0  0  0  0  0  0
   -2.7469   52.0375   28.6217 H   0  0  0  0  0  0
   -1.9924   50.5023   28.8256 H   0  0  0  0  0  0
    0.0937   51.9777   29.3692 H   0  0  0  0  0  0
    2.1610   52.8811   28.4537 H   0  0  0  0  0  0
    0.5148   52.6326   24.5078 H   0  0  0  0  0  0
   -0.3407   49.4759   25.5632 H   0  0  0  0  0  0
    0.1256   47.6411   24.0200 H   0  0  0  0  0  0
   -0.9373   47.5973   21.7667 H   0  0  0  0  0  0
   -2.9564   51.2647   22.6462 H   0  0  0  0  0  0
    3.2879   54.9124   26.8591 H   0  0  0  0  0  0
    3.9433   53.3326   27.3399 H   0  0  0  0  0  0
    6.6881   53.9389   26.7919 H   0  0  0  0  0  0
    7.8942   54.3454   24.4510 H   0  0  0  0  0  0
    3.9362   55.2261   19.6827 H   0  0  0  0  0  0
    5.5950   55.7125   19.8358 H   0  0  0  0  0  0
    5.2219   53.8931   18.0331 H   0  0  0  0  0  0
    6.3002   53.2809   19.2840 H   0  0  0  0  0  0
    4.6340   51.6633   18.8212 H   0  0  0  0  0  0
    3.5594   53.1940   22.6934 H   0  0  0  0  0  0
    2.9343   53.8155   21.2516 H   0  0  0  0  0  0
    2.9178   50.7239   21.9180 H   0  0  0  0  0  0
    2.1055   51.4614   20.5438 H   0  0  0  0  0  0
    3.3030   50.1936   20.2910 H   0  0  0  0  0  0
    3.3957   52.7212   18.9496 H   0  0  0  0  0  0
  1  2  1  0  0  0
  1 40  1  0  0  0
  1 41  1  0  0  0
  1 42  1  0  0  0
  2  3  1  0  0  0
  2 43  1  0  0  0
  2 44  1  0  0  0
  3  4  2  0  0  0
  3  5  1  0  0  0
  5 14  1  0  0  0
  5  6  1  0  0  0
  6  7  1  0  0  0
  6 45  1  0  0  0
  6 46  1  0  0  0
  7  8  1  0  0  0
  7 47  1  0  0  0
  7 48  1  0  0  0
  8 13  2  0  0  0
  8  9  1  0  0  0
  9 10  2  0  0  0
  9 49  1  0  0  0
 10 11  1  0  0  0
 10 50  1  0  0  0
 11 12  2  0  0  0
 11 23  1  0  0  0
 12 13  1  0  0  0
 12 51  1  0  0  0
 13 14  1  0  0  0
 14 15  1  0  0  0
 14 16  1  0  0  0
 16 21  2  0  0  0
 16 17  1  0  0  0
 17 18  2  0  0  0
 17 52  1  0  0  0
 18 19  1  0  0  0
 18 53  1  0  0  0
 19 20  2  0  0  0
 19 54  1  0  0  0
 20 21  1  0  0  0
 20 22  1  0  0  0
 21 55  1  0  0  0
 23 24  1  0  0  0
 24 25  1  0  0  0
 24 56  1  0  0  0
 24 57  1  0  0  0
 25 29  1  0  0  0
 25 26  2  0  0  0
 26 27  1  0  0  0
 26 58  1  0  0  0
 27 28  2  0  0  0
 27 59  1  0  0  0
 28 29  1  0  0  0
 28 30  1  0  0  0
 30 31  2  0  0  0
 30 32  1  0  0  0
 32 38  1  0  0  0
 32 33  1  0  0  0
 33 34  1  0  0  0
 33 60  1  0  0  0
 33 61  1  0  0  0
 34 35  1  0  0  0
 34 62  1  0  0  0
 34 63  1  0  0  0
 35 36  1  0  0  0
 35 64  1  0  0  0
 35 70  1  0  0  0
 36 37  1  0  0  0
 36 38  1  0  0  0
 36 39  1  0  0  0
 38 65  1  0  0  0
 38 66  1  0  0  0
 39 67  1  0  0  0
 39 68  1  0  0  0
 39 69  1  0  0  0
M  CHG  1  35   1
M  END
> <i_i_glide_confnum>
409

> <i_i_glide_lignum>
5343

> <i_i_glide_posenum>
262

> <i_i_glide_rotatable_bonds>
8

> <i_m_Source_File_Index>
18

> <b_m_subgroup_collapsed>
0

> <r_i_docking_score>
-5.01004

> <r_i_glide_ecoul>
-5.43108

> <r_i_glide_eff_state_penalty>
0

> <r_i_glide_einternal>
6.15995

> <r_i_glide_emodel>
-60.6755

> <r_i_glide_energy>
-46.1386

> <r_i_glide_erotb>
0.558104

> <r_i_glide_esite>
-0.0928203

> <r_i_glide_evdw>
-40.7075

> <r_i_glide_gscore>
-5.01004

> <r_i_glide_hbond>
-0.2

> <r_i_glide_ligand_efficiency>
-0.135407

> <r_i_glide_ligand_efficiency_ln>
-1.08656

> <r_i_glide_ligand_efficiency_sa>
-0.451205

> <r_i_glide_lipo>
-1.92279

> <r_i_glide_metal>
0

> <r_i_glide_rewards>
-0.502498

> <s_i_glide_gridfile>
wee1_glide-grid

> <s_m_Source_File>
wee1_decoys_glide_SP.sdf

> <s_m_Source_Path>
/Users/zhangxujun/Desktop

> <s_m_entry_id>
293

> <s_m_entry_name>
wee1_decoys_glide_SP.18

> <s_m_subgroup_title>
wee1_decoys_glide_SP

> <s_m_subgroupid>
wee1_decoys_glide_SP


$$$$
