@<TRIPOS>MOLECULE
ZINC13548530_6136
44   45    1
SMALL
USER_CHARGES


@<TRIPOS>ATOM
      1 C1          6.7043   55.1008   21.9781 C.3       1 UNK         0.0000 
      2 C2          5.9235   54.4142   23.1120 C.3       1 UNK         0.0000 
      3 H3          6.2346   53.3675   23.1316 H         1 UNK         0.0000 
      4 C4          6.2389   55.0839   24.4789 C.3       1 UNK         0.0000 
      5 C5          6.2570   54.0932   25.6495 C.3       1 UNK         0.0000 
      6 C6          6.3010   54.7385   27.0386 C.3       1 UNK         0.0000 
      7 C7          6.1167   53.7107   28.1395 C.2       1 UNK         0.0000 
      8 C8          4.9562   53.3512   28.7227 C.2       1 UNK         0.0000 
      9 C9          3.5610   53.8870   28.4085 C.3       1 UNK         0.0000 
     10 H10         3.6405   54.7637   27.7676 H         1 UNK         0.0000 
     11 C11         2.7861   54.2628   29.6815 C.3       1 UNK         0.0000 
     12 C12         1.8188   53.1065   30.0076 C.3       1 UNK         0.0000 
     13 H13         0.8066   53.5068   29.9172 H         1 UNK         0.0000 
     14 C14         1.9954   52.0806   28.8943 C.3       1 UNK         0.0000 
     15 C15         2.6821   52.8205   27.7251 C.3       1 UNK         0.0000 
     16 H16         3.3414   52.0968   27.2623 H         1 UNK         0.0000 
     17 C17         1.7680   53.4188   26.6129 C.3       1 UNK         0.0000 
     18 H18         1.6295   54.4904   26.7781 H         1 UNK         0.0000 
     19 C19         2.3041   53.1950   25.2070 C.2       1 UNK         0.0000 
     20 C20         3.0701   54.0480   24.4954 C.2       1 UNK         0.0000 
     21 C21         3.5752   53.6973   23.1675 C.2       1 UNK         0.0000 
     22 O22         3.1046   52.7904   22.4816 O.2       1 UNK         0.0000 
     23 O23         4.5514   54.4967   22.7044 O.3       1 UNK         0.0000 
     24 O24         0.4717   52.8644   26.6384 O.3       1 UNK         0.0000 
     25 O25         1.9292   52.5041   31.2813 O.3       1 UNK         0.0000 
     26 H26         7.7811   55.0265   22.1325 H         1 UNK         0.0000 
     27 H27         6.4842   54.6403   21.0144 H         1 UNK         0.0000 
     28 H28         6.4522   56.1575   21.8979 H         1 UNK         0.0000 
     29 H29         5.5281   55.8873   24.6708 H         1 UNK         0.0000 
     30 H30         7.2156   55.5696   24.4444 H         1 UNK         0.0000 
     31 H31         5.3810   53.4484   25.5987 H         1 UNK         0.0000 
     32 H32         7.1048   53.4167   25.5375 H         1 UNK         0.0000 
     33 H33         7.2515   55.2420   27.2119 H         1 UNK         0.0000 
     34 H34         5.5328   55.5034   27.1179 H         1 UNK         0.0000 
     35 H35         7.0257   53.2276   28.4688 H         1 UNK         0.0000 
     36 H36         4.9906   52.5842   29.4841 H         1 UNK         0.0000 
     37 H37         3.4858   54.4888   30.4816 H         1 UNK         0.0000 
     38 H38         2.2269   55.1836   29.5048 H         1 UNK         0.0000 
     39 H39         1.0755   51.5489   28.6507 H         1 UNK         0.0000 
     40 H40         2.6805   51.3004   29.2327 H         1 UNK         0.0000 
     41 H41         2.0718   52.2245   24.7866 H         1 UNK         0.0000 
     42 H42         3.3549   55.0094   24.8938 H         1 UNK         0.0000 
     43 H43         0.5434   51.9077   26.6873 H         1 UNK         0.0000 
     44 H44         1.1156   52.0246   31.4669 H         1 UNK         0.0000 
@<TRIPOS>BOND
     1    1    2 1    
     2    1   26 1    
     3    1   27 1    
     4    1   28 1    
     5    2    3 1    
     6    2   23 1    
     7    2    4 1    
     8    4    5 1    
     9    4   29 1    
    10    4   30 1    
    11    5    6 1    
    12    5   31 1    
    13    5   32 1    
    14    6    7 1    
    15    6   33 1    
    16    6   34 1    
    17    7    8 2    
    18    7   35 1    
    19    8    9 1    
    20    8   36 1    
    21    9   10 1    
    22    9   15 1    
    23    9   11 1    
    24   11   12 1    
    25   11   37 1    
    26   11   38 1    
    27   12   13 1    
    28   12   14 1    
    29   12   25 1    
    30   14   15 1    
    31   14   39 1    
    32   14   40 1    
    33   15   16 1    
    34   15   17 1    
    35   17   18 1    
    36   17   19 1    
    37   17   24 1    
    38   19   20 2    
    39   19   41 1    
    40   20   21 1    
    41   20   42 1    
    42   21   22 2    
    43   21   23 1    
    44   24   43 1    
    45   25   44 1    
@<TRIPOS>SUBSTRUCTURE
     1 UNK         1 GROUP             0       ****    0 ROOT    
