@<TRIPOS>MOLECULE
ZINC39662189_2157
57   60    1
SMALL
USER_CHARGES


@<TRIPOS>ATOM
      1 C1          8.6377   55.7069   20.4696 C.ar      1 UNK         0.0000 
      2 C2          8.7859   55.2749   19.1561 C.ar      1 UNK         0.0000 
      3 C3          7.6891   54.7560   18.4813 C.ar      1 UNK         0.0000 
      4 C4          6.4411   54.7060   19.1088 C.ar      1 UNK         0.0000 
      5 C5          6.2920   55.2190   20.4037 C.ar      1 UNK         0.0000 
      6 C6          7.3966   55.6967   21.0960 C.ar      1 UNK         0.0000 
      7 C7          5.2633   54.1036   18.3515 C.3       1 UNK         0.0000 
      8 H8          5.6232   53.7674   17.3785 H         1 UNK         0.0000 
      9 C9          4.2679   55.1266   17.9835 C.1       1 UNK         0.0000 
     10 N10         3.4943   55.9303   17.6820 N.1       1 UNK         0.0000 
     11 N11         4.6872   52.8967   18.9494 N.am      1 UNK         0.0000 
     12 C12         3.8556   52.7841   20.0018 C.2       1 UNK         0.0000 
     13 O13         3.5324   53.7311   20.7065 O.2       1 UNK         0.0000 
     14 C14         3.3329   51.3629   20.3304 C.3       1 UNK         0.0000 
     15 H15         4.1821   50.6926   20.1951 H         1 UNK         0.0000 
     16 C16         2.7515   51.2423   21.7570 C.3       1 UNK         0.0000 
     17 N17         1.3307   51.5682   21.5814 N.am      1 UNK         0.0000 
     18 C18         0.8970   51.3857   20.1922 C.3       1 UNK         0.0000 
     19 C19         2.1477   50.9095   19.4141 C.3       1 UNK         0.0000 
     20 C20         2.1628   51.3952   17.9314 C.3       1 UNK         0.0000 
     21 C21         1.0012   50.8306   17.0967 C.3       1 UNK         0.0000 
     22 N22         1.1228   49.2938   17.1070 N.4       1 UNK         0.0000 
     23 C23         1.0741   48.7094   18.5329 C.3       1 UNK         0.0000 
     24 C24         2.2222   49.3490   19.3353 C.3       1 UNK         0.0000 
     25 C25         0.5249   52.1820   22.4887 C.2       1 UNK         0.0000 
     26 O26        -0.6500   52.4688   22.2488 O.2       1 UNK         0.0000 
     27 C27         1.0845   52.5478   23.8418 C.ar      1 UNK         0.0000 
     28 C28         2.1022   53.5081   23.9308 C.ar      1 UNK         0.0000 
     29 C29         2.6342   53.8664   25.1682 C.ar      1 UNK         0.0000 
     30 C30         2.1286   53.2968   26.3362 C.ar      1 UNK         0.0000 
     31 C31         1.1045   52.3533   26.2617 C.ar      1 UNK         0.0000 
     32 C32         0.5881   51.9629   25.0235 C.ar      1 UNK         0.0000 
     33 Cl33       -0.6515   50.7520   25.0112 Cl        1 UNK         0.0000 
     34 Cl34        2.7690   53.7629   27.8685 Cl        1 UNK         0.0000 
     35 H35         9.4930   56.0952   20.9955 H         1 UNK         0.0000 
     36 H36         9.7548   55.3105   18.6804 H         1 UNK         0.0000 
     37 H37         7.8172   54.3870   17.4715 H         1 UNK         0.0000 
     38 H38         5.3319   55.2411   20.8922 H         1 UNK         0.0000 
     39 H39         7.2954   56.0609   22.1071 H         1 UNK         0.0000 
     40 H40         4.9599   52.0135   18.5071 H         1 UNK         0.0000 
     41 H41         2.8583   50.2016   22.0647 H         1 UNK         0.0000 
     42 H42         3.3076   51.8664   22.4586 H         1 UNK         0.0000 
     43 H43         0.6662   52.3855   19.8174 H         1 UNK         0.0000 
     44 H44         0.0069   50.7743   20.0446 H         1 UNK         0.0000 
     45 H45         2.1112   52.4857   17.8882 H         1 UNK         0.0000 
     46 H46         3.1054   51.1325   17.4521 H         1 UNK         0.0000 
     47 H47         0.0148   51.0894   17.4856 H         1 UNK         0.0000 
     48 H48         1.0652   51.1352   16.0511 H         1 UNK         0.0000 
     49 H49         0.4167   48.8723   16.5190 H         1 UNK         0.0000 
     50 H50         0.0807   48.9057   18.9356 H         1 UNK         0.0000 
     51 H51         1.2074   47.6311   18.4247 H         1 UNK         0.0000 
     52 H52         3.1770   49.0327   18.9115 H         1 UNK         0.0000 
     53 H53         2.2048   48.9145   20.3349 H         1 UNK         0.0000 
     54 H54         2.4865   53.9879   23.0407 H         1 UNK         0.0000 
     55 H55         3.4229   54.6016   25.2215 H         1 UNK         0.0000 
     56 H56         0.7189   51.9073   27.1670 H         1 UNK         0.0000 
     57 H57         2.0298   49.0605   16.7086 H         1 UNK         0.0000 
@<TRIPOS>BOND
     1    1    6 ar   
     2    1    2 ar   
     3    1   35 1    
     4    2    3 ar   
     5    2   36 1    
     6    3    4 ar   
     7    3   37 1    
     8    4    5 ar   
     9    4    7 1    
    10    5    6 ar   
    11    5   38 1    
    12    6   39 1    
    13    7    8 1    
    14    7    9 1    
    15    7   11 1    
    16    9   10 3    
    17   11   12 am   BACKBONE|DICT|INTERRES
    18   11   40 1    
    19   12   13 2    
    20   12   14 1    
    21   14   15 1    
    22   14   19 1    
    23   14   16 1    
    24   16   17 1    
    25   16   41 1    
    26   16   42 1    
    27   17   18 1    
    28   17   25 am   BACKBONE|DICT|INTERRES
    29   18   19 1    
    30   18   43 1    
    31   18   44 1    
    32   19   24 1    
    33   19   20 1    
    34   20   21 1    
    35   20   45 1    
    36   20   46 1    
    37   21   22 1    
    38   21   47 1    
    39   21   48 1    
    40   22   23 1    
    41   22   49 1    
    42   22   57 1    
    43   23   24 1    
    44   23   50 1    
    45   23   51 1    
    46   24   52 1    
    47   24   53 1    
    48   25   26 2    
    49   25   27 1    
    50   27   32 ar   
    51   27   28 ar   
    52   28   29 ar   
    53   28   54 1    
    54   29   30 ar   
    55   29   55 1    
    56   30   31 ar   
    57   30   34 1    
    58   31   32 ar   
    59   31   56 1    
    60   32   33 1    
@<TRIPOS>SUBSTRUCTURE
     1 UNK         1 GROUP             0       ****    0 ROOT    
