@<TRIPOS>MOLECULE
ZINC49122879_1601
42   43    1
SMALL
USER_CHARGES


@<TRIPOS>ATOM
      1 C1          3.1421   54.6362   28.7604 C.3       1 UNK         0.0000 
      2 C2          2.9047   53.9215   27.4208 C.3       1 UNK         0.0000 
      3 C3          3.7184   54.4740   26.2163 C.3       1 UNK         0.0000 
      4 H4          3.5043   55.5358   26.0889 H         1 UNK         0.0000 
      5 C5          5.2487   54.3677   26.4411 C.3       1 UNK         0.0000 
      6 C6          6.0458   54.9875   25.2781 C.3       1 UNK         0.0000 
      7 C7          5.6883   54.3111   23.9423 C.3       1 UNK         0.0000 
      8 C8          4.1684   54.2722   23.6840 C.3       1 UNK         0.0000 
      9 C9          3.3512   53.7480   24.8891 C.3       1 UNK         0.0000 
     10 H10         3.5046   52.6795   25.0096 H         1 UNK         0.0000 
     11 N11         1.9284   53.9995   24.5625 N.pl3     1 UNK         0.0000 
     12 S12         0.8405   52.6456   24.2789 S.o2      1 UNK         0.0000 
     13 O13         0.9916   51.7045   25.3922 O.2       1 UNK         0.0000 
     14 O14        -0.4687   53.2058   23.9296 O.2       1 UNK         0.0000 
     15 C15         1.4755   51.8550   22.8030 C.ar      1 UNK         0.0000 
     16 C16         1.7522   50.4844   22.7567 C.ar      1 UNK         0.0000 
     17 C17         2.3074   49.9615   21.5865 C.ar      1 UNK         0.0000 
     18 N18         2.6171   50.7285   20.5049 N.ar      1 UNK         0.0000 
     19 C19         2.3401   52.0608   20.5628 C.ar      1 UNK         0.0000 
     20 C20         1.7468   52.6398   21.6818 C.ar      1 UNK         0.0000 
     21 N21         2.7042   52.8953   19.4960 N.pl3     1 UNK         0.0000 
     22 N22         3.3084   52.4303   18.2628 N.3       1 UNK         0.0000 
     23 H23         2.4788   54.2397   29.5298 H         1 UNK         0.0000 
     24 H24         4.1634   54.5079   29.1187 H         1 UNK         0.0000 
     25 H25         2.9432   55.7024   28.6775 H         1 UNK         0.0000 
     26 H26         1.8376   53.9849   27.1985 H         1 UNK         0.0000 
     27 H27         3.1118   52.8570   27.5411 H         1 UNK         0.0000 
     28 H28         5.5329   53.3231   26.5895 H         1 UNK         0.0000 
     29 H29         5.5343   54.8660   27.3687 H         1 UNK         0.0000 
     30 H30         5.8410   56.0572   25.2168 H         1 UNK         0.0000 
     31 H31         7.1167   54.8910   25.4647 H         1 UNK         0.0000 
     32 H32         6.1943   54.8218   23.1216 H         1 UNK         0.0000 
     33 H33         6.0817   53.2965   23.9436 H         1 UNK         0.0000 
     34 H34         3.8249   55.2722   23.4364 H         1 UNK         0.0000 
     35 H35         3.9723   53.6732   22.7953 H         1 UNK         0.0000 
     36 H36         1.7082   54.8787   24.0902 H         1 UNK         0.0000 
     37 H37         1.5584   49.8436   23.6067 H         1 UNK         0.0000 
     38 H38         2.5500   48.9122   21.5086 H         1 UNK         0.0000 
     39 H39         1.5407   53.6968   21.6920 H         1 UNK         0.0000 
     40 H40         2.4659   53.8847   19.4864 H         1 UNK         0.0000 
     41 H41         4.1946   51.9725   18.4732 H         1 UNK         0.0000 
     42 H42         2.6830   51.7741   17.8155 H         1 UNK         0.0000 
@<TRIPOS>BOND
     1    1    2 1    
     2    1   23 1    
     3    1   24 1    
     4    1   25 1    
     5    2    3 1    
     6    2   26 1    
     7    2   27 1    
     8    3    4 1    
     9    3    9 1    
    10    3    5 1    
    11    5    6 1    
    12    5   28 1    
    13    5   29 1    
    14    6    7 1    
    15    6   30 1    
    16    6   31 1    
    17    7    8 1    
    18    7   32 1    
    19    7   33 1    
    20    8    9 1    
    21    8   34 1    
    22    8   35 1    
    23    9   10 1    
    24    9   11 1    
    25   11   12 1    
    26   11   36 1    
    27   12   13 2    
    28   12   14 2    
    29   12   15 1    
    30   15   20 ar   
    31   15   16 ar   
    32   16   17 ar   
    33   16   37 1    
    34   17   18 ar   
    35   17   38 1    
    36   18   19 ar   
    37   19   20 ar   
    38   19   21 1    
    39   20   39 1    
    40   21   22 1    
    41   21   40 1    
    42   22   41 1    
    43   22   42 1    
@<TRIPOS>SUBSTRUCTURE
     1 UNK         1 GROUP             0       ****    0 ROOT    
