@<TRIPOS>MOLECULE
ZINC09209200_487
54   58    1
SMALL
USER_CHARGES


@<TRIPOS>ATOM
      1 C1          0.5495   50.9095   20.7697 C.3       1 UNK         0.0000 
      2 C2          1.4838   52.0614   21.2020 C.3       1 UNK         0.0000 
      3 H3          1.2620   52.8964   20.5363 H         1 UNK         0.0000 
      4 C4          1.2134   52.5851   22.6286 C.2       1 UNK         0.0000 
      5 O5          1.3745   53.7796   22.8816 O.2       1 UNK         0.0000 
      6 N6          0.7867   51.6927   23.5408 N.am      1 UNK         0.0000 
      7 C7          0.6173   51.9185   24.9006 C.2       1 UNK         0.0000 
      8 C8         -0.3457   51.3011   25.7245 C.2       1 UNK         0.0000 
      9 C9         -0.1734   51.7271   27.0668 C.2       1 UNK         0.0000 
     10 C10         0.8991   52.5734   27.2495 C.2       1 UNK         0.0000 
     11 S11         1.7272   52.9453   25.7901 S.3       1 UNK         0.0000 
     12 C12         1.0979   52.9989   28.6770 C.3       1 UNK         0.0000 
     13 C13        -0.2255   52.5538   29.3128 C.3       1 UNK         0.0000 
     14 C14        -0.8314   51.4707   28.4019 C.3       1 UNK         0.0000 
     15 C15        -1.4092   50.4492   25.2097 C.2       1 UNK         0.0000 
     16 O16        -1.7163   50.4269   24.0196 O.2       1 UNK         0.0000 
     17 N17        -2.0662   49.6937   26.0818 N.am      1 UNK         0.0000 
     18 S18         3.2452   51.6071   20.9861 S.3       1 UNK         0.0000 
     19 C19         3.7230   52.8951   19.8714 C.ar      1 UNK         0.0000 
     20 N20         3.3123   52.8872   18.6318 N.2       1 UNK         0.0000 
     21 N21         3.8515   53.9909   18.0064 N.2       1 UNK         0.0000 
     22 C22         4.5701   54.6496   18.8826 C.ar      1 UNK         0.0000 
     23 N23         4.5420   53.9961   20.1210 N.pl3     1 UNK         0.0000 
     24 C24         5.2063   54.3345   21.3368 C.ar      1 UNK         0.0000 
     25 C25         4.6191   54.0968   22.5860 C.ar      1 UNK         0.0000 
     26 C26         5.2704   54.4302   23.7696 C.ar      1 UNK         0.0000 
     27 C27         6.5142   55.0440   23.7100 C.ar      1 UNK         0.0000 
     28 C28         7.1044   55.2966   22.4771 C.ar      1 UNK         0.0000 
     29 C29         6.4807   54.8970   21.3034 C.ar      1 UNK         0.0000 
     30 C30         5.2646   55.8993   18.4707 C.2       1 UNK         0.0000 
     31 C31         5.9041   56.9712   19.0934 C.2       1 UNK         0.0000 
     32 C32         6.3090   57.8695   18.1061 C.2       1 UNK         0.0000 
     33 C33         5.9171   57.3135   16.9058 C.2       1 UNK         0.0000 
     34 O34         5.2918   56.1314   17.1257 O.3       1 UNK         0.0000 
     35 H35        -0.5014   51.1643   20.9134 H         1 UNK         0.0000 
     36 H36         0.6834   50.6860   19.7109 H         1 UNK         0.0000 
     37 H37         0.7529   49.9904   21.3207 H         1 UNK         0.0000 
     38 H38         0.3650   50.8461   23.1872 H         1 UNK         0.0000 
     39 H39         1.2379   54.0750   28.7877 H         1 UNK         0.0000 
     40 H40         1.9556   52.5044   29.1338 H         1 UNK         0.0000 
     41 H41        -0.8956   53.4102   29.3690 H         1 UNK         0.0000 
     42 H42        -0.0948   52.2019   30.3375 H         1 UNK         0.0000 
     43 H43        -0.5450   50.4968   28.7814 H         1 UNK         0.0000 
     44 H44        -1.9209   51.5125   28.3816 H         1 UNK         0.0000 
     45 H45        -2.8427   49.1433   25.7539 H         1 UNK         0.0000 
     46 H46        -1.6961   49.4787   27.0098 H         1 UNK         0.0000 
     47 H47         3.6593   53.6416   22.6632 H         1 UNK         0.0000 
     48 H48         4.8033   54.2279   24.7227 H         1 UNK         0.0000 
     49 H49         7.0237   55.3290   24.6181 H         1 UNK         0.0000 
     50 H50         8.0635   55.7834   22.4215 H         1 UNK         0.0000 
     51 H51         7.0079   55.0253   20.3700 H         1 UNK         0.0000 
     52 H52         6.0165   57.1278   20.1544 H         1 UNK         0.0000 
     53 H53         6.8037   58.8210   18.2432 H         1 UNK         0.0000 
     54 H54         5.9914   57.6347   15.8764 H         1 UNK         0.0000 
@<TRIPOS>BOND
     1    1    2 1    
     2    1   35 1    
     3    1   36 1    
     4    1   37 1    
     5    2    3 1    
     6    2    4 1    
     7    2   18 1    
     8    4    5 2    
     9    4    6 am   BACKBONE|DICT|INTERRES
    10    6    7 am   BACKBONE|DICT|INTERRES
    11    6   38 1    
    12    7   11 1    
    13    7    8 2    
    14    8    9 1    
    15    8   15 1    
    16    9   14 1    
    17    9   10 2    
    18   10   11 1    
    19   10   12 1    
    20   12   13 1    
    21   12   39 1    
    22   12   40 1    
    23   13   14 1    
    24   13   41 1    
    25   13   42 1    
    26   14   43 1    
    27   14   44 1    
    28   15   16 2    
    29   15   17 am   BACKBONE|DICT|INTERRES
    30   17   45 1    
    31   17   46 1    
    32   18   19 1    
    33   19   23 ar   
    34   19   20 ar   
    35   20   21 ar   
    36   21   22 ar   
    37   22   23 ar   
    38   22   30 1    
    39   23   24 1    
    40   24   29 ar   
    41   24   25 ar   
    42   25   26 ar   
    43   25   47 1    
    44   26   27 ar   
    45   26   48 1    
    46   27   28 ar   
    47   27   49 1    
    48   28   29 ar   
    49   28   50 1    
    50   29   51 1    
    51   30   34 1    
    52   30   31 2    
    53   31   32 1    
    54   31   52 1    
    55   32   33 2    
    56   32   53 1    
    57   33   34 1    
    58   33   54 1    
@<TRIPOS>SUBSTRUCTURE
     1 UNK         1 GROUP             0       ****    0 ROOT    
