@<TRIPOS>MOLECULE
ZINC08934571_2287
53   55    1
SMALL
USER_CHARGES


@<TRIPOS>ATOM
      1 C1          6.5415   54.9748   26.9395 C.3       1 UNK         0.0000 
      2 C2          5.6139   54.6152   25.7953 C.ar      1 UNK         0.0000 
      3 C3          4.2593   54.3904   26.0436 C.ar      1 UNK         0.0000 
      4 C4          3.4165   54.0103   25.0032 C.ar      1 UNK         0.0000 
      5 C5          3.9263   53.8440   23.7136 C.ar      1 UNK         0.0000 
      6 C6          5.2798   54.0956   23.4617 C.ar      1 UNK         0.0000 
      7 C7          6.1220   54.4807   24.5024 C.ar      1 UNK         0.0000 
      8 S8          2.7964   53.2881   22.4285 S.o2      1 UNK         0.0000 
      9 O9          2.7043   51.8270   22.5019 O.2       1 UNK         0.0000 
     10 O10         1.5873   54.0964   22.6031 O.2       1 UNK         0.0000 
     11 N11         3.5044   53.6968   20.8717 N.am      1 UNK         0.0000 
     12 C12         4.5406   52.9822   20.2425 C.2       1 UNK         0.0000 
     13 O13         5.1044   52.0686   20.8445 O.2       1 UNK         0.0000 
     14 N14         4.8705   53.3761   18.9853 N.am      1 UNK         0.0000 
     15 C15         4.0678   54.1326   17.9907 C.3       1 UNK         0.0000 
     16 H16         3.0872   54.3985   18.3887 H         1 UNK         0.0000 
     17 C17         4.7181   55.4172   17.4087 C.3       1 UNK         0.0000 
     18 S18         5.6985   54.8639   15.9867 S.3       1 UNK         0.0000 
     19 C19         4.6456   53.4660   15.7402 C.2       1 UNK         0.0000 
     20 S20         4.8306   52.5698   14.3459 S.2       1 UNK         0.0000 
     21 N21         3.8158   53.2825   16.8180 N.pl3     1 UNK         0.0000 
     22 C22         2.9432   52.0963   16.9482 C.3       1 UNK         0.0000 
     23 C23         1.5146   52.4081   17.3690 C.ar      1 UNK         0.0000 
     24 C24         0.7180   53.2328   16.5693 C.ar      1 UNK         0.0000 
     25 C25        -0.6046   53.4787   16.9283 C.ar      1 UNK         0.0000 
     26 C26        -1.1253   52.8969   18.0816 C.ar      1 UNK         0.0000 
     27 C27        -0.3300   52.0857   18.8890 C.ar      1 UNK         0.0000 
     28 C28         0.9930   51.8391   18.5327 C.ar      1 UNK         0.0000 
     29 F29        -2.4099   53.1353   18.4339 F         1 UNK         0.0000 
     30 C30         3.6690   56.4165   16.8686 C.3       1 UNK         0.0000 
     31 C31         5.6581   56.1545   18.3899 C.3       1 UNK         0.0000 
     32 O32         6.1039   52.8967   18.5203 O.3       1 UNK         0.0000 
     33 H33         7.5044   54.4771   26.8258 H         1 UNK         0.0000 
     34 H34         6.1385   54.6542   27.9013 H         1 UNK         0.0000 
     35 H35         6.7044   56.0500   26.9683 H         1 UNK         0.0000 
     36 H36         3.8604   54.4932   27.0423 H         1 UNK         0.0000 
     37 H37         2.3716   53.8204   25.2039 H         1 UNK         0.0000 
     38 H38         5.7009   53.9846   22.4762 H         1 UNK         0.0000 
     39 H39         7.1699   54.6547   24.3019 H         1 UNK         0.0000 
     40 H40         2.9693   54.4064   20.3587 H         1 UNK         0.0000 
     41 H41         2.8744   51.5142   16.0294 H         1 UNK         0.0000 
     42 H42         3.4046   51.4150   17.6658 H         1 UNK         0.0000 
     43 H43         1.1198   53.6713   15.6669 H         1 UNK         0.0000 
     44 H44        -1.2265   54.1109   16.3124 H         1 UNK         0.0000 
     45 H45        -0.7382   51.6463   19.7867 H         1 UNK         0.0000 
     46 H46         1.6064   51.2019   19.1553 H         1 UNK         0.0000 
     47 H47         3.0957   56.8519   17.6818 H         1 UNK         0.0000 
     48 H48         4.1375   57.2448   16.3343 H         1 UNK         0.0000 
     49 H49         2.9617   55.9448   16.1850 H         1 UNK         0.0000 
     50 H50         5.1195   56.4700   19.2822 H         1 UNK         0.0000 
     51 H51         6.4933   55.5321   18.7122 H         1 UNK         0.0000 
     52 H52         6.0855   57.0500   17.9366 H         1 UNK         0.0000 
     53 H53         5.9045   51.9598   18.3261 H         1 UNK         0.0000 
@<TRIPOS>BOND
     1    1    2 1    
     2    1   33 1    
     3    1   34 1    
     4    1   35 1    
     5    2    7 ar   
     6    2    3 ar   
     7    3    4 ar   
     8    3   36 1    
     9    4    5 ar   
    10    4   37 1    
    11    5    6 ar   
    12    5    8 1    
    13    6    7 ar   
    14    6   38 1    
    15    7   39 1    
    16    8    9 2    
    17    8   10 2    
    18    8   11 1    
    19   11   12 am   BACKBONE|DICT|INTERRES
    20   11   40 1    
    21   12   13 2    
    22   12   14 am   BACKBONE|DICT|INTERRES
    23   14   15 1    
    24   14   32 1    
    25   15   16 1    
    26   15   21 1    
    27   15   17 1    
    28   17   18 1    
    29   17   30 1    
    30   17   31 1    
    31   18   19 1    
    32   19   20 2    
    33   19   21 1    
    34   21   22 1    
    35   22   23 1    
    36   22   41 1    
    37   22   42 1    
    38   23   28 ar   
    39   23   24 ar   
    40   24   25 ar   
    41   24   43 1    
    42   25   26 ar   
    43   25   44 1    
    44   26   27 ar   
    45   26   29 1    
    46   27   28 ar   
    47   27   45 1    
    48   28   46 1    
    49   30   47 1    
    50   30   48 1    
    51   30   49 1    
    52   31   50 1    
    53   31   51 1    
    54   31   52 1    
    55   32   53 1    
@<TRIPOS>SUBSTRUCTURE
     1 UNK         1 GROUP             0       ****    0 ROOT    
