ZINC04095177_4694
                    3D
 Schrodinger Suite 2024-2.
 31 33  0  0  1  0            999 V2000
    1.8342   56.0971   29.6938 C   0  0  0  0  0  0
    1.2463   54.7063   29.7484 C   0  0  0  0  0  0
    1.2381   53.7347   28.7321 C   0  0  0  0  0  0
    0.5631   52.6758   29.3010 C   0  0  0  0  0  0
    0.2322   53.0268   30.5737 N   0  0  0  0  0  0
   -0.2854   52.4564   31.2328 H   0  0  0  0  0  0
    0.6418   54.2740   30.8457 N   0  0  0  0  0  0
    0.2153   51.4839   28.7190 O   0  0  0  0  0  0
    0.4758   51.4432   27.3779 C   0  0  0  0  0  0
    1.1502   52.3809   26.6571 C   0  0  0  0  0  0
    1.7738   53.6382   27.3014 C   0  0  2  0  0  0
    1.3637   54.4967   26.7815 H   0  0  0  0  0  0
    3.2968   53.8114   27.1153 C   0  0  0  0  0  0
    4.2239   53.4113   28.0968 C   0  0  0  0  0  0
    5.5892   53.6537   27.9209 C   0  0  0  0  0  0
    6.0547   54.2651   26.7601 C   0  0  0  0  0  0
    5.1555   54.6335   25.7642 C   0  0  0  0  0  0
    3.7891   54.4066   25.9369 C   0  0  0  0  0  0
    2.9445   54.7788   24.9465 F   0  0  0  0  0  0
    5.6080   55.2249   24.6334 F   0  0  0  0  0  0
    7.3788   54.4981   26.5999 F   0  0  0  0  0  0
    6.4696   53.2974   28.8814 F   0  0  0  0  0  0
    3.8204   52.7898   29.2305 F   0  0  0  0  0  0
    1.2457   52.2430   25.2385 C   0  0  0  0  0  0
    1.2989   52.1279   24.0889 N   0  0  0  0  0  0
   -0.0955   50.3012   26.8816 N   0  0  0  0  0  0
    1.4779   56.6498   28.8249 H   0  0  0  0  0  0
    2.9215   56.0640   29.6266 H   0  0  0  0  0  0
    1.5867   56.6970   30.5712 H   0  0  0  0  0  0
    0.0141   50.0385   25.9140 H   0  0  0  0  0  0
   -0.5806   49.6378   27.4887 H   0  0  0  0  0  0
  1  2  1  0  0  0
  1 27  1  0  0  0
  1 28  1  0  0  0
  1 29  1  0  0  0
  2  7  2  0  0  0
  2  3  1  0  0  0
  3 11  1  0  0  0
  3  4  2  0  0  0
  4  5  1  0  0  0
  4  8  1  0  0  0
  5  6  1  0  0  0
  5  7  1  0  0  0
  8  9  1  0  0  0
  9 10  2  0  0  0
  9 26  1  0  0  0
 10 11  1  0  0  0
 10 24  1  0  0  0
 11 12  1  0  0  0
 11 13  1  0  0  0
 13 18  2  0  0  0
 13 14  1  0  0  0
 14 15  2  0  0  0
 14 23  1  0  0  0
 15 16  1  0  0  0
 15 22  1  0  0  0
 16 17  2  0  0  0
 16 21  1  0  0  0
 17 18  1  0  0  0
 17 20  1  0  0  0
 18 19  1  0  0  0
 24 25  3  0  0  0
 26 30  1  0  0  0
 26 31  1  0  0  0
M  END
> <i_i_glide_confnum>
1

> <i_i_glide_lignum>
4695

> <i_i_glide_posenum>
378

> <i_i_glide_rotatable_bonds>
2

> <i_m_Source_File_Index>
1395

> <b_m_subgroup_collapsed>
0

> <r_i_docking_score>
-7.76842

> <r_i_glide_ecoul>
-5.97225

> <r_i_glide_eff_state_penalty>
0

> <r_i_glide_einternal>
3.83907

> <r_i_glide_emodel>
-56.2786

> <r_i_glide_energy>
-40.2923

> <r_i_glide_erotb>
0.161888

> <r_i_glide_esite>
-0.157092

> <r_i_glide_evdw>
-34.32

> <r_i_glide_gscore>
-7.76842

> <r_i_glide_hbond>
-0.166271

> <r_i_glide_ligand_efficiency>
-0.323684

> <r_i_glide_ligand_efficiency_ln>
-1.85934

> <r_i_glide_ligand_efficiency_sa>
-0.933667

> <r_i_glide_lipo>
-2.80439

> <r_i_glide_metal>
0

> <r_i_glide_rewards>
-2.19072

> <s_i_glide_gridfile>
wee1_glide-grid

> <s_m_Source_File>
wee1_decoys_glide_SP.sdf

> <s_m_Source_Path>
/Users/zhangxujun/Desktop

> <s_m_entry_id>
1670

> <s_m_entry_name>
wee1_decoys_glide_SP.1395

> <s_m_subgroup_title>
wee1_decoys_glide_SP

> <s_m_subgroupid>
wee1_decoys_glide_SP


$$$$
