@<TRIPOS>MOLECULE
ZINC40399796_597
67   70    1
SMALL
USER_CHARGES


@<TRIPOS>ATOM
      1 C1         -1.2258   48.6402   19.8676 C.3       1 UNK         0.0000 
      2 C2         -0.6191   48.8493   21.2632 C.3       1 UNK         0.0000 
      3 C3          0.8855   49.2058   21.2532 C.3       1 UNK         0.0000 
      4 H4          1.3896   48.3651   20.7724 H         1 UNK         0.0000 
      5 C5          1.3982   49.2700   22.7168 C.3       1 UNK         0.0000 
      6 C6          1.1811   50.4972   20.4182 C.3       1 UNK         0.0000 
      7 H7          0.7267   50.4850   19.4271 H         1 UNK         0.0000 
      8 C8          0.8759   51.8084   21.1635 C.2       1 UNK         0.0000 
      9 O9         -0.2435   52.0970   21.5872 O.2       1 UNK         0.0000 
     10 N10         2.0255   52.4998   21.3122 N.am      1 UNK         0.0000 
     11 C11         3.1119   51.9792   20.4680 C.3       1 UNK         0.0000 
     12 N12         2.6557   50.5558   20.1718 N.4       1 UNK         0.0000 
     13 C13         4.4991   51.8980   21.1264 C.3       1 UNK         0.0000 
     14 C14         5.1710   53.2726   21.2859 C.3       1 UNK         0.0000 
     15 N15         5.3064   53.8364   19.9267 N.pl3     1 UNK         0.0000 
     16 C16         4.0522   54.0599   19.1784 C.3       1 UNK         0.0000 
     17 C17         3.2601   52.7300   19.1130 C.3       1 UNK         0.0000 
     18 C18         6.4110   54.5543   19.5547 C.2       1 UNK         0.0000 
     19 S19         7.1056   55.6997   20.5682 S.2       1 UNK         0.0000 
     20 N20         6.8628   54.2225   18.3042 N.pl3     1 UNK         0.0000 
     21 C21         7.9579   54.6878   17.5558 C.ar      1 UNK         0.0000 
     22 C22         7.7262   55.0239   16.2198 C.ar      1 UNK         0.0000 
     23 C23         8.7807   55.4598   15.4207 C.ar      1 UNK         0.0000 
     24 C24        10.0641   55.5482   15.9547 C.ar      1 UNK         0.0000 
     25 C25        10.3037   55.2012   17.2819 C.ar      1 UNK         0.0000 
     26 C26         9.2529   54.7649   18.0838 C.ar      1 UNK         0.0000 
     27 F27        11.0855   55.9733   15.1778 F         1 UNK         0.0000 
     28 C28         2.0610   53.7264   22.1363 C.3       1 UNK         0.0000 
     29 C29         2.3423   53.5995   23.6354 C.ar      1 UNK         0.0000 
     30 C30         3.4089   54.3005   24.2086 C.ar      1 UNK         0.0000 
     31 C31         3.6205   54.2798   25.5851 C.ar      1 UNK         0.0000 
     32 C32         2.7532   53.5705   26.4105 C.ar      1 UNK         0.0000 
     33 C33         1.6728   52.8690   25.8638 C.ar      1 UNK         0.0000 
     34 C34         1.4744   52.8895   24.4744 C.ar      1 UNK         0.0000 
     35 C35         0.7556   52.0616   26.7837 C.3       1 UNK         0.0000 
     36 F36         1.4733   51.4199   27.7081 F         1 UNK         0.0000 
     37 F37         0.0469   51.1580   26.1063 F         1 UNK         0.0000 
     38 F38        -0.0886   52.8849   27.4031 F         1 UNK         0.0000 
     39 H39        -2.0943   47.9830   19.9165 H         1 UNK         0.0000 
     40 H40        -1.5562   49.5858   19.4367 H         1 UNK         0.0000 
     41 H41        -0.5109   48.1879   19.1791 H         1 UNK         0.0000 
     42 H42        -0.7739   47.9384   21.8430 H         1 UNK         0.0000 
     43 H43        -1.1823   49.6228   21.7872 H         1 UNK         0.0000 
     44 H44         0.9792   50.1100   23.2692 H         1 UNK         0.0000 
     45 H45         1.1063   48.3896   23.2848 H         1 UNK         0.0000 
     46 H46         2.4842   49.3473   22.7686 H         1 UNK         0.0000 
     47 H47         3.1407   49.9212   20.7885 H         1 UNK         0.0000 
     48 H48         4.4196   51.3987   22.0817 H         1 UNK         0.0000 
     49 H49         5.1594   51.2654   20.5317 H         1 UNK         0.0000 
     50 H50         4.5771   53.9684   21.8513 H         1 UNK         0.0000 
     51 H51         6.0875   53.1972   21.8634 H         1 UNK         0.0000 
     52 H52         3.5044   54.8324   19.7109 H         1 UNK         0.0000 
     53 H53         4.2273   54.4345   18.1675 H         1 UNK         0.0000 
     54 H54         3.7803   52.0960   18.3924 H         1 UNK         0.0000 
     55 H55         2.2834   52.9109   18.6607 H         1 UNK         0.0000 
     56 H56         6.2435   53.6257   17.7750 H         1 UNK         0.0000 
     57 H57         6.7339   54.9563   15.7972 H         1 UNK         0.0000 
     58 H58         8.6080   55.7277   14.3892 H         1 UNK         0.0000 
     59 H59        11.3012   55.2712   17.6896 H         1 UNK         0.0000 
     60 H60         9.4560   54.4934   19.1096 H         1 UNK         0.0000 
     61 H61         1.1044   54.2260   22.0821 H         1 UNK         0.0000 
     62 H62         2.7126   54.4659   21.6819 H         1 UNK         0.0000 
     63 H63         4.0717   54.8963   23.6036 H         1 UNK         0.0000 
     64 H64         4.4492   54.8253   26.0133 H         1 UNK         0.0000 
     65 H65         2.9262   53.5604   27.4775 H         1 UNK         0.0000 
     66 H66         0.6289   52.3696   24.0487 H         1 UNK         0.0000 
     67 H67         2.9212   50.2938   19.2287 H         1 UNK         0.0000 
@<TRIPOS>BOND
     1    1    2 1    
     2    1   39 1    
     3    1   40 1    
     4    1   41 1    
     5    2    3 1    
     6    2   42 1    
     7    2   43 1    
     8    3    4 1    
     9    3    5 1    
    10    3    6 1    
    11    5   44 1    
    12    5   45 1    
    13    5   46 1    
    14    6    7 1    
    15    6   12 1    
    16    6    8 1    
    17    8    9 2    
    18    8   10 am   BACKBONE|DICT|INTERRES
    19   10   11 1    
    20   10   28 1    
    21   11   17 1    
    22   11   12 1    
    23   11   13 1    
    24   12   47 1    
    25   12   67 1    
    26   13   14 1    
    27   13   48 1    
    28   13   49 1    
    29   14   15 1    
    30   14   50 1    
    31   14   51 1    
    32   15   16 1    
    33   15   18 1    
    34   16   17 1    
    35   16   52 1    
    36   16   53 1    
    37   17   54 1    
    38   17   55 1    
    39   18   19 2    
    40   18   20 1    
    41   20   21 1    
    42   20   56 1    
    43   21   26 ar   
    44   21   22 ar   
    45   22   23 ar   
    46   22   57 1    
    47   23   24 ar   
    48   23   58 1    
    49   24   25 ar   
    50   24   27 1    
    51   25   26 ar   
    52   25   59 1    
    53   26   60 1    
    54   28   29 1    
    55   28   61 1    
    56   28   62 1    
    57   29   34 ar   
    58   29   30 ar   
    59   30   31 ar   
    60   30   63 1    
    61   31   32 ar   
    62   31   64 1    
    63   32   33 ar   
    64   32   65 1    
    65   33   34 ar   
    66   33   35 1    
    67   34   66 1    
    68   35   36 1    
    69   35   37 1    
    70   35   38 1    
@<TRIPOS>SUBSTRUCTURE
     1 UNK         1 GROUP             0       ****    0 ROOT    
