@<TRIPOS>MOLECULE
ZINC40875872_5561
75   79    1
SMALL
USER_CHARGES


@<TRIPOS>ATOM
      1 C1          5.0389   53.9026   17.5360 C.3       1 UNK         0.0000 
      2 C2          6.0833   54.9377   17.9917 C.3       1 UNK         0.0000 
      3 C3          6.2461   55.0272   19.4963 C.2       1 UNK         0.0000 
      4 N4          5.5028   54.4979   20.4303 N.2       1 UNK         0.0000 
      5 C5          6.1191   54.8804   21.5328 C.2       1 UNK         0.0000 
      6 N6          7.1828   55.6414   21.3619 N.2       1 UNK         0.0000 
      7 O7          7.2840   55.7526   19.9782 O.3       1 UNK         0.0000 
      8 C8          5.6193   54.4973   22.8960 C.ar      1 UNK         0.0000 
      9 C9          6.4599   54.5791   24.0104 C.ar      1 UNK         0.0000 
     10 C10         5.9584   54.4163   25.2977 C.ar      1 UNK         0.0000 
     11 C11         4.5929   54.1726   25.5190 C.ar      1 UNK         0.0000 
     12 C12         3.7545   54.0748   24.3911 C.ar      1 UNK         0.0000 
     13 C13         4.2701   54.1938   23.1003 C.ar      1 UNK         0.0000 
     14 F14         2.4174   53.9132   24.5181 F         1 UNK         0.0000 
     15 N15         4.0702   54.1279   26.8138 N.pl3     1 UNK         0.0000 
     16 C16         4.8609   54.5237   27.9973 C.3       1 UNK         0.0000 
     17 C17         3.9729   54.9217   29.1983 C.3       1 UNK         0.0000 
     18 C18         2.9149   53.8693   29.5694 C.3       1 UNK         0.0000 
     19 C19         2.1876   53.4464   28.2697 C.3       1 UNK         0.0000 
     20 H20         1.6410   54.3134   27.9011 H         1 UNK         0.0000 
     21 C21         3.2397   52.9856   27.2279 C.3       1 UNK         0.0000 
     22 C22         1.0290   52.4302   28.4973 C.2       1 UNK         0.0000 
     23 O23         0.8189   52.0940   29.6644 O.2       1 UNK         0.0000 
     24 N24         0.3442   51.8582   27.4582 N.am      1 UNK         0.0000 
     25 C25        -0.4989   50.6727   27.7341 C.3       1 UNK         0.0000 
     26 C26        -1.9300   50.9147   27.2243 C.3       1 UNK         0.0000 
     27 C27        -2.0564   51.3020   25.7205 C.3       1 UNK         0.0000 
     28 C28        -1.0873   52.4958   25.5053 C.3       1 UNK         0.0000 
     29 C29         0.3515   52.4178   26.0910 C.3       1 UNK         0.0000 
     30 C30        -3.4901   51.7775   25.3169 C.2       1 UNK         0.0000 
     31 O31        -3.7158   52.1301   24.1615 O.2       1 UNK         0.0000 
     32 N32        -4.4729   51.7851   26.2186 N.am      1 UNK         0.0000 
     33 N33        -1.7172   50.1123   24.7419 N.4       1 UNK         0.0000 
     34 C34        -0.2350   49.8575   24.3553 C.3       1 UNK         0.0000 
     35 C35        -0.1680   48.7926   23.2472 C.3       1 UNK         0.0000 
     36 C36        -0.8950   47.4944   23.6245 C.3       1 UNK         0.0000 
     37 C37        -2.3370   47.7695   24.0628 C.3       1 UNK         0.0000 
     38 C38        -2.3722   48.7818   25.2130 C.3       1 UNK         0.0000 
     39 H39         4.9716   53.8634   16.4471 H         1 UNK         0.0000 
     40 H40         5.2932   52.8993   17.8844 H         1 UNK         0.0000 
     41 H41         4.0449   54.1411   17.9222 H         1 UNK         0.0000 
     42 H42         5.8161   55.9173   17.5911 H         1 UNK         0.0000 
     43 H43         7.0421   54.6809   17.5381 H         1 UNK         0.0000 
     44 H44         7.5041   54.8139   23.8809 H         1 UNK         0.0000 
     45 H45         6.6495   54.4978   26.1215 H         1 UNK         0.0000 
     46 H46         3.5887   54.1438   22.2630 H         1 UNK         0.0000 
     47 H47         5.4714   55.3899   27.7452 H         1 UNK         0.0000 
     48 H48         5.5556   53.7266   28.2686 H         1 UNK         0.0000 
     49 H49         3.4930   55.8789   29.0014 H         1 UNK         0.0000 
     50 H50         4.6303   55.1029   30.0456 H         1 UNK         0.0000 
     51 H51         2.2326   54.3345   30.2812 H         1 UNK         0.0000 
     52 H52         3.4523   53.0286   30.0136 H         1 UNK         0.0000 
     53 H53         3.8947   52.2389   27.6813 H         1 UNK         0.0000 
     54 H54         2.7944   52.4965   26.3718 H         1 UNK         0.0000 
     55 H55        -0.6057   50.4969   28.8052 H         1 UNK         0.0000 
     56 H56        -0.0705   49.7828   27.2768 H         1 UNK         0.0000 
     57 H57        -2.2822   51.7522   27.8286 H         1 UNK         0.0000 
     58 H58        -2.6121   50.1108   27.5089 H         1 UNK         0.0000 
     59 H59        -1.1062   52.8835   24.4855 H         1 UNK         0.0000 
     60 H60        -1.5316   53.2966   26.0939 H         1 UNK         0.0000 
     61 H61         0.7061   53.4459   26.1072 H         1 UNK         0.0000 
     62 H62         1.0163   51.8228   25.4700 H         1 UNK         0.0000 
     63 H63        -4.3147   51.4545   27.1586 H         1 UNK         0.0000 
     64 H64        -5.3940   52.0854   25.9363 H         1 UNK         0.0000 
     65 H65         0.3291   49.5744   25.2417 H         1 UNK         0.0000 
     66 H66         0.1448   50.7763   23.9179 H         1 UNK         0.0000 
     67 H67         0.8788   48.5736   23.0274 H         1 UNK         0.0000 
     68 H68        -0.5867   49.1970   22.3229 H         1 UNK         0.0000 
     69 H69        -0.8966   46.8128   22.7759 H         1 UNK         0.0000 
     70 H70        -0.3579   46.9958   24.4354 H         1 UNK         0.0000 
     71 H71        -2.9258   48.1403   23.2240 H         1 UNK         0.0000 
     72 H72        -2.8103   46.8397   24.3828 H         1 UNK         0.0000 
     73 H73        -1.8248   48.4211   26.0822 H         1 UNK         0.0000 
     74 H74        -3.4089   48.9887   25.4771 H         1 UNK         0.0000 
     75 H75        -2.1843   50.3847   23.8861 H         1 UNK         0.0000 
@<TRIPOS>BOND
     1    1    2 1    
     2    1   39 1    
     3    1   40 1    
     4    1   41 1    
     5    2    3 1    
     6    2   42 1    
     7    2   43 1    
     8    3    7 1    
     9    3    4 2    
    10    4    5 1    
    11    5    6 2    
    12    5    8 1    
    13    6    7 1    
    14    8   13 ar   
    15    8    9 ar   
    16    9   10 ar   
    17    9   44 1    
    18   10   11 ar   
    19   10   45 1    
    20   11   12 ar   
    21   11   15 1    
    22   12   13 ar   
    23   12   14 1    
    24   13   46 1    
    25   15   21 1    
    26   15   16 1    
    27   16   17 1    
    28   16   47 1    
    29   16   48 1    
    30   17   18 1    
    31   17   49 1    
    32   17   50 1    
    33   18   19 1    
    34   18   51 1    
    35   18   52 1    
    36   19   20 1    
    37   19   21 1    
    38   19   22 1    
    39   21   53 1    
    40   21   54 1    
    41   22   23 2    
    42   22   24 am   BACKBONE|DICT|INTERRES
    43   24   29 1    
    44   24   25 1    
    45   25   26 1    
    46   25   55 1    
    47   25   56 1    
    48   26   27 1    
    49   26   57 1    
    50   26   58 1    
    51   27   28 1    
    52   27   30 1    
    53   27   33 1    
    54   28   29 1    
    55   28   59 1    
    56   28   60 1    
    57   29   61 1    
    58   29   62 1    
    59   30   31 2    
    60   30   32 am   BACKBONE|DICT|INTERRES
    61   32   63 1    
    62   32   64 1    
    63   33   38 1    
    64   33   34 1    
    65   33   75 1    
    66   34   35 1    
    67   34   65 1    
    68   34   66 1    
    69   35   36 1    
    70   35   67 1    
    71   35   68 1    
    72   36   37 1    
    73   36   69 1    
    74   36   70 1    
    75   37   38 1    
    76   37   71 1    
    77   37   72 1    
    78   38   73 1    
    79   38   74 1    
@<TRIPOS>SUBSTRUCTURE
     1 UNK         1 GROUP             0       ****    0 ROOT    
