ZINC36053125_4637
                    3D
 Schrodinger Suite 2024-2.
 63 67  0  0  1  0            999 V2000
    0.1184   48.9226   24.2600 C   0  0  0  0  0  0
    0.3748   50.3954   24.5463 C   0  0  0  0  0  0
    0.6961   50.7627   25.8588 C   0  0  0  0  0  0
    0.9779   52.0887   26.1816 C   0  0  0  0  0  0
    0.9485   53.0541   25.1840 C   0  0  0  0  0  0
    0.6091   52.7122   23.8860 C   0  0  0  0  0  0
    0.2925   51.3930   23.5492 C   0  0  0  0  0  0
   -0.2955   51.1545   22.1444 C   0  0  2  0  0  0
   -0.4362   52.1378   21.6917 H   0  0  0  0  0  0
   -1.7130   50.4868   22.1238 C   0  0  0  0  0  0
   -1.9115   49.3512   21.3805 C   0  0  0  0  0  0
   -0.9230   48.7419   20.6613 N   0  0  0  0  0  0
    0.2266   49.2915   20.5928 C   0  0  0  0  0  0
    0.6400   50.4694   21.2101 N   0  0  0  0  0  0
    1.8866   50.9391   20.8095 C   0  0  0  0  0  0
    2.5175   50.0508   20.0177 C   0  0  0  0  0  0
    1.5827   48.5966   19.6894 S   0  0  0  0  0  0
    2.4723   52.2256   21.1817 C   0  0  0  0  0  0
    3.7808   52.4917   21.3663 C   0  0  0  0  0  0
    4.7921   51.7024   21.2855 O   0  5  0  0  0  0
    4.1915   53.7745   21.6788 N   0  0  0  0  0  0
    5.3745   54.2390   22.4152 C   0  0  0  0  0  0
    5.2070   54.2913   23.9349 C   0  0  0  0  0  0
    3.9392   54.4422   24.5350 C   0  0  0  0  0  0
    3.8044   54.5002   25.9291 C   0  0  0  0  0  0
    4.9471   54.3848   26.6946 C   0  0  0  0  0  0
    6.1813   54.2607   26.1291 C   0  0  0  0  0  0
    6.3554   54.2252   24.7474 C   0  0  0  0  0  0
    7.1050   54.2039   27.1231 O   0  0  0  0  0  0
    6.3628   53.9736   28.2916 C   0  0  0  0  0  0
    5.0555   54.3956   28.0463 O   0  0  0  0  0  0
   -3.2185   48.5881   21.1647 C   0  0  0  0  0  0
   -2.7602   51.0729   23.0091 C   0  0  0  0  0  0
   -3.8090   50.4989   23.3088 O   0  0  0  0  0  0
   -2.4128   52.2767   23.5369 O   0  0  0  0  0  0
   -2.9958   52.7613   24.7444 C   0  0  0  0  0  0
   -4.1155   53.7420   24.4822 C   0  0  0  0  0  0
   -5.3612   53.6154   24.9653 C   0  0  0  0  0  0
    0.5121   48.2841   25.0534 H   0  0  0  0  0  0
   -0.9484   48.7234   24.1501 H   0  0  0  0  0  0
    0.6268   48.6197   23.3461 H   0  0  0  0  0  0
    0.7291   50.0137   26.6374 H   0  0  0  0  0  0
    1.2213   52.3612   27.1979 H   0  0  0  0  0  0
    1.1338   54.0918   25.4079 H   0  0  0  0  0  0
    0.5417   53.5023   23.1552 H   0  0  0  0  0  0
    3.4982   50.1739   19.5720 H   0  0  0  0  0  0
    1.7840   53.0494   21.2911 H   0  0  0  0  0  0
    3.4558   54.4622   21.6861 H   0  0  0  0  0  0
    6.2019   53.5619   22.2099 H   0  0  0  0  0  0
    5.6762   55.2150   22.0357 H   0  0  0  0  0  0
    3.0557   54.5254   23.9204 H   0  0  0  0  0  0
    2.8517   54.6290   26.4126 H   0  0  0  0  0  0
    7.3389   54.1305   24.3094 H   0  0  0  0  0  0
    6.7605   54.4890   29.1644 H   0  0  0  0  0  0
    6.3620   52.9027   28.5012 H   0  0  0  0  0  0
   -4.1037   49.2069   21.3019 H   0  0  0  0  0  0
   -3.2908   48.2000   20.1469 H   0  0  0  0  0  0
   -3.2742   47.7416   21.8492 H   0  0  0  0  0  0
   -2.2173   53.2751   25.3078 H   0  0  0  0  0  0
   -3.3402   51.9448   25.3835 H   0  0  0  0  0  0
   -3.8723   54.5866   23.8535 H   0  0  0  0  0  0
   -5.6379   52.7790   25.5931 H   0  0  0  0  0  0
   -6.1264   54.3419   24.7334 H   0  0  0  0  0  0
  1  2  1  0  0  0
  1 39  1  0  0  0
  1 40  1  0  0  0
  1 41  1  0  0  0
  2  7  2  0  0  0
  2  3  1  0  0  0
  3  4  2  0  0  0
  3 42  1  0  0  0
  4  5  1  0  0  0
  4 43  1  0  0  0
  5  6  2  0  0  0
  5 44  1  0  0  0
  6  7  1  0  0  0
  6 45  1  0  0  0
  7  8  1  0  0  0
  8  9  1  0  0  0
  8 14  1  0  0  0
  8 10  1  0  0  0
 10 11  2  0  0  0
 10 33  1  0  0  0
 11 12  1  0  0  0
 11 32  1  0  0  0
 12 13  2  0  0  0
 13 17  1  0  0  0
 13 14  1  0  0  0
 14 15  1  0  0  0
 15 16  2  0  0  0
 15 18  1  0  0  0
 16 17  1  0  0  0
 16 46  1  0  0  0
 18 19  2  0  0  0
 18 47  1  0  0  0
 19 20  1  0  0  0
 19 21  1  0  0  0
 21 22  1  0  0  0
 21 48  1  0  0  0
 22 23  1  0  0  0
 22 49  1  0  0  0
 22 50  1  0  0  0
 23 28  2  0  0  0
 23 24  1  0  0  0
 24 25  2  0  0  0
 24 51  1  0  0  0
 25 26  1  0  0  0
 25 52  1  0  0  0
 26 31  1  0  0  0
 26 27  2  0  0  0
 27 28  1  0  0  0
 27 29  1  0  0  0
 28 53  1  0  0  0
 29 30  1  0  0  0
 30 31  1  0  0  0
 30 54  1  0  0  0
 30 55  1  0  0  0
 32 56  1  0  0  0
 32 57  1  0  0  0
 32 58  1  0  0  0
 33 34  2  0  0  0
 33 35  1  0  0  0
 35 36  1  0  0  0
 36 37  1  0  0  0
 36 59  1  0  0  0
 36 60  1  0  0  0
 37 38  2  0  0  0
 37 61  1  0  0  0
 38 62  1  0  0  0
 38 63  1  0  0  0
M  CHG  1  20  -1
M  END
> <i_i_glide_confnum>
190

> <i_i_glide_lignum>
4638

> <i_i_glide_posenum>
163

> <i_i_glide_rotatable_bonds>
9

> <i_m_Source_File_Index>
1554

> <b_m_subgroup_collapsed>
0

> <r_i_docking_score>
-5.03694

> <r_i_glide_ecoul>
-2.07893

> <r_i_glide_eff_state_penalty>
0

> <r_i_glide_einternal>
7.46566

> <r_i_glide_emodel>
-57.5402

> <r_i_glide_energy>
-45.9428

> <r_i_glide_erotb>
0.61534

> <r_i_glide_esite>
0

> <r_i_glide_evdw>
-43.8639

> <r_i_glide_gscore>
-5.03694

> <r_i_glide_hbond>
-0.0310464

> <r_i_glide_ligand_efficiency>
-0.136133

> <r_i_glide_ligand_efficiency_ln>
-1.09239

> <r_i_glide_ligand_efficiency_sa>
-0.453627

> <r_i_glide_lipo>
-2.61567

> <r_i_glide_metal>
0

> <r_i_glide_rewards>
-0.500528

> <s_i_glide_gridfile>
wee1_glide-grid

> <s_m_Source_File>
wee1_decoys_glide_SP.sdf

> <s_m_Source_Path>
/Users/zhangxujun/Desktop

> <s_m_entry_id>
1829

> <s_m_entry_name>
wee1_decoys_glide_SP.1554

> <s_m_subgroup_title>
wee1_decoys_glide_SP

> <s_m_subgroupid>
wee1_decoys_glide_SP


$$$$
