@<TRIPOS>MOLECULE
ZINC40315085_4853
65   68    1
SMALL
USER_CHARGES


@<TRIPOS>ATOM
      1 C1          6.2080   51.0018   11.0735 C.3       1 UNK         0.0000 
      2 C2          5.7843   51.6601   12.3793 C.ar      1 UNK         0.0000 
      3 C3          4.7369   51.1006   13.1163 C.ar      1 UNK         0.0000 
      4 C4          4.3306   51.6748   14.3194 C.ar      1 UNK         0.0000 
      5 C5          4.9749   52.8173   14.8160 C.ar      1 UNK         0.0000 
      6 C6          6.0084   53.3818   14.0678 C.ar      1 UNK         0.0000 
      7 C7          6.4243   52.8158   12.8581 C.ar      1 UNK         0.0000 
      8 C8          7.5702   53.4623   12.0924 C.3       1 UNK         0.0000 
      9 O9          4.6648   53.4395   16.0089 O.3       1 UNK         0.0000 
     10 C10         3.8039   52.7914   16.9460 C.3       1 UNK         0.0000 
     11 C11         4.1243   53.3073   18.3660 C.3       1 UNK         0.0000 
     12 H12         4.0848   54.3971   18.3368 H         1 UNK         0.0000 
     13 C13         3.1243   52.7638   19.4209 C.3       1 UNK         0.0000 
     14 N14         3.6312   52.8731   20.8940 N.4       1 UNK         0.0000 
     15 C15         4.0230   54.3239   21.2999 C.3       1 UNK         0.0000 
     16 C16         4.9354   54.3412   22.5081 C.2       1 UNK         0.0000 
     17 C17         6.3016   54.4964   22.6743 C.2       1 UNK         0.0000 
     18 C18         6.5421   54.4969   24.0463 C.2       1 UNK         0.0000 
     19 C19         5.3155   54.3636   24.6804 C.2       1 UNK         0.0000 
     20 O20         4.3446   54.2762   23.7305 O.3       1 UNK         0.0000 
     21 C21         4.8949   54.3009   26.1106 C.ar      1 UNK         0.0000 
     22 C22         5.8505   54.4404   27.1235 C.ar      1 UNK         0.0000 
     23 C23         5.4668   54.3770   28.4601 C.ar      1 UNK         0.0000 
     24 C24         4.1295   54.1664   28.7854 C.ar      1 UNK         0.0000 
     25 C25         3.1707   54.0278   27.7861 C.ar      1 UNK         0.0000 
     26 C26         3.5521   54.0966   26.4491 C.ar      1 UNK         0.0000 
     27 F27         3.7561   54.0966   30.0817 F         1 UNK         0.0000 
     28 C28         2.6671   52.2020   21.9156 C.3       1 UNK         0.0000 
     29 H29         3.1691   52.3816   22.8648 H         1 UNK         0.0000 
     30 C30         2.5519   50.6685   21.8028 C.3       1 UNK         0.0000 
     31 C31         1.4936   50.2304   22.8291 C.3       1 UNK         0.0000 
     32 S32         0.1517   51.5324   22.6814 S.o2      1 UNK         0.0000 
     33 O33        -0.7741   51.1545   21.6099 O.2       1 UNK         0.0000 
     34 O34        -0.3509   51.9021   24.0070 O.2       1 UNK         0.0000 
     35 C35         1.2862   52.8744   22.0321 C.3       1 UNK         0.0000 
     36 O36         5.4378   52.8967   18.7001 O.3       1 UNK         0.0000 
     37 H37         5.5963   50.1321   10.8306 H         1 UNK         0.0000 
     38 H38         6.1281   51.7105   10.2490 H         1 UNK         0.0000 
     39 H39         7.2485   50.6813   11.1328 H         1 UNK         0.0000 
     40 H40         4.2329   50.2124   12.7638 H         1 UNK         0.0000 
     41 H41         3.5194   51.2068   14.8561 H         1 UNK         0.0000 
     42 H42         6.5000   54.2649   14.4490 H         1 UNK         0.0000 
     43 H43         7.9701   54.3378   12.6057 H         1 UNK         0.0000 
     44 H44         7.2373   53.7716   11.1014 H         1 UNK         0.0000 
     45 H45         8.3848   52.7499   11.9587 H         1 UNK         0.0000 
     46 H46         2.7690   53.0138   16.6823 H         1 UNK         0.0000 
     47 H47         3.9045   51.7046   16.9322 H         1 UNK         0.0000 
     48 H48         2.1774   53.2967   19.3665 H         1 UNK         0.0000 
     49 H49         2.9358   51.7050   19.2442 H         1 UNK         0.0000 
     50 H50         4.5438   54.7648   20.4531 H         1 UNK         0.0000 
     51 H51         3.1044   54.8843   21.4522 H         1 UNK         0.0000 
     52 H52         7.0389   54.6074   21.8927 H         1 UNK         0.0000 
     53 H53         7.5044   54.5941   24.5209 H         1 UNK         0.0000 
     54 H54         6.8918   54.5978   26.8868 H         1 UNK         0.0000 
     55 H55         6.2037   54.4967   29.2417 H         1 UNK         0.0000 
     56 H56         2.1361   53.8648   28.0493 H         1 UNK         0.0000 
     57 H57         2.7996   53.9836   25.6822 H         1 UNK         0.0000 
     58 H58         2.2026   50.3736   20.8129 H         1 UNK         0.0000 
     59 H59         3.5044   50.1706   21.9715 H         1 UNK         0.0000 
     60 H60         1.0745   49.2283   22.7478 H         1 UNK         0.0000 
     61 H61         1.9207   50.3249   23.8274 H         1 UNK         0.0000 
     62 H62         1.2979   53.6403   22.8069 H         1 UNK         0.0000 
     63 H63         0.8643   53.2967   21.1260 H         1 UNK         0.0000 
     64 H64         5.5044   51.9410   18.4817 H         1 UNK         0.0000 
     65 H65         4.4925   52.3427   20.8960 H         1 UNK         0.0000 
@<TRIPOS>BOND
     1    1    2 1    
     2    1   37 1    
     3    1   38 1    
     4    1   39 1    
     5    2    7 ar   
     6    2    3 ar   
     7    3    4 ar   
     8    3   40 1    
     9    4    5 ar   
    10    4   41 1    
    11    5    6 ar   
    12    5    9 1    
    13    6    7 ar   
    14    6   42 1    
    15    7    8 1    
    16    8   43 1    
    17    8   44 1    
    18    8   45 1    
    19    9   10 1    
    20   10   11 1    
    21   10   46 1    
    22   10   47 1    
    23   11   12 1    
    24   11   13 1    
    25   11   36 1    
    26   13   14 1    
    27   13   48 1    
    28   13   49 1    
    29   14   15 1    
    30   14   28 1    
    31   14   65 1    
    32   15   16 1    
    33   15   50 1    
    34   15   51 1    
    35   16   20 1    
    36   16   17 2    
    37   17   18 1    
    38   17   52 1    
    39   18   19 2    
    40   18   53 1    
    41   19   20 1    
    42   19   21 1    
    43   21   26 ar   
    44   21   22 ar   
    45   22   23 ar   
    46   22   54 1    
    47   23   24 ar   
    48   23   55 1    
    49   24   25 ar   
    50   24   27 1    
    51   25   26 ar   
    52   25   56 1    
    53   26   57 1    
    54   28   29 1    
    55   28   35 1    
    56   28   30 1    
    57   30   31 1    
    58   30   58 1    
    59   30   59 1    
    60   31   32 1    
    61   31   60 1    
    62   31   61 1    
    63   32   33 2    
    64   32   34 2    
    65   32   35 1    
    66   35   62 1    
    67   35   63 1    
    68   36   64 1    
@<TRIPOS>SUBSTRUCTURE
     1 UNK         1 GROUP             0       ****    0 ROOT    
