ZINC40091582_5662
                    3D
 Schrodinger Suite 2024-2.
 65 67  0  0  1  0            999 V2000
   -1.0909   50.8100   15.1726 C   0  0  0  0  0  0
   -0.6058   52.2058   15.5951 C   0  0  0  0  0  0
   -0.0864   52.2630   17.0397 C   0  0  0  0  0  0
   -1.1518   51.9431   17.9329 O   0  0  0  0  0  0
   -0.8957   51.8313   19.2871 C   0  0  0  0  0  0
    0.3544   52.0967   19.8671 C   0  0  0  0  0  0
    0.5428   51.9762   21.2419 C   0  0  0  0  0  0
   -0.5159   51.5996   22.0769 C   0  0  0  0  0  0
   -1.7535   51.2968   21.4945 C   0  0  0  0  0  0
   -1.9531   51.4297   20.1163 C   0  0  0  0  0  0
   -3.3231   51.1283   19.5262 C   0  0  0  0  0  0
   -0.2745   51.4218   23.5447 C   0  0  0  0  0  0
    0.8219   51.0108   23.9282 O   0  0  0  0  0  0
   -1.2844   51.8237   24.5487 C   0  0  0  0  0  0
   -2.3735   52.6084   24.4572 C   0  0  0  0  0  0
   -3.1649   52.6206   25.6759 C   0  0  0  0  0  0
   -4.2312   53.2021   25.9142 O   0  0  0  0  0  0
   -2.4875   51.8127   26.5216 N   0  0  0  0  0  0
   -1.2078   51.3547   25.9826 C   0  0  2  0  0  0
   -1.1967   50.2629   26.0106 H   0  0  0  0  0  0
   -0.0008   51.8455   26.8172 C   0  0  0  0  0  0
    0.2048   51.2966   28.0787 C   0  0  0  0  0  0
    1.2452   51.7316   28.8853 C   0  0  0  0  0  0
    2.1412   52.7110   28.4446 C   0  0  0  0  0  0
    1.9396   53.2670   27.1743 C   0  0  0  0  0  0
    0.8822   52.8405   26.3735 C   0  0  0  0  0  0
    3.3243   53.1768   29.3260 C   0  0  0  0  0  0
    4.6598   53.1132   28.5415 C   0  0  0  0  0  0
    3.5021   52.3278   30.6151 C   0  0  0  0  0  0
    3.0843   54.6271   29.7694 C   0  0  0  0  0  0
   -3.0950   51.3393   27.7765 C   0  0  0  0  0  0
   -3.8803   50.0262   27.6029 C   0  0  0  0  0  0
   -4.0957   49.4026   28.8510 O   0  0  0  0  0  0
   -2.8112   53.2961   23.4628 O   0  5  0  0  0  0
   -1.4352   50.8136   14.1380 H   0  0  0  0  0  0
   -0.2911   50.0723   15.2537 H   0  0  0  0  0  0
   -1.9204   50.4733   15.7967 H   0  0  0  0  0  0
   -1.4160   52.9259   15.4741 H   0  0  0  0  0  0
    0.1880   52.5275   14.9186 H   0  0  0  0  0  0
    0.2896   53.2646   17.2547 H   0  0  0  0  0  0
    0.7446   51.5644   17.1569 H   0  0  0  0  0  0
    1.1969   52.4091   19.2688 H   0  0  0  0  0  0
    1.5203   52.1886   21.6531 H   0  0  0  0  0  0
   -2.5739   50.9641   22.1149 H   0  0  0  0  0  0
   -3.6835   51.9848   18.9561 H   0  0  0  0  0  0
   -3.2560   50.2862   18.8366 H   0  0  0  0  0  0
   -4.0637   50.8962   20.2926 H   0  0  0  0  0  0
   -0.4353   50.5052   28.4376 H   0  0  0  0  0  0
    1.3303   51.2964   29.8633 H   0  0  0  0  0  0
    2.5936   54.0387   26.7989 H   0  0  0  0  0  0
    0.7523   53.2974   25.4051 H   0  0  0  0  0  0
    5.5004   53.4541   29.1454 H   0  0  0  0  0  0
    4.6514   53.7360   27.6471 H   0  0  0  0  0  0
    4.8859   52.0967   28.2277 H   0  0  0  0  0  0
    2.6122   52.3368   31.2457 H   0  0  0  0  0  0
    3.7465   51.2969   30.3715 H   0  0  0  0  0  0
    4.3045   52.7033   31.2461 H   0  0  0  0  0  0
    2.1182   54.7500   30.2610 H   0  0  0  0  0  0
    3.8606   54.8967   30.4801 H   0  0  0  0  0  0
    3.1253   55.3324   28.9385 H   0  0  0  0  0  0
   -2.3431   51.2352   28.5541 H   0  0  0  0  0  0
   -3.7907   52.0956   28.1414 H   0  0  0  0  0  0
   -4.7961   50.1783   27.0311 H   0  0  0  0  0  0
   -3.2913   49.3244   27.0119 H   0  0  0  0  0  0
   -3.2512   48.9968   29.1163 H   0  0  0  0  0  0
  1  2  1  0  0  0
  1 35  1  0  0  0
  1 36  1  0  0  0
  1 37  1  0  0  0
  2  3  1  0  0  0
  2 38  1  0  0  0
  2 39  1  0  0  0
  3  4  1  0  0  0
  3 40  1  0  0  0
  3 41  1  0  0  0
  4  5  1  0  0  0
  5 10  2  0  0  0
  5  6  1  0  0  0
  6  7  2  0  0  0
  6 42  1  0  0  0
  7  8  1  0  0  0
  7 43  1  0  0  0
  8  9  2  0  0  0
  8 12  1  0  0  0
  9 10  1  0  0  0
  9 44  1  0  0  0
 10 11  1  0  0  0
 11 45  1  0  0  0
 11 46  1  0  0  0
 11 47  1  0  0  0
 12 13  2  0  0  0
 12 14  1  0  0  0
 14 19  1  0  0  0
 14 15  2  0  0  0
 15 16  1  0  0  0
 15 34  1  0  0  0
 16 17  2  0  0  0
 16 18  1  0  0  0
 18 19  1  0  0  0
 18 31  1  0  0  0
 19 20  1  0  0  0
 19 21  1  0  0  0
 21 26  2  0  0  0
 21 22  1  0  0  0
 22 23  2  0  0  0
 22 48  1  0  0  0
 23 24  1  0  0  0
 23 49  1  0  0  0
 24 25  2  0  0  0
 24 27  1  0  0  0
 25 26  1  0  0  0
 25 50  1  0  0  0
 26 51  1  0  0  0
 27 28  1  0  0  0
 27 29  1  0  0  0
 27 30  1  0  0  0
 28 52  1  0  0  0
 28 53  1  0  0  0
 28 54  1  0  0  0
 29 55  1  0  0  0
 29 56  1  0  0  0
 29 57  1  0  0  0
 30 58  1  0  0  0
 30 59  1  0  0  0
 30 60  1  0  0  0
 31 32  1  0  0  0
 31 61  1  0  0  0
 31 62  1  0  0  0
 32 33  1  0  0  0
 32 63  1  0  0  0
 32 64  1  0  0  0
 33 65  1  0  0  0
M  CHG  1  34  -1
M  END
> <i_i_glide_confnum>
98

> <i_i_glide_lignum>
5663

> <i_i_glide_posenum>
216

> <i_i_glide_rotatable_bonds>
10

> <i_m_Source_File_Index>
4740

> <b_m_subgroup_collapsed>
0

> <r_i_docking_score>
-3.55034

> <r_i_glide_ecoul>
-4.24164

> <r_i_glide_eff_state_penalty>
0

> <r_i_glide_einternal>
6.67505

> <r_i_glide_emodel>
-42.112

> <r_i_glide_energy>
-36.0482

> <r_i_glide_erotb>
0.691401

> <r_i_glide_esite>
-0.0289508

> <r_i_glide_evdw>
-31.8065

> <r_i_glide_gscore>
-3.55034

> <r_i_glide_hbond>
-0.237449

> <r_i_glide_ligand_efficiency>
-0.107586

> <r_i_glide_ligand_efficiency_ln>
-0.789577

> <r_i_glide_ligand_efficiency_sa>
-0.345086

> <r_i_glide_lipo>
-1.28516

> <r_i_glide_metal>
0

> <r_i_glide_rewards>
-0.463606

> <s_i_glide_gridfile>
wee1_glide-grid

> <s_m_Source_File>
wee1_decoys_glide_SP.sdf

> <s_m_Source_Path>
/Users/zhangxujun/Desktop

> <s_m_entry_id>
5015

> <s_m_entry_name>
wee1_decoys_glide_SP.4740

> <s_m_subgroup_title>
wee1_decoys_glide_SP

> <s_m_subgroupid>
wee1_decoys_glide_SP


$$$$
