@<TRIPOS>MOLECULE
ZINC03011834_5222
51   54    1
SMALL
USER_CHARGES


@<TRIPOS>ATOM
      1 C1          9.3975   57.7573   16.4608 C.3       1 UNK         0.0000 
      2 C2          8.5951   57.2203   17.6321 C.ar      1 UNK         0.0000 
      3 C3          9.1045   56.1840   18.4154 C.ar      1 UNK         0.0000 
      4 C4          8.3653   55.6960   19.4881 C.ar      1 UNK         0.0000 
      5 C5          7.1134   56.2430   19.7882 C.ar      1 UNK         0.0000 
      6 C6          6.5999   57.2669   18.9853 C.ar      1 UNK         0.0000 
      7 C7          7.3392   57.7594   17.9142 C.ar      1 UNK         0.0000 
      8 C8          6.2943   55.7485   20.9801 C.3       1 UNK         0.0000 
      9 H9          5.7216   56.6273   21.2806 H         1 UNK         0.0000 
     10 C10         5.3099   54.6201   20.5895 C.3       1 UNK         0.0000 
     11 C11         4.3476   54.1963   21.7383 C.3       1 UNK         0.0000 
     12 H12         3.5188   54.9028   21.7665 H         1 UNK         0.0000 
     13 N13         5.0655   54.3306   23.0191 N.pl3     1 UNK         0.0000 
     14 C14         6.3193   54.8782   23.2044 C.ar      1 UNK         0.0000 
     15 C15         6.5537   54.8061   24.5597 C.ar      1 UNK         0.0000 
     16 C16         5.3772   54.3095   25.1458 C.ar      1 UNK         0.0000 
     17 N17         4.4790   54.0788   24.2022 N.2       1 UNK         0.0000 
     18 C18         5.1870   54.0971   26.5702 C.2       1 UNK         0.0000 
     19 O19         6.0512   54.4464   27.3762 O.2       1 UNK         0.0000 
     20 N20         4.0179   53.4902   26.8858 N.am      1 UNK         0.0000 
     21 C21         3.4996   53.0582   28.1275 C.ar      1 UNK         0.0000 
     22 C22         4.3043   52.9466   29.2737 C.ar      1 UNK         0.0000 
     23 C23         3.7709   52.5142   30.4842 C.ar      1 UNK         0.0000 
     24 C24         2.4231   52.2015   30.5763 C.ar      1 UNK         0.0000 
     25 C25         1.6138   52.2812   29.4511 C.ar      1 UNK         0.0000 
     26 C26         2.1333   52.6904   28.2145 C.ar      1 UNK         0.0000 
     27 C27         1.1566   52.7581   27.0301 C.3       1 UNK         0.0000 
     28 F28        -0.0787   53.0124   27.4635 F         1 UNK         0.0000 
     29 F29         1.5043   53.6962   26.1465 F         1 UNK         0.0000 
     30 F30         1.1044   51.5902   26.3998 F         1 UNK         0.0000 
     31 Cl31        1.7574   51.6974   32.0817 Cl        1 UNK         0.0000 
     32 N32         7.0814   55.3142   22.1407 N.pl3     1 UNK         0.0000 
     33 C33         3.7219   52.7959   21.5195 C.3       1 UNK         0.0000 
     34 F34         3.1743   52.6974   20.3085 F         1 UNK         0.0000 
     35 F35         4.6399   51.8327   21.6142 F         1 UNK         0.0000 
     36 F36         2.7603   52.5328   22.4059 F         1 UNK         0.0000 
     37 H37        10.2418   57.1127   16.2141 H         1 UNK         0.0000 
     38 H38         8.7673   57.8236   15.5723 H         1 UNK         0.0000 
     39 H39         9.7661   58.7598   16.6806 H         1 UNK         0.0000 
     40 H40        10.0762   55.7600   18.2046 H         1 UNK         0.0000 
     41 H41         8.7801   54.9029   20.0924 H         1 UNK         0.0000 
     42 H42         5.6289   57.6921   19.1912 H         1 UNK         0.0000 
     43 H43         6.9362   58.5610   17.3095 H         1 UNK         0.0000 
     44 H44         5.8884   53.7600   20.2481 H         1 UNK         0.0000 
     45 H45         4.7188   54.9092   19.7185 H         1 UNK         0.0000 
     46 H46         7.4626   55.0954   25.0621 H         1 UNK         0.0000 
     47 H47         3.4012   53.3298   26.1026 H         1 UNK         0.0000 
     48 H48         5.3574   53.1743   29.2467 H         1 UNK         0.0000 
     49 H49         4.3973   52.4325   31.3600 H         1 UNK         0.0000 
     50 H50         0.5716   52.0077   29.5470 H         1 UNK         0.0000 
     51 H51         7.8012   55.9881   22.3619 H         1 UNK         0.0000 
@<TRIPOS>BOND
     1    1    2 1    
     2    1   37 1    
     3    1   38 1    
     4    1   39 1    
     5    2    7 ar   
     6    2    3 ar   
     7    3    4 ar   
     8    3   40 1    
     9    4    5 ar   
    10    4   41 1    
    11    5    6 ar   
    12    5    8 1    
    13    6    7 ar   
    14    6   42 1    
    15    7   43 1    
    16    8    9 1    
    17    8   32 1    
    18    8   10 1    
    19   10   11 1    
    20   10   44 1    
    21   10   45 1    
    22   11   12 1    
    23   11   13 1    
    24   11   33 1    
    25   13   17 ar   
    26   13   14 ar   
    27   14   15 ar   
    28   14   32 1    
    29   15   16 ar   
    30   15   46 1    
    31   16   17 ar   
    32   16   18 1    
    33   18   19 2    
    34   18   20 am   BACKBONE|DICT|INTERRES
    35   20   21 1    
    36   20   47 1    
    37   21   26 ar   
    38   21   22 ar   
    39   22   23 ar   
    40   22   48 1    
    41   23   24 ar   
    42   23   49 1    
    43   24   25 ar   
    44   24   31 1    
    45   25   26 ar   
    46   25   50 1    
    47   26   27 1    
    48   27   28 1    
    49   27   29 1    
    50   27   30 1    
    51   32   51 1    
    52   33   34 1    
    53   33   35 1    
    54   33   36 1    
@<TRIPOS>SUBSTRUCTURE
     1 UNK         1 GROUP             0       ****    0 ROOT    
