ZINC20795794_3380
                    3D
 Schrodinger Suite 2024-2.
 61 64  0  0  1  0            999 V2000
    1.8891   51.2913   17.0057 C   0  0  0  0  0  0
    1.0840   50.7071   18.1703 C   0  0  0  0  0  0
    1.3420   51.4861   19.3276 O   0  0  0  0  0  0
    0.8760   51.1185   20.5400 C   0  0  0  0  0  0
    0.1514   50.1440   20.7481 O   0  0  0  0  0  0
    1.3560   52.0262   21.5957 C   0  0  0  0  0  0
    2.6373   52.6656   21.6022 C   0  0  0  0  0  0
    2.9092   53.3454   22.8018 C   0  0  0  0  0  0
    1.5841   53.3092   23.8908 S   0  0  0  0  0  0
    0.6643   52.3547   22.7888 C   0  0  0  0  0  0
   -0.5877   52.0292   23.2942 N   0  0  0  0  0  0
   -1.7586   51.8895   22.6395 C   0  0  0  0  0  0
   -1.9164   52.0967   21.4374 O   0  0  0  0  0  0
   -3.0108   51.4890   23.4664 C   0  0  0  0  0  0
   -2.6972   51.0932   24.8613 N   0  0  0  0  0  0
   -2.7802   51.9398   25.9155 C   0  0  0  0  0  0
   -3.2237   53.0890   25.9310 O   0  0  0  0  0  0
   -2.2929   51.1476   27.1286 C   0  0  2  0  0  0
   -1.9646   49.9199   26.4788 N   0  0  0  0  0  0
   -2.1951   49.8724   25.1685 C   0  0  0  0  0  0
   -1.8583   48.9753   24.3956 O   0  0  0  0  0  0
   -3.4946   50.9003   28.0853 C   0  0  0  0  0  0
   -1.0087   51.7030   27.7993 C   0  0  0  0  0  0
    0.0985   52.0637   27.0170 C   0  0  0  0  0  0
    1.2635   52.5495   27.5998 C   0  0  0  0  0  0
    1.3397   52.6739   28.9861 C   0  0  0  0  0  0
    0.2615   52.2986   29.7868 C   0  0  0  0  0  0
   -0.8957   51.8012   29.1961 C   0  0  0  0  0  0
    2.5533   53.1935   29.5964 C   0  0  0  0  0  0
    3.5157   53.6086   30.0818 N   0  0  0  0  0  0
    4.2421   53.9730   23.1887 C   0  0  0  0  0  0
    5.0761   54.2094   21.9129 C   0  0  2  0  0  0
    4.6212   55.0183   21.3373 H   0  0  0  0  0  0
    5.1051   52.9141   21.0779 C   0  0  0  0  0  0
    3.7166   52.5655   20.5088 C   0  0  0  0  0  0
    6.4936   54.6817   22.2937 C   0  0  0  0  0  0
    1.7509   50.7003   16.0996 H   0  0  0  0  0  0
    1.5883   52.3179   16.7927 H   0  0  0  0  0  0
    2.9563   51.2982   17.2322 H   0  0  0  0  0  0
    1.3804   49.6699   18.3384 H   0  0  0  0  0  0
    0.0166   50.7107   17.9395 H   0  0  0  0  0  0
   -0.6785   52.1326   24.2911 H   0  0  0  0  0  0
   -3.4958   50.6522   22.9619 H   0  0  0  0  0  0
   -3.7170   52.3203   23.4514 H   0  0  0  0  0  0
   -1.8613   49.0881   27.0720 H   0  0  0  0  0  0
   -3.8059   51.8083   28.5986 H   0  0  0  0  0  0
   -4.3718   50.5110   27.5639 H   0  0  0  0  0  0
   -3.2482   50.1566   28.8475 H   0  0  0  0  0  0
    0.0647   51.9473   25.9472 H   0  0  0  0  0  0
    2.1009   52.8151   26.9675 H   0  0  0  0  0  0
    0.3069   52.3725   30.8658 H   0  0  0  0  0  0
   -1.6950   51.4851   29.8507 H   0  0  0  0  0  0
    4.0925   54.8971   23.7446 H   0  0  0  0  0  0
    4.7740   53.2967   23.8590 H   0  0  0  0  0  0
    5.7913   53.0331   20.2385 H   0  0  0  0  0  0
    5.5170   52.0910   21.6632 H   0  0  0  0  0  0
    3.7582   51.5722   20.0638 H   0  0  0  0  0  0
    3.4678   53.2408   19.6892 H   0  0  0  0  0  0
    7.0250   53.9306   22.8812 H   0  0  0  0  0  0
    7.0899   54.8974   21.4073 H   0  0  0  0  0  0
    6.4613   55.5962   22.8874 H   0  0  0  0  0  0
  1  2  1  0  0  0
  1 37  1  0  0  0
  1 38  1  0  0  0
  1 39  1  0  0  0
  2  3  1  0  0  0
  2 40  1  0  0  0
  2 41  1  0  0  0
  3  4  1  0  0  0
  4  5  2  0  0  0
  4  6  1  0  0  0
  6 10  2  0  0  0
  6  7  1  0  0  0
  7 35  1  0  0  0
  7  8  2  0  0  0
  8  9  1  0  0  0
  8 31  1  0  0  0
  9 10  1  0  0  0
 10 11  1  0  0  0
 11 12  1  0  0  0
 11 42  1  0  0  0
 12 13  2  0  0  0
 12 14  1  0  0  0
 14 15  1  0  0  0
 14 43  1  0  0  0
 14 44  1  0  0  0
 15 20  1  0  0  0
 15 16  1  0  0  0
 16 17  2  0  0  0
 16 18  1  0  0  0
 18 19  1  0  0  0
 18 22  1  0  0  0
 18 23  1  0  0  0
 19 20  1  0  0  0
 19 45  1  0  0  0
 20 21  2  0  0  0
 22 46  1  0  0  0
 22 47  1  0  0  0
 22 48  1  0  0  0
 23 28  2  0  0  0
 23 24  1  0  0  0
 24 25  2  0  0  0
 24 49  1  0  0  0
 25 26  1  0  0  0
 25 50  1  0  0  0
 26 27  2  0  0  0
 26 29  1  0  0  0
 27 28  1  0  0  0
 27 51  1  0  0  0
 28 52  1  0  0  0
 29 30  3  0  0  0
 31 32  1  0  0  0
 31 53  1  0  0  0
 31 54  1  0  0  0
 32 33  1  0  0  0
 32 34  1  0  0  0
 32 36  1  0  0  0
 34 35  1  0  0  0
 34 55  1  0  0  0
 34 56  1  0  0  0
 35 57  1  0  0  0
 35 58  1  0  0  0
 36 59  1  0  0  0
 36 60  1  0  0  0
 36 61  1  0  0  0
M  END
> <i_i_glide_confnum>
182

> <i_i_glide_lignum>
3381

> <i_i_glide_posenum>
118

> <i_i_glide_rotatable_bonds>
9

> <i_m_Source_File_Index>
1660

> <b_m_subgroup_collapsed>
0

> <r_i_docking_score>
-5.16974

> <r_i_glide_ecoul>
-10.1554

> <r_i_glide_eff_state_penalty>
0

> <r_i_glide_einternal>
11.6707

> <r_i_glide_emodel>
-59.9863

> <r_i_glide_energy>
-48.8748

> <r_i_glide_erotb>
0.583235

> <r_i_glide_esite>
-0.164807

> <r_i_glide_evdw>
-38.7194

> <r_i_glide_gscore>
-5.16974

> <r_i_glide_hbond>
-0.475772

> <r_i_glide_ligand_efficiency>
-0.147707

> <r_i_glide_ligand_efficiency_ln>
-1.13487

> <r_i_glide_ligand_efficiency_sa>
-0.483159

> <r_i_glide_lipo>
-1.47238

> <r_i_glide_metal>
0

> <r_i_glide_rewards>
-0.180736

> <s_i_glide_gridfile>
wee1_glide-grid

> <s_m_Source_File>
wee1_decoys_glide_SP.sdf

> <s_m_Source_Path>
/Users/zhangxujun/Desktop

> <s_m_entry_id>
1935

> <s_m_entry_name>
wee1_decoys_glide_SP.1660

> <s_m_subgroup_title>
wee1_decoys_glide_SP

> <s_m_subgroupid>
wee1_decoys_glide_SP


$$$$
