@<TRIPOS>MOLECULE
ZINC39657100_5541
65   69    1
SMALL
USER_CHARGES


@<TRIPOS>ATOM
      1 C1          5.2077   54.3227   20.4453 C.3       1 UNK         0.0000 
      2 C2          4.5973   53.4284   21.5419 C.3       1 UNK         0.0000 
      3 H3          5.0719   52.4475   21.4427 H         1 UNK         0.0000 
      4 C4          4.9370   53.9013   22.9702 C.ar      1 UNK         0.0000 
      5 C5          3.9545   54.0967   23.9527 C.ar      1 UNK         0.0000 
      6 C6          4.3128   54.4177   25.2607 C.ar      1 UNK         0.0000 
      7 C7          5.6585   54.5564   25.5915 C.ar      1 UNK         0.0000 
      8 C8          6.6414   54.4193   24.6179 C.ar      1 UNK         0.0000 
      9 C9          6.2815   54.0929   23.3157 C.ar      1 UNK         0.0000 
     10 Br10        6.1692   54.8978   27.3915 Br        1 UNK         0.0000 
     11 N11         3.1797   53.2340   21.2186 N.am      1 UNK         0.0000 
     12 C12         2.3787   52.2363   21.6259 C.2       1 UNK         0.0000 
     13 O13         2.7044   51.4071   22.4738 O.2       1 UNK         0.0000 
     14 C14         0.9618   52.2265   21.0181 C.3       1 UNK         0.0000 
     15 H15         0.7049   53.2462   20.7212 H         1 UNK         0.0000 
     16 C16        -0.0214   51.7549   22.0992 C.3       1 UNK         0.0000 
     17 N17        -1.1317   51.2092   21.3235 N.am      1 UNK         0.0000 
     18 C18        -0.7871   51.0439   19.9064 C.3       1 UNK         0.0000 
     19 C19         0.7498   51.2486   19.8257 C.3       1 UNK         0.0000 
     20 C20         1.5224   49.8931   19.9678 C.3       1 UNK         0.0000 
     21 C21         1.1972   48.8921   18.8356 C.3       1 UNK         0.0000 
     22 N22         1.5045   49.5565   17.4721 N.4       1 UNK         0.0000 
     23 C23         0.8644   50.9506   17.2832 C.3       1 UNK         0.0000 
     24 C24         1.2597   51.8351   18.4844 C.3       1 UNK         0.0000 
     25 C25        -2.3546   50.9226   21.8364 C.2       1 UNK         0.0000 
     26 O26        -3.2673   50.4988   21.1235 O.2       1 UNK         0.0000 
     27 C27        -2.5887   51.1223   23.3575 C.3       1 UNK         0.0000 
     28 H28        -2.0708   52.0259   23.6766 H         1 UNK         0.0000 
     29 C29        -2.0876   49.8742   24.1351 C.3       1 UNK         0.0000 
     30 O30        -2.2496   50.1138   25.5352 O.3       1 UNK         0.0000 
     31 C31        -3.4903   50.6169   25.8746 C.ar      1 UNK         0.0000 
     32 C32        -3.8726   50.5498   27.2146 C.ar      1 UNK         0.0000 
     33 C33        -5.0974   51.0932   27.6084 C.ar      1 UNK         0.0000 
     34 C34        -5.9297   51.7102   26.6692 C.ar      1 UNK         0.0000 
     35 C35        -5.5464   51.7841   25.3271 C.ar      1 UNK         0.0000 
     36 C36        -4.3243   51.2422   24.9303 C.ar      1 UNK         0.0000 
     37 O37        -3.9959   51.2959   23.5877 O.3       1 UNK         0.0000 
     38 H38         6.2781   54.4844   20.5647 H         1 UNK         0.0000 
     39 H39         5.0635   53.8807   19.4584 H         1 UNK         0.0000 
     40 H40         4.7271   55.2967   20.4336 H         1 UNK         0.0000 
     41 H41         2.9075   53.9719   23.7265 H         1 UNK         0.0000 
     42 H42         3.5523   54.5338   26.0186 H         1 UNK         0.0000 
     43 H43         7.6812   54.5370   24.8769 H         1 UNK         0.0000 
     44 H44         7.0690   53.9587   22.5906 H         1 UNK         0.0000 
     45 H45         2.7757   53.9306   20.6063 H         1 UNK         0.0000 
     46 H46         0.3862   50.9141   22.6643 H         1 UNK         0.0000 
     47 H47        -0.2771   52.5894   22.7535 H         1 UNK         0.0000 
     48 H48        -1.2610   51.8703   19.3761 H         1 UNK         0.0000 
     49 H49        -1.1464   50.1309   19.4359 H         1 UNK         0.0000 
     50 H50         2.6034   50.0448   20.0173 H         1 UNK         0.0000 
     51 H51         1.2591   49.4210   20.9164 H         1 UNK         0.0000 
     52 H52         1.8302   48.0043   18.8831 H         1 UNK         0.0000 
     53 H53         0.1542   48.5791   18.8097 H         1 UNK         0.0000 
     54 H54         2.5168   49.6404   17.3616 H         1 UNK         0.0000 
     55 H55         1.2525   51.3361   16.3378 H         1 UNK         0.0000 
     56 H56        -0.2130   50.7972   17.1918 H         1 UNK         0.0000 
     57 H57         0.8051   52.8150   18.3266 H         1 UNK         0.0000 
     58 H58         2.3373   52.0163   18.5099 H         1 UNK         0.0000 
     59 H59        -2.6576   48.9866   23.8490 H         1 UNK         0.0000 
     60 H60        -1.0290   49.6833   23.9633 H         1 UNK         0.0000 
     61 H61        -3.2222   50.0765   27.9390 H         1 UNK         0.0000 
     62 H62        -5.4006   51.0313   28.6434 H         1 UNK         0.0000 
     63 H63        -6.8771   52.1239   26.9795 H         1 UNK         0.0000 
     64 H64        -6.1931   52.2504   24.5990 H         1 UNK         0.0000 
     65 H65         1.2221   48.9421   16.7198 H         1 UNK         0.0000 
@<TRIPOS>BOND
     1    1    2 1    
     2    1   38 1    
     3    1   39 1    
     4    1   40 1    
     5    2    3 1    
     6    2    4 1    
     7    2   11 1    
     8    4    9 ar   
     9    4    5 ar   
    10    5    6 ar   
    11    5   41 1    
    12    6    7 ar   
    13    6   42 1    
    14    7    8 ar   
    15    7   10 1    
    16    8    9 ar   
    17    8   43 1    
    18    9   44 1    
    19   11   12 am   BACKBONE|DICT|INTERRES
    20   11   45 1    
    21   12   13 2    
    22   12   14 1    
    23   14   15 1    
    24   14   19 1    
    25   14   16 1    
    26   16   17 1    
    27   16   46 1    
    28   16   47 1    
    29   17   18 1    
    30   17   25 am   BACKBONE|DICT|INTERRES
    31   18   19 1    
    32   18   48 1    
    33   18   49 1    
    34   19   24 1    
    35   19   20 1    
    36   20   21 1    
    37   20   50 1    
    38   20   51 1    
    39   21   22 1    
    40   21   52 1    
    41   21   53 1    
    42   22   23 1    
    43   22   54 1    
    44   22   65 1    
    45   23   24 1    
    46   23   55 1    
    47   23   56 1    
    48   24   57 1    
    49   24   58 1    
    50   25   26 2    
    51   25   27 1    
    52   27   28 1    
    53   27   37 1    
    54   27   29 1    
    55   29   30 1    
    56   29   59 1    
    57   29   60 1    
    58   30   31 1    
    59   31   36 ar   
    60   31   32 ar   
    61   32   33 ar   
    62   32   61 1    
    63   33   34 ar   
    64   33   62 1    
    65   34   35 ar   
    66   34   63 1    
    67   35   36 ar   
    68   35   64 1    
    69   36   37 1    
@<TRIPOS>SUBSTRUCTURE
     1 UNK         1 GROUP             0       ****    0 ROOT    
