@<TRIPOS>MOLECULE
ZINC24578354_1474
52   55    1
SMALL
USER_CHARGES


@<TRIPOS>ATOM
      1 C1          3.8310   53.3118   30.2864 C.3       1 UNK         0.0000 
      2 C2          4.0716   53.5989   28.8209 C.ar      1 UNK         0.0000 
      3 C3          3.0428   53.4567   27.8918 C.ar      1 UNK         0.0000 
      4 C4          3.2857   53.7068   26.5442 C.ar      1 UNK         0.0000 
      5 C5          4.5616   54.0960   26.0983 C.ar      1 UNK         0.0000 
      6 C6          5.5726   54.2650   27.0649 C.ar      1 UNK         0.0000 
      7 C7          5.3310   54.0209   28.4098 C.ar      1 UNK         0.0000 
      8 N8          4.7825   54.2841   24.6964 N.am      1 UNK         0.0000 
      9 C9          3.6926   54.3469   23.7081 C.3       1 UNK         0.0000 
     10 C10         4.3121   54.3456   22.3178 C.3       1 UNK         0.0000 
     11 H11         3.8538   55.0955   21.6797 H         1 UNK         0.0000 
     12 C12         5.7672   54.6953   22.6005 C.3       1 UNK         0.0000 
     13 C13         5.9909   54.4977   24.0954 C.2       1 UNK         0.0000 
     14 O14         7.1047   54.5272   24.6038 O.2       1 UNK         0.0000 
     15 C15         4.1556   52.9746   21.6155 C.2       1 UNK         0.0000 
     16 O16         5.0422   52.1186   21.6812 O.2       1 UNK         0.0000 
     17 N17         2.9864   52.7961   20.9623 N.am      1 UNK         0.0000 
     18 N18         2.8301   51.7073   20.0949 N.am      1 UNK         0.0000 
     19 C19         2.2833   50.5459   20.5202 C.2       1 UNK         0.0000 
     20 O20         2.1941   50.1190   21.6744 O.2       1 UNK         0.0000 
     21 C21         1.7698   49.8566   19.2633 C.3       1 UNK         0.0000 
     22 C22         2.4363   48.4559   19.1361 C.3       1 UNK         0.0000 
     23 C23         1.8659   47.6356   17.9559 C.3       1 UNK         0.0000 
     24 C24         0.3305   47.5137   18.0323 C.3       1 UNK         0.0000 
     25 C25        -0.3559   48.8873   18.1921 C.3       1 UNK         0.0000 
     26 C26         0.2298   49.6619   19.3913 C.3       1 UNK         0.0000 
     27 N27         2.1779   50.8019   18.2631 N.am      1 UNK         0.0000 
     28 C28         2.7028   51.9269   18.7609 C.2       1 UNK         0.0000 
     29 O29         2.9283   52.9613   18.1353 O.2       1 UNK         0.0000 
     30 H30         2.7663   53.2983   30.5221 H         1 UNK         0.0000 
     31 H31         4.2794   52.3569   30.5645 H         1 UNK         0.0000 
     32 H32         4.3035   54.0930   30.8822 H         1 UNK         0.0000 
     33 H33         2.0592   53.1384   28.2072 H         1 UNK         0.0000 
     34 H34         2.4624   53.5668   25.8616 H         1 UNK         0.0000 
     35 H35         6.5700   54.5905   26.8265 H         1 UNK         0.0000 
     36 H36         6.1294   54.1584   29.1253 H         1 UNK         0.0000 
     37 H37         3.1692   55.2947   23.8582 H         1 UNK         0.0000 
     38 H38         2.9238   53.5815   23.8143 H         1 UNK         0.0000 
     39 H39         6.4913   54.0614   22.0929 H         1 UNK         0.0000 
     40 H40         6.0293   55.6964   22.2765 H         1 UNK         0.0000 
     41 H41         2.2927   53.5187   20.8149 H         1 UNK         0.0000 
     42 H42         2.4007   47.9024   20.0770 H         1 UNK         0.0000 
     43 H43         3.5031   48.5837   18.9390 H         1 UNK         0.0000 
     44 H44         2.3124   46.6400   17.9422 H         1 UNK         0.0000 
     45 H45         2.1458   48.1025   17.0096 H         1 UNK         0.0000 
     46 H46         0.0653   46.8789   18.8792 H         1 UNK         0.0000 
     47 H47        -0.0464   47.0071   17.1432 H         1 UNK         0.0000 
     48 H48        -1.4292   48.7475   18.3262 H         1 UNK         0.0000 
     49 H49        -0.2369   49.4702   17.2759 H         1 UNK         0.0000 
     50 H50        -0.2532   50.6421   19.4195 H         1 UNK         0.0000 
     51 H51        -0.0428   49.2039   20.3445 H         1 UNK         0.0000 
     52 H52         2.3542   50.4928   17.3164 H         1 UNK         0.0000 
@<TRIPOS>BOND
     1    1    2 1    
     2    1   30 1    
     3    1   31 1    
     4    1   32 1    
     5    2    7 ar   
     6    2    3 ar   
     7    3    4 ar   
     8    3   33 1    
     9    4    5 ar   
    10    4   34 1    
    11    5    6 ar   
    12    5    8 1    
    13    6    7 ar   
    14    6   35 1    
    15    7   36 1    
    16    8   13 am   BACKBONE|DICT|INTERRES
    17    8    9 1    
    18    9   10 1    
    19    9   37 1    
    20    9   38 1    
    21   10   11 1    
    22   10   12 1    
    23   10   15 1    
    24   12   13 1    
    25   12   39 1    
    26   12   40 1    
    27   13   14 2    
    28   15   16 2    
    29   15   17 am   BACKBONE|DICT|INTERRES
    30   17   18 1    
    31   17   41 1    
    32   18   28 am   BACKBONE|DICT|INTERRES
    33   18   19 am   BACKBONE|DICT|INTERRES
    34   19   20 2    
    35   19   21 1    
    36   21   26 1    
    37   21   22 1    
    38   21   27 1    
    39   22   23 1    
    40   22   42 1    
    41   22   43 1    
    42   23   24 1    
    43   23   44 1    
    44   23   45 1    
    45   24   25 1    
    46   24   46 1    
    47   24   47 1    
    48   25   26 1    
    49   25   48 1    
    50   25   49 1    
    51   26   50 1    
    52   26   51 1    
    53   27   28 am   BACKBONE|DICT|INTERRES
    54   27   52 1    
    55   28   29 2    
@<TRIPOS>SUBSTRUCTURE
     1 UNK         1 GROUP             0       ****    0 ROOT    
