@<TRIPOS>MOLECULE
ZINC20347498_3725
65   68    1
SMALL
USER_CHARGES


@<TRIPOS>ATOM
      1 C1         -1.0616   55.9308   16.9665 C.3       1 UNK         0.0000 
      2 C2          0.2141   56.6046   16.4957 C.ar      1 UNK         0.0000 
      3 C3          0.1603   57.7375   15.6820 C.ar      1 UNK         0.0000 
      4 C4          1.3361   58.3707   15.2814 C.ar      1 UNK         0.0000 
      5 C5          2.5733   57.8710   15.6899 C.ar      1 UNK         0.0000 
      6 C6          2.6469   56.7218   16.4815 C.ar      1 UNK         0.0000 
      7 C7          1.4565   56.0912   16.8810 C.ar      1 UNK         0.0000 
      8 N8          3.9317   56.3019   16.8727 N.am      1 UNK         0.0000 
      9 C9          4.3263   55.0815   17.2880 C.2       1 UNK         0.0000 
     10 O10         3.5965   54.0915   17.3396 O.2       1 UNK         0.0000 
     11 C11         5.8124   54.9759   17.6637 C.3       1 UNK         0.0000 
     12 S12         6.3071   53.4494   18.5476 S.3       1 UNK         0.0000 
     13 C13         5.2727   53.4475   20.0011 C.2       1 UNK         0.0000 
     14 C14         5.1339   54.4243   20.9223 C.2       1 UNK         0.0000 
     15 C15         4.1986   54.2512   22.1358 C.3       1 UNK         0.0000 
     16 H16         3.5558   55.1315   22.1236 H         1 UNK         0.0000 
     17 C17         3.2819   52.9987   21.9677 C.2       1 UNK         0.0000 
     18 C18         3.5305   52.0768   20.9910 C.2       1 UNK         0.0000 
     19 N19         4.5374   52.2925   20.0773 N.pl3     1 UNK         0.0000 
     20 C20         2.7146   50.8406   20.6375 C.3       1 UNK         0.0000 
     21 C21         2.1447   52.9296   22.8810 C.2       1 UNK         0.0000 
     22 O22         1.5019   53.9391   23.1676 O.2       1 UNK         0.0000 
     23 N23         1.8970   51.7150   23.4168 N.am      1 UNK         0.0000 
     24 C24         0.8944   51.3821   24.3583 C.ar      1 UNK         0.0000 
     25 C25         0.7434   52.0592   25.5940 C.ar      1 UNK         0.0000 
     26 C26        -0.2652   51.6620   26.4778 C.ar      1 UNK         0.0000 
     27 C27        -1.0921   50.5859   26.1768 C.ar      1 UNK         0.0000 
     28 C28        -0.9127   49.8850   24.9918 C.ar      1 UNK         0.0000 
     29 C29         0.0743   50.2680   24.0785 C.ar      1 UNK         0.0000 
     30 C30         0.2349   49.4339   22.8145 C.3       1 UNK         0.0000 
     31 C31         1.7108   53.1351   26.0763 C.3       1 UNK         0.0000 
     32 C32         4.9763   54.2513   23.4499 C.2       1 UNK         0.0000 
     33 C33         6.3155   54.0979   23.8003 C.2       1 UNK         0.0000 
     34 C34         6.4030   54.2521   25.1866 C.2       1 UNK         0.0000 
     35 C35         5.1162   54.4961   25.6279 C.2       1 UNK         0.0000 
     36 O36         4.2577   54.4979   24.5772 O.3       1 UNK         0.0000 
     37 C37         5.9820   55.5780   20.8754 C.1       1 UNK         0.0000 
     38 N38         6.6999   56.4892   20.8583 N.1       1 UNK         0.0000 
     39 H39        -1.9210   56.2189   16.3606 H         1 UNK         0.0000 
     40 H40        -1.2563   56.1873   18.0108 H         1 UNK         0.0000 
     41 H41        -0.9641   54.8454   16.8998 H         1 UNK         0.0000 
     42 H42        -0.7909   58.1391   15.3690 H         1 UNK         0.0000 
     43 H43         1.2904   59.2569   14.6659 H         1 UNK         0.0000 
     44 H44         3.4694   58.3871   15.3829 H         1 UNK         0.0000 
     45 H45         1.4778   55.2294   17.5308 H         1 UNK         0.0000 
     46 H46         4.6473   57.0059   16.7807 H         1 UNK         0.0000 
     47 H47         6.3918   55.0095   16.7414 H         1 UNK         0.0000 
     48 H48         6.1142   55.8433   18.2514 H         1 UNK         0.0000 
     49 H49         4.7041   51.5915   19.3551 H         1 UNK         0.0000 
     50 H50         3.0938   49.9669   21.1688 H         1 UNK         0.0000 
     51 H51         1.6618   50.9829   20.8714 H         1 UNK         0.0000 
     52 H52         2.7537   50.6188   19.5684 H         1 UNK         0.0000 
     53 H53         2.3916   50.9369   23.0134 H         1 UNK         0.0000 
     54 H54        -0.3900   52.1673   27.4249 H         1 UNK         0.0000 
     55 H55        -1.8420   50.2608   26.8849 H         1 UNK         0.0000 
     56 H56        -1.5441   49.0320   24.7970 H         1 UNK         0.0000 
     57 H57        -0.3567   48.5172   22.8431 H         1 UNK         0.0000 
     58 H58        -0.0681   50.0113   21.9401 H         1 UNK         0.0000 
     59 H59         1.2757   49.1335   22.6878 H         1 UNK         0.0000 
     60 H60         1.6752   53.2633   27.1594 H         1 UNK         0.0000 
     61 H61         2.7350   52.8474   25.8367 H         1 UNK         0.0000 
     62 H62         1.5048   54.0965   25.6080 H         1 UNK         0.0000 
     63 H63         7.1395   53.9048   23.1270 H         1 UNK         0.0000 
     64 H64         7.2884   54.1876   25.7956 H         1 UNK         0.0000 
     65 H65         4.6795   54.6749   26.6002 H         1 UNK         0.0000 
@<TRIPOS>BOND
     1    1    2 1    
     2    1   39 1    
     3    1   40 1    
     4    1   41 1    
     5    2    7 ar   
     6    2    3 ar   
     7    3    4 ar   
     8    3   42 1    
     9    4    5 ar   
    10    4   43 1    
    11    5    6 ar   
    12    5   44 1    
    13    6    7 ar   
    14    6    8 1    
    15    7   45 1    
    16    8    9 am   BACKBONE|DICT|INTERRES
    17    8   46 1    
    18    9   10 2    
    19    9   11 1    
    20   11   12 1    
    21   11   47 1    
    22   11   48 1    
    23   12   13 1    
    24   13   19 1    
    25   13   14 2    
    26   14   15 1    
    27   14   37 1    
    28   15   16 1    
    29   15   17 1    
    30   15   32 1    
    31   17   18 2    
    32   17   21 1    
    33   18   19 1    
    34   18   20 1    
    35   19   49 1    
    36   20   50 1    
    37   20   51 1    
    38   20   52 1    
    39   21   22 2    
    40   21   23 am   BACKBONE|DICT|INTERRES
    41   23   24 1    
    42   23   53 1    
    43   24   29 ar   
    44   24   25 ar   
    45   25   26 ar   
    46   25   31 1    
    47   26   27 ar   
    48   26   54 1    
    49   27   28 ar   
    50   27   55 1    
    51   28   29 ar   
    52   28   56 1    
    53   29   30 1    
    54   30   57 1    
    55   30   58 1    
    56   30   59 1    
    57   31   60 1    
    58   31   61 1    
    59   31   62 1    
    60   32   36 1    
    61   32   33 2    
    62   33   34 1    
    63   33   63 1    
    64   34   35 2    
    65   34   64 1    
    66   35   36 1    
    67   35   65 1    
    68   37   38 3    
@<TRIPOS>SUBSTRUCTURE
     1 UNK         1 GROUP             0       ****    0 ROOT    
