@<TRIPOS>MOLECULE
ZINC09325319_3107
63   66    1
SMALL
USER_CHARGES


@<TRIPOS>ATOM
      1 C1         11.1904   49.9587   16.5883 C.3       1 UNK         0.0000 
      2 C2         10.0740   51.0077   16.7222 C.3       1 UNK         0.0000 
      3 C3         10.6317   52.4429   16.8427 C.3       1 UNK         0.0000 
      4 C4          9.4953   53.4748   17.0213 C.3       1 UNK         0.0000 
      5 N5          8.4992   53.3490   15.9194 N.pl3     1 UNK         0.0000 
      6 C6          7.9533   51.9779   15.7113 C.3       1 UNK         0.0000 
      7 C7          9.1024   50.9659   15.5247 C.3       1 UNK         0.0000 
      8 S8          7.3038   54.6562   15.8219 S.o2      1 UNK         0.0000 
      9 O9          6.4308   54.3976   14.6707 O.2       1 UNK         0.0000 
     10 O10         8.0151   55.9345   15.9497 O.2       1 UNK         0.0000 
     11 C11         6.3027   54.4599   17.2936 C.ar      1 UNK         0.0000 
     12 C12         5.2824   53.5114   17.3082 C.ar      1 UNK         0.0000 
     13 C13         4.5554   53.2970   18.4730 C.ar      1 UNK         0.0000 
     14 C14         4.8400   54.0157   19.6412 C.ar      1 UNK         0.0000 
     15 C15         5.8376   55.0086   19.5946 C.ar      1 UNK         0.0000 
     16 C16         6.5694   55.2233   18.4299 C.ar      1 UNK         0.0000 
     17 C17         4.1001   53.6769   20.9214 C.2       1 UNK         0.0000 
     18 O18         3.1474   52.8942   20.9103 O.2       1 UNK         0.0000 
     19 N19         4.6181   54.2266   22.0395 N.am      1 UNK         0.0000 
     20 C20         4.2036   54.0961   23.3613 C.2       1 UNK         0.0000 
     21 C21         4.9833   54.3961   24.4992 C.2       1 UNK         0.0000 
     22 C22         4.2665   54.1663   25.6964 C.2       1 UNK         0.0000 
     23 C23         2.9810   53.6627   25.4705 C.2       1 UNK         0.0000 
     24 S24         2.5993   53.5603   23.7907 S.3       1 UNK         0.0000 
     25 C25         2.0264   53.2123   26.5674 C.3       1 UNK         0.0000 
     26 N26         2.6258   53.5325   27.8742 N.am      1 UNK         0.0000 
     27 C27         4.0662   53.2948   28.0525 C.3       1 UNK         0.0000 
     28 C28         4.8043   54.2798   27.1270 C.3       1 UNK         0.0000 
     29 C29         1.8576   53.7485   29.0229 C.2       1 UNK         0.0000 
     30 O30         2.3094   54.1835   30.0819 O.2       1 UNK         0.0000 
     31 O31         0.5592   53.4034   28.8495 O.3       1 UNK         0.0000 
     32 C32        -0.3092   53.3273   29.9696 C.3       1 UNK         0.0000 
     33 C33         6.3289   54.9367   24.4889 C.2       1 UNK         0.0000 
     34 O34         6.7479   55.6965   25.3574 O.2       1 UNK         0.0000 
     35 N35         7.1044   54.5538   23.4790 N.am      1 UNK         0.0000 
     36 H36        11.8130   50.1441   15.7128 H         1 UNK         0.0000 
     37 H37        11.8382   49.9630   17.4665 H         1 UNK         0.0000 
     38 H38        10.7764   48.9541   16.4946 H         1 UNK         0.0000 
     39 H39         9.5017   50.7898   17.6274 H         1 UNK         0.0000 
     40 H40        11.2335   52.6896   15.9658 H         1 UNK         0.0000 
     41 H41        11.3318   52.5066   17.6775 H         1 UNK         0.0000 
     42 H42         9.9180   54.4804   17.0282 H         1 UNK         0.0000 
     43 H43         9.0146   53.2145   17.9659 H         1 UNK         0.0000 
     44 H44         7.4295   51.6688   16.6161 H         1 UNK         0.0000 
     45 H45         7.3108   51.9644   14.8306 H         1 UNK         0.0000 
     46 H46         8.7060   49.9582   15.4009 H         1 UNK         0.0000 
     47 H47         9.6390   51.1595   14.5934 H         1 UNK         0.0000 
     48 H48         5.0733   52.9100   16.4350 H         1 UNK         0.0000 
     49 H49         3.8006   52.5206   18.4642 H         1 UNK         0.0000 
     50 H50         6.0826   55.6129   20.4557 H         1 UNK         0.0000 
     51 H51         7.3524   55.9680   18.4182 H         1 UNK         0.0000 
     52 H52         5.4899   54.7155   21.9209 H         1 UNK         0.0000 
     53 H53         1.8277   52.1418   26.5085 H         1 UNK         0.0000 
     54 H54         1.0576   53.6927   26.4500 H         1 UNK         0.0000 
     55 H55         4.4048   53.3984   29.0845 H         1 UNK         0.0000 
     56 H56         4.2838   52.2663   27.7658 H         1 UNK         0.0000 
     57 H57         4.7180   55.2968   27.5017 H         1 UNK         0.0000 
     58 H58         5.8688   54.0496   27.1722 H         1 UNK         0.0000 
     59 H59        -1.2574   52.8820   29.6795 H         1 UNK         0.0000 
     60 H60        -0.4955   54.3174   30.3853 H         1 UNK         0.0000 
     61 H61         0.1167   52.7006   30.7540 H         1 UNK         0.0000 
     62 H62         8.0656   54.8967   23.4627 H         1 UNK         0.0000 
     63 H63         6.8450   53.7617   22.9136 H         1 UNK         0.0000 
@<TRIPOS>BOND
     1    1    2 1    
     2    1   36 1    
     3    1   37 1    
     4    1   38 1    
     5    2    7 1    
     6    2    3 1    
     7    2   39 1    
     8    3    4 1    
     9    3   40 1    
    10    3   41 1    
    11    4    5 1    
    12    4   42 1    
    13    4   43 1    
    14    5    6 1    
    15    5    8 1    
    16    6    7 1    
    17    6   44 1    
    18    6   45 1    
    19    7   46 1    
    20    7   47 1    
    21    8    9 2    
    22    8   10 2    
    23    8   11 1    
    24   11   16 ar   
    25   11   12 ar   
    26   12   13 ar   
    27   12   48 1    
    28   13   14 ar   
    29   13   49 1    
    30   14   15 ar   
    31   14   17 1    
    32   15   16 ar   
    33   15   50 1    
    34   16   51 1    
    35   17   18 2    
    36   17   19 am   BACKBONE|DICT|INTERRES
    37   19   20 am   BACKBONE|DICT|INTERRES
    38   19   52 1    
    39   20   24 1    
    40   20   21 2    
    41   21   22 1    
    42   21   33 1    
    43   22   28 1    
    44   22   23 2    
    45   23   24 1    
    46   23   25 1    
    47   25   26 1    
    48   25   53 1    
    49   25   54 1    
    50   26   27 1    
    51   26   29 am   BACKBONE|DICT|INTERRES
    52   27   28 1    
    53   27   55 1    
    54   27   56 1    
    55   28   57 1    
    56   28   58 1    
    57   29   30 2    
    58   29   31 1    
    59   31   32 1    
    60   32   59 1    
    61   32   60 1    
    62   32   61 1    
    63   33   34 2    
    64   33   35 am   BACKBONE|DICT|INTERRES
    65   35   62 1    
    66   35   63 1    
@<TRIPOS>SUBSTRUCTURE
     1 UNK         1 GROUP             0       ****    0 ROOT    
