@<TRIPOS>MOLECULE
ZINC25591915_2000
54   57    1
SMALL
USER_CHARGES


@<TRIPOS>ATOM
      1 C1         -4.9234   50.0395   31.7695 C.3       1 UNK         0.0000 
      2 C2         -4.9035   50.7425   30.4215 C.2       1 UNK         0.0000 
      3 O3         -5.6921   51.6710   30.2162 O.2       1 UNK         0.0000 
      4 N4         -3.9556   50.3243   29.5585 N.am      1 UNK         0.0000 
      5 C5         -3.6859   50.8950   28.3052 C.ar      1 UNK         0.0000 
      6 C6         -2.3660   51.2967   28.0771 C.ar      1 UNK         0.0000 
      7 C7         -2.0072   51.9186   26.8728 C.ar      1 UNK         0.0000 
      8 C8         -2.9749   52.0817   25.8812 C.ar      1 UNK         0.0000 
      9 C9         -4.2838   51.6489   26.0865 C.ar      1 UNK         0.0000 
     10 C10        -4.6621   51.0449   27.2988 C.ar      1 UNK         0.0000 
     11 O11        -5.9381   50.5672   27.5406 O.3       1 UNK         0.0000 
     12 C12        -6.9442   50.6949   26.5395 C.3       1 UNK         0.0000 
     13 N13        -0.7247   52.4036   26.5607 N.am      1 UNK         0.0000 
     14 C14         0.4085   52.4819   27.2880 C.2       1 UNK         0.0000 
     15 O15         0.4715   52.1653   28.4791 O.2       1 UNK         0.0000 
     16 C16         1.6450   53.0306   26.5696 C.ar      1 UNK         0.0000 
     17 C17         2.7727   53.2975   27.3690 C.ar      1 UNK         0.0000 
     18 C18         3.9733   53.8128   26.8343 C.ar      1 UNK         0.0000 
     19 C19         5.1210   54.0455   27.6370 C.ar      1 UNK         0.0000 
     20 C20         6.2945   54.5320   27.0635 C.ar      1 UNK         0.0000 
     21 C21         6.3516   54.8101   25.7016 C.ar      1 UNK         0.0000 
     22 C22         5.2387   54.6014   24.8909 C.ar      1 UNK         0.0000 
     23 C23         4.0349   54.0973   25.4456 C.ar      1 UNK         0.0000 
     24 C24         2.8991   53.8510   24.6514 C.ar      1 UNK         0.0000 
     25 C25         1.7228   53.2962   25.1693 C.ar      1 UNK         0.0000 
     26 N26         0.7196   53.1320   24.2435 N.2       1 UNK         0.0000 
     27 S27         0.4044   51.7123   23.6505 S.o2      1 UNK         0.0000 
     28 O28         0.7341   50.6031   24.5498 O.2       1 UNK         0.0000 
     29 O29        -0.9114   51.6785   23.0062 O.2       1 UNK         0.0000 
     30 C30         1.5458   51.4920   22.2658 C.2       1 UNK         0.0000 
     31 C31         2.0663   52.5024   21.4713 C.2       1 UNK         0.0000 
     32 C32         2.8796   52.0238   20.4410 C.2       1 UNK         0.0000 
     33 C33         2.9618   50.6382   20.4370 C.2       1 UNK         0.0000 
     34 S34         2.0500   49.9200   21.7268 S.3       1 UNK         0.0000 
     35 H35        -5.2178   48.9950   31.6519 H         1 UNK         0.0000 
     36 H36        -5.6252   50.5223   32.4513 H         1 UNK         0.0000 
     37 H37        -3.9310   50.0946   32.2249 H         1 UNK         0.0000 
     38 H38        -3.2568   49.6678   29.9001 H         1 UNK         0.0000 
     39 H39        -1.6371   51.1273   28.8549 H         1 UNK         0.0000 
     40 H40        -2.7142   52.5371   24.9354 H         1 UNK         0.0000 
     41 H41        -4.9906   51.7856   25.2812 H         1 UNK         0.0000 
     42 H42        -7.8741   50.2759   26.9197 H         1 UNK         0.0000 
     43 H43        -7.1296   51.7420   26.2901 H         1 UNK         0.0000 
     44 H44        -6.6760   50.1455   25.6341 H         1 UNK         0.0000 
     45 H45        -0.6004   52.7143   25.6022 H         1 UNK         0.0000 
     46 H46         2.7525   53.1003   28.4313 H         1 UNK         0.0000 
     47 H47         5.0859   53.8316   28.6966 H         1 UNK         0.0000 
     48 H48         7.1624   54.6995   27.6833 H         1 UNK         0.0000 
     49 H49         7.2627   55.1856   25.2602 H         1 UNK         0.0000 
     50 H50         5.2905   54.8157   23.8334 H         1 UNK         0.0000 
     51 H51         2.9639   54.0839   23.5983 H         1 UNK         0.0000 
     52 H52         1.8560   53.5489   21.6349 H         1 UNK         0.0000 
     53 H53         3.3720   52.6569   19.7176 H         1 UNK         0.0000 
     54 H54         3.5043   50.0230   19.7315 H         1 UNK         0.0000 
@<TRIPOS>BOND
     1    1    2 1    
     2    1   35 1    
     3    1   36 1    
     4    1   37 1    
     5    2    3 2    
     6    2    4 am   BACKBONE|DICT|INTERRES
     7    4    5 1    
     8    4   38 1    
     9    5   10 ar   
    10    5    6 ar   
    11    6    7 ar   
    12    6   39 1    
    13    7    8 ar   
    14    7   13 1    
    15    8    9 ar   
    16    8   40 1    
    17    9   10 ar   
    18    9   41 1    
    19   10   11 1    
    20   11   12 1    
    21   12   42 1    
    22   12   43 1    
    23   12   44 1    
    24   13   14 am   BACKBONE|DICT|INTERRES
    25   13   45 1    
    26   14   15 2    
    27   14   16 1    
    28   16   25 ar   
    29   16   17 ar   
    30   17   18 ar   
    31   17   46 1    
    32   18   23 ar   
    33   18   19 ar   
    34   19   20 ar   
    35   19   47 1    
    36   20   21 ar   
    37   20   48 1    
    38   21   22 ar   
    39   21   49 1    
    40   22   23 ar   
    41   22   50 1    
    42   23   24 ar   
    43   24   25 ar   
    44   24   51 1    
    45   25   26 1    
    46   26   27 1    
    47   27   28 2    
    48   27   29 2    
    49   27   30 1    
    50   30   34 1    
    51   30   31 2    
    52   31   32 1    
    53   31   52 1    
    54   32   33 2    
    55   32   53 1    
    56   33   34 1    
    57   33   54 1    
@<TRIPOS>SUBSTRUCTURE
     1 UNK         1 GROUP             0       ****    0 ROOT    
