ZINC58961604_5922
                    3D
 Schrodinger Suite 2024-2.
 61 63  0  0  1  0            999 V2000
   -3.2974   47.8175   25.9556 C   0  0  0  0  0  0
   -2.8032   46.6226   25.1260 C   0  0  0  0  0  0
   -2.2594   47.0189   23.8577 O   0  0  0  0  0  0
   -3.0527   47.6641   22.9477 C   0  0  0  0  0  0
   -4.2465   47.1820   22.8563 O   0  5  0  0  0  0
   -2.4582   48.6760   22.2648 C   0  0  0  0  0  0
   -3.1485   49.4622   21.2381 C   0  0  0  0  0  0
   -2.5194   50.2821   20.4791 N   0  0  0  0  0  0
   -1.1536   50.4786   20.6345 C   0  0  0  0  0  0
   -0.3765   49.9406   21.4930 N   0  0  0  0  0  0
   -0.9710   49.0629   22.5029 C   0  0  1  0  0  0
   -0.4178   48.1262   22.4328 H   0  0  0  0  0  0
   -0.6822   49.6395   23.9002 C   0  0  0  0  0  0
    0.1092   48.8968   24.7826 C   0  0  0  0  0  0
    0.3998   49.3748   26.0542 C   0  0  0  0  0  0
   -0.0816   50.6132   26.4616 C   0  0  0  0  0  0
   -0.8643   51.3719   25.5963 C   0  0  0  0  0  0
   -1.1815   50.8958   24.3092 C   0  0  0  0  0  0
   -1.9774   51.6006   23.4268 O   0  0  0  0  0  0
   -2.3720   52.9307   23.7330 C   0  0  0  0  0  0
   -0.4386   51.6947   19.5019 S   0  0  0  0  0  0
    1.3271   51.7743   20.0180 C   0  0  0  0  0  0
    1.6193   52.4966   21.3472 C   0  0  0  0  0  0
    0.7054   52.8060   22.1104 O   0  0  0  0  0  0
    2.9215   52.7734   21.5755 N   0  0  0  0  0  0
    3.5245   53.3894   22.6887 C   0  0  0  0  0  0
    2.8700   53.6973   23.8936 C   0  0  0  0  0  0
    3.5823   54.2432   24.9595 C   0  0  0  0  0  0
    4.9496   54.4944   24.8494 C   0  0  0  0  0  0
    5.6116   54.1981   23.6487 C   0  0  0  0  0  0
    4.8918   53.6582   22.5758 C   0  0  0  0  0  0
    7.1033   54.4401   23.4974 C   0  0  0  0  0  0
    5.6957   55.0820   26.0404 C   0  0  0  0  0  0
   -4.6419   49.4053   20.9437 C   0  0  0  0  0  0
   -3.6233   47.4937   26.9452 H   0  0  0  0  0  0
   -2.5029   48.5515   26.0865 H   0  0  0  0  0  0
   -4.1382   48.3191   25.4771 H   0  0  0  0  0  0
   -3.5900   45.8782   25.0030 H   0  0  0  0  0  0
   -2.0022   46.1226   25.6708 H   0  0  0  0  0  0
    0.4931   47.9316   24.4935 H   0  0  0  0  0  0
    0.9952   48.7740   26.7250 H   0  0  0  0  0  0
    0.1359   50.9774   27.4541 H   0  0  0  0  0  0
   -1.2323   52.3238   25.9477 H   0  0  0  0  0  0
   -2.9241   53.3281   22.8839 H   0  0  0  0  0  0
   -3.0272   52.9673   24.6057 H   0  0  0  0  0  0
   -1.5098   53.5775   23.9016 H   0  0  0  0  0  0
    1.8713   52.2775   19.2212 H   0  0  0  0  0  0
    1.7286   50.7632   20.0863 H   0  0  0  0  0  0
    3.5606   52.5269   20.8358 H   0  0  0  0  0  0
    1.8219   53.4998   24.0463 H   0  0  0  0  0  0
    3.0582   54.4606   25.8805 H   0  0  0  0  0  0
    5.4105   53.4276   21.6559 H   0  0  0  0  0  0
    7.4596   54.2641   22.4816 H   0  0  0  0  0  0
    7.6568   53.7898   24.1761 H   0  0  0  0  0  0
    7.3465   55.4744   23.7505 H   0  0  0  0  0  0
    5.0377   55.2885   26.8852 H   0  0  0  0  0  0
    6.4737   54.3943   26.3745 H   0  0  0  0  0  0
    6.1801   56.0161   25.7520 H   0  0  0  0  0  0
   -5.2182   49.5045   21.8620 H   0  0  0  0  0  0
   -4.9716   50.2033   20.2756 H   0  0  0  0  0  0
   -4.9079   48.4561   20.4787 H   0  0  0  0  0  0
  1  2  1  0  0  0
  1 35  1  0  0  0
  1 36  1  0  0  0
  1 37  1  0  0  0
  2  3  1  0  0  0
  2 38  1  0  0  0
  2 39  1  0  0  0
  3  4  1  0  0  0
  4  5  1  0  0  0
  4  6  2  0  0  0
  6 11  1  0  0  0
  6  7  1  0  0  0
  7  8  2  0  0  0
  7 34  1  0  0  0
  8  9  1  0  0  0
  9 10  2  0  0  0
  9 21  1  0  0  0
 10 11  1  0  0  0
 11 12  1  0  0  0
 11 13  1  0  0  0
 13 18  2  0  0  0
 13 14  1  0  0  0
 14 15  2  0  0  0
 14 40  1  0  0  0
 15 16  1  0  0  0
 15 41  1  0  0  0
 16 17  2  0  0  0
 16 42  1  0  0  0
 17 18  1  0  0  0
 17 43  1  0  0  0
 18 19  1  0  0  0
 19 20  1  0  0  0
 20 44  1  0  0  0
 20 45  1  0  0  0
 20 46  1  0  0  0
 21 22  1  0  0  0
 22 23  1  0  0  0
 22 47  1  0  0  0
 22 48  1  0  0  0
 23 24  2  0  0  0
 23 25  1  0  0  0
 25 26  1  0  0  0
 25 49  1  0  0  0
 26 31  2  0  0  0
 26 27  1  0  0  0
 27 28  2  0  0  0
 27 50  1  0  0  0
 28 29  1  0  0  0
 28 51  1  0  0  0
 29 30  2  0  0  0
 29 33  1  0  0  0
 30 31  1  0  0  0
 30 32  1  0  0  0
 31 52  1  0  0  0
 32 53  1  0  0  0
 32 54  1  0  0  0
 32 55  1  0  0  0
 33 56  1  0  0  0
 33 57  1  0  0  0
 33 58  1  0  0  0
 34 59  1  0  0  0
 34 60  1  0  0  0
 34 61  1  0  0  0
M  CHG  1   5  -1
M  END
> <i_i_glide_confnum>
7

> <i_i_glide_lignum>
5923

> <i_i_glide_posenum>
339

> <i_i_glide_rotatable_bonds>
9

> <i_m_Source_File_Index>
4432

> <b_m_subgroup_collapsed>
0

> <r_i_docking_score>
-3.58468

> <r_i_glide_ecoul>
-2.12486

> <r_i_glide_eff_state_penalty>
0

> <r_i_glide_einternal>
1.28893

> <r_i_glide_emodel>
-46.9969

> <r_i_glide_energy>
-38.1626

> <r_i_glide_erotb>
0.648766

> <r_i_glide_esite>
-0.0179229

> <r_i_glide_evdw>
-36.0377

> <r_i_glide_gscore>
-3.58468

> <r_i_glide_hbond>
0

> <r_i_glide_ligand_efficiency>
-0.108627

> <r_i_glide_ligand_efficiency_ln>
-0.797215

> <r_i_glide_ligand_efficiency_sa>
-0.348424

> <r_i_glide_lipo>
-1.79204

> <r_i_glide_metal>
0

> <r_i_glide_rewards>
-0.302865

> <s_i_glide_gridfile>
wee1_glide-grid

> <s_m_Source_File>
wee1_decoys_glide_SP.sdf

> <s_m_Source_Path>
/Users/zhangxujun/Desktop

> <s_m_entry_id>
4707

> <s_m_entry_name>
wee1_decoys_glide_SP.4432

> <s_m_subgroup_title>
wee1_decoys_glide_SP

> <s_m_subgroupid>
wee1_decoys_glide_SP


$$$$
