ZINC67000228_1410
                    3D
 Schrodinger Suite 2024-2.
 49 51  0  0  1  0            999 V2000
   -4.7702   45.7017   27.6274 C   0  0  0  0  0  0
   -4.4155   46.9895   27.0191 N   0  0  0  0  0  0
   -4.9804   48.1383   27.6228 C   0  0  0  0  0  0
   -6.0133   48.8368   26.9914 C   0  0  0  0  0  0
   -6.5252   49.9934   27.5742 C   0  0  0  0  0  0
   -6.0207   50.4635   28.7966 C   0  0  0  0  0  0
   -5.0053   49.7354   29.4356 C   0  0  0  0  0  0
   -4.4956   48.5766   28.8562 C   0  0  0  0  0  0
   -6.5473   51.7157   29.3962 N   0  3  0  0  0  0
   -6.0956   52.0934   30.4749 O   0  0  0  0  0  0
   -7.4068   52.3444   28.7852 O   0  5  0  0  0  0
   -3.6701   46.9926   25.8611 C   0  0  0  0  0  0
   -3.3209   45.9571   25.2813 O   0  0  0  0  0  0
   -3.2839   48.3062   25.2719 C   0  0  0  0  0  0
   -3.6591   48.6621   24.1533 O   0  0  0  0  0  0
   -2.4939   49.0327   26.0816 N   0  0  0  0  0  0
   -2.0779   50.4264   25.8955 C   0  0  0  0  0  0
   -0.5441   50.6969   25.7046 C   0  0  2  0  0  0
   -0.2384   52.0970   26.3225 C   0  0  0  0  0  0
    1.0480   52.7411   25.7952 C   0  0  0  0  0  0
    0.8952   52.9728   24.2894 C   0  0  0  0  0  0
    0.5767   51.6691   23.5654 C   0  0  0  0  0  0
   -0.1130   50.6116   24.2162 C   0  0  0  0  0  0
   -0.3370   49.4326   23.4869 C   0  0  0  0  0  0
    0.0651   49.2965   22.1617 C   0  0  0  0  0  0
    0.7290   50.3403   21.5328 C   0  0  0  0  0  0
    0.9843   51.5125   22.2348 C   0  0  0  0  0  0
    0.1899   49.7606   26.4817 O   0  0  0  0  0  0
   -5.0447   44.9597   26.8759 H   0  0  0  0  0  0
   -3.9246   45.3084   28.1939 H   0  0  0  0  0  0
   -5.6184   45.8044   28.3053 H   0  0  0  0  0  0
   -6.4031   48.4977   26.0422 H   0  0  0  0  0  0
   -7.3121   50.5280   27.0609 H   0  0  0  0  0  0
   -4.5903   50.0654   30.3785 H   0  0  0  0  0  0
   -3.6955   48.0436   29.3509 H   0  0  0  0  0  0
   -2.2337   48.6266   26.9908 H   0  0  0  0  0  0
   -2.6399   50.9080   25.0921 H   0  0  0  0  0  0
   -2.4249   50.9188   26.8060 H   0  0  0  0  0  0
   -1.0600   52.7820   26.1032 H   0  0  0  0  0  0
   -0.2046   52.0397   27.4125 H   0  0  0  0  0  0
    1.2403   53.6858   26.3052 H   0  0  0  0  0  0
    1.9044   52.0982   26.0007 H   0  0  0  0  0  0
    0.0913   53.6864   24.1024 H   0  0  0  0  0  0
    1.8053   53.4242   23.8900 H   0  0  0  0  0  0
   -0.8192   48.5930   23.9629 H   0  0  0  0  0  0
   -0.1287   48.3786   21.6271 H   0  0  0  0  0  0
    1.0533   50.2398   20.5072 H   0  0  0  0  0  0
    1.5088   52.3142   21.7349 H   0  0  0  0  0  0
   -0.3972   49.3621   27.1403 H   0  0  0  0  0  0
  1  2  1  0  0  0
  1 29  1  0  0  0
  1 30  1  0  0  0
  1 31  1  0  0  0
  2  3  1  0  0  0
  2 12  1  0  0  0
  3  8  2  0  0  0
  3  4  1  0  0  0
  4  5  2  0  0  0
  4 32  1  0  0  0
  5  6  1  0  0  0
  5 33  1  0  0  0
  6  7  2  0  0  0
  6  9  1  0  0  0
  7  8  1  0  0  0
  7 34  1  0  0  0
  8 35  1  0  0  0
  9 10  2  0  0  0
  9 11  1  0  0  0
 12 13  2  0  0  0
 12 14  1  0  0  0
 14 15  2  0  0  0
 14 16  1  0  0  0
 16 17  1  0  0  0
 16 36  1  0  0  0
 17 18  1  0  0  0
 17 37  1  0  0  0
 17 38  1  0  0  0
 18 23  1  0  0  0
 18 19  1  0  0  0
 18 28  1  0  0  0
 19 20  1  0  0  0
 19 39  1  0  0  0
 19 40  1  0  0  0
 20 21  1  0  0  0
 20 41  1  0  0  0
 20 42  1  0  0  0
 21 22  1  0  0  0
 21 43  1  0  0  0
 21 44  1  0  0  0
 22 27  2  0  0  0
 22 23  1  0  0  0
 23 24  2  0  0  0
 24 25  1  0  0  0
 24 45  1  0  0  0
 25 26  2  0  0  0
 25 46  1  0  0  0
 26 27  1  0  0  0
 26 47  1  0  0  0
 27 48  1  0  0  0
 28 49  1  0  0  0
M  CHG  2   9   1  11  -1
M  END
> <i_i_glide_confnum>
142

> <i_i_glide_lignum>
1411

> <i_i_glide_posenum>
344

> <i_i_glide_rotatable_bonds>
8

> <i_m_Source_File_Index>
5587

> <b_m_subgroup_collapsed>
0

> <r_i_docking_score>
-2.68043

> <r_i_glide_ecoul>
-12.4434

> <r_i_glide_eff_state_penalty>
0

> <r_i_glide_einternal>
12.6848

> <r_i_glide_emodel>
-29.5577

> <r_i_glide_energy>
-32.7014

> <r_i_glide_erotb>
0.793164

> <r_i_glide_esite>
-0.351617

> <r_i_glide_evdw>
-20.258

> <r_i_glide_gscore>
-2.68043

> <r_i_glide_hbond>
-0.440708

> <r_i_glide_ligand_efficiency>
-0.0957297

> <r_i_glide_ligand_efficiency_ln>
-0.618722

> <r_i_glide_ligand_efficiency_sa>
-0.290692

> <r_i_glide_lipo>
-0.473609

> <r_i_glide_metal>
0

> <r_i_glide_rewards>
0.671746

> <s_i_glide_gridfile>
wee1_glide-grid

> <s_m_Source_File>
wee1_decoys_glide_SP.sdf

> <s_m_Source_Path>
/Users/zhangxujun/Desktop

> <s_m_entry_id>
5862

> <s_m_entry_name>
wee1_decoys_glide_SP.5587

> <s_m_subgroup_title>
wee1_decoys_glide_SP

> <s_m_subgroupid>
wee1_decoys_glide_SP


$$$$
