@<TRIPOS>MOLECULE
ZINC63571867_1152
68   72    1
SMALL
USER_CHARGES


@<TRIPOS>ATOM
      1 C1          0.5527   52.1741   29.7262 C.3       1 UNK         0.0000 
      2 C2          1.3690   53.2751   30.4239 C.3       1 UNK         0.0000 
      3 O3          2.2647   53.9118   29.5157 O.3       1 UNK         0.0000 
      4 C4          3.4710   53.3718   29.2131 C.2       1 UNK         0.0000 
      5 O5          3.9579   52.3715   29.7476 O.2       1 UNK         0.0000 
      6 C6          4.1980   54.1672   28.1047 C.3       1 UNK         0.0000 
      7 C7          5.7090   53.8126   28.0095 C.3       1 UNK         0.0000 
      8 C8          6.3758   54.6267   26.8783 C.3       1 UNK         0.0000 
      9 C9          5.7050   54.3224   25.5161 C.3       1 UNK         0.0000 
     10 C10         4.2007   54.6756   25.6056 C.3       1 UNK         0.0000 
     11 C11         3.4973   53.9052   26.7433 C.3       1 UNK         0.0000 
     12 C12         6.4292   54.9956   24.3306 C.3       1 UNK         0.0000 
     13 N13         5.9017   54.5857   23.0222 N.am      1 UNK         0.0000 
     14 C14         6.4416   54.9308   21.8374 C.2       1 UNK         0.0000 
     15 O15         7.5037   55.5537   21.7845 O.2       1 UNK         0.0000 
     16 N16         5.7868   54.5004   20.7152 N.am      1 UNK         0.0000 
     17 C17         4.3033   54.4224   20.6831 C.3       1 UNK         0.0000 
     18 C18         3.8556   53.2070   19.8545 C.3       1 UNK         0.0000 
     19 C19         4.4159   53.4120   18.4747 C.2       1 UNK         0.0000 
     20 C20         3.8846   53.5857   17.2553 C.2       1 UNK         0.0000 
     21 C21         2.4937   53.6124   16.7919 C.2       1 UNK         0.0000 
     22 C22         2.2111   53.8125   15.4868 C.2       1 UNK         0.0000 
     23 C23         3.3258   53.9980   14.5678 C.2       1 UNK         0.0000 
     24 C24         4.6197   53.9793   14.9845 C.2       1 UNK         0.0000 
     25 C25         4.9229   53.7792   16.3378 C.2       1 UNK         0.0000 
     26 N26         6.0922   53.7411   16.9450 N.pl3     1 UNK         0.0000 
     27 C27         5.9151   53.4932   18.3958 C.3       1 UNK         0.0000 
     28 H28         6.3055   52.4985   18.5856 H         1 UNK         0.0000 
     29 C29         6.5470   54.5073   19.4233 C.3       1 UNK         0.0000 
     30 H30         7.5296   54.0967   19.6477 H         1 UNK         0.0000 
     31 C31         6.8673   55.8750   18.8005 C.ar      1 UNK         0.0000 
     32 C32         5.8658   56.7713   18.4131 C.ar      1 UNK         0.0000 
     33 C33         6.2165   57.9877   17.8253 C.ar      1 UNK         0.0000 
     34 C34         7.5593   58.3029   17.6270 C.ar      1 UNK         0.0000 
     35 C35         8.5576   57.4212   18.0272 C.ar      1 UNK         0.0000 
     36 C36         8.2118   56.2093   18.6110 C.ar      1 UNK         0.0000 
     37 F37         7.9068   59.4677   17.0319 F         1 UNK         0.0000 
     38 H38        -0.1717   51.7323   30.4111 H         1 UNK         0.0000 
     39 H39         1.1915   51.3708   29.3568 H         1 UNK         0.0000 
     40 H40         0.0002   52.5782   28.8765 H         1 UNK         0.0000 
     41 H41         0.6886   54.0339   30.8067 H         1 UNK         0.0000 
     42 H42         1.9010   52.8743   31.2888 H         1 UNK         0.0000 
     43 H43         4.1065   55.2234   28.3606 H         1 UNK         0.0000 
     44 H44         6.2149   54.0546   28.9458 H         1 UNK         0.0000 
     45 H45         5.8551   52.7469   27.8242 H         1 UNK         0.0000 
     46 H46         6.3566   55.6963   27.0892 H         1 UNK         0.0000 
     47 H47         7.4346   54.3692   26.8319 H         1 UNK         0.0000 
     48 H48         5.7793   53.2514   25.3724 H         1 UNK         0.0000 
     49 H49         4.0806   55.7476   25.7350 H         1 UNK         0.0000 
     50 H50         3.7046   54.4539   24.6598 H         1 UNK         0.0000 
     51 H51         3.4962   52.8447   26.5041 H         1 UNK         0.0000 
     52 H52         2.4575   54.2303   26.7789 H         1 UNK         0.0000 
     53 H53         6.3290   56.0784   24.4202 H         1 UNK         0.0000 
     54 H54         7.5026   54.8105   24.3986 H         1 UNK         0.0000 
     55 H55         5.0833   53.9975   23.0323 H         1 UNK         0.0000 
     56 H56         3.8445   54.3423   21.6693 H         1 UNK         0.0000 
     57 H57         3.9161   55.2944   20.1677 H         1 UNK         0.0000 
     58 H58         4.2021   52.2714   20.2945 H         1 UNK         0.0000 
     59 H59         2.7643   53.1571   19.8317 H         1 UNK         0.0000 
     60 H60         1.6691   53.4708   17.4775 H         1 UNK         0.0000 
     61 H61         1.1896   53.8282   15.1351 H         1 UNK         0.0000 
     62 H62         3.1131   54.1535   13.5186 H         1 UNK         0.0000 
     63 H63         5.4038   54.1199   14.2531 H         1 UNK         0.0000 
     64 H64         4.8219   56.5271   18.5490 H         1 UNK         0.0000 
     65 H65         5.4543   58.6907   17.5127 H         1 UNK         0.0000 
     66 H66         9.5974   57.6752   17.8758 H         1 UNK         0.0000 
     67 H67         9.0016   55.5338   18.9174 H         1 UNK         0.0000 
     68 H68         6.9967   53.8601   16.4958 H         1 UNK         0.0000 
@<TRIPOS>BOND
     1    1    2 1    
     2    1   38 1    
     3    1   39 1    
     4    1   40 1    
     5    2    3 1    
     6    2   41 1    
     7    2   42 1    
     8    3    4 1    
     9    4    5 2    
    10    4    6 1    
    11    6   11 1    
    12    6    7 1    
    13    6   43 1    
    14    7    8 1    
    15    7   44 1    
    16    7   45 1    
    17    8    9 1    
    18    8   46 1    
    19    8   47 1    
    20    9   10 1    
    21    9   12 1    
    22    9   48 1    
    23   10   11 1    
    24   10   49 1    
    25   10   50 1    
    26   11   51 1    
    27   11   52 1    
    28   12   13 1    
    29   12   53 1    
    30   12   54 1    
    31   13   14 am   BACKBONE|DICT|INTERRES
    32   13   55 1    
    33   14   15 2    
    34   14   16 am   BACKBONE|DICT|INTERRES
    35   16   29 1    
    36   16   17 1    
    37   17   18 1    
    38   17   56 1    
    39   17   57 1    
    40   18   19 1    
    41   18   58 1    
    42   18   59 1    
    43   19   27 1    
    44   19   20 2    
    45   20   25 1    
    46   20   21 1    
    47   21   22 2    
    48   21   60 1    
    49   22   23 1    
    50   22   61 1    
    51   23   24 2    
    52   23   62 1    
    53   24   25 1    
    54   24   63 1    
    55   25   26 2    
    56   26   27 1    
    57   26   68 1    
    58   27   28 1    
    59   27   29 1    
    60   29   30 1    
    61   29   31 1    
    62   31   36 ar   
    63   31   32 ar   
    64   32   33 ar   
    65   32   64 1    
    66   33   34 ar   
    67   33   65 1    
    68   34   35 ar   
    69   34   37 1    
    70   35   36 ar   
    71   35   66 1    
    72   36   67 1    
@<TRIPOS>SUBSTRUCTURE
     1 UNK         1 GROUP             0       ****    0 ROOT    
