ZINC25529585_24
                    3D
 Schrodinger Suite 2024-2.
 54 58  0  0  1  0            999 V2000
    4.2757   54.0914   22.9161 C   0  0  0  0  0  0
    5.4859   54.2983   23.5807 C   0  0  0  0  0  0
    5.5548   54.3118   24.9743 C   0  0  0  0  0  0
    4.3692   54.0969   25.6885 C   0  0  0  0  0  0
    3.1342   53.8780   25.0215 C   0  0  0  0  0  0
    3.0884   53.8782   23.6208 C   0  0  0  0  0  0
    2.0627   53.6976   25.8377 N   0  0  0  0  0  0
    2.3761   53.7767   27.1068 C   0  0  0  0  0  0
    4.0926   54.0305   27.4201 S   0  0  0  0  0  0
    1.3093   53.6812   28.2081 C   0  0  2  0  0  0
    0.4177   54.2140   27.8726 H   0  0  0  0  0  0
    1.7694   54.4100   29.5021 C   0  0  0  0  0  0
    0.7038   54.3562   30.6071 C   0  0  0  0  0  0
    0.3048   52.9124   30.9277 C   0  0  0  0  0  0
   -0.2136   52.2054   29.6696 C   0  0  0  0  0  0
    0.8517   52.2147   28.5325 C   0  0  1  0  0  0
    1.7023   51.5929   28.8174 H   0  0  0  0  0  0
    0.1249   51.5866   27.3169 C   0  0  0  0  0  0
   -0.9063   52.0960   26.8645 O   0  0  0  0  0  0
    0.7030   50.4772   26.8214 N   0  0  0  0  0  0
    0.0401   49.7141   25.8666 N   0  0  0  0  0  0
    0.3678   49.8428   24.5599 C   0  0  0  0  0  0
    1.1007   50.7338   24.1186 O   0  0  0  0  0  0
   -0.2310   48.8283   23.5530 C   0  0  2  0  0  0
    0.6136   48.5658   22.9179 H   0  0  0  0  0  0
   -1.3768   49.4515   22.7142 C   0  0  0  0  0  0
   -2.5106   49.7563   23.5334 O   0  0  0  0  0  0
   -2.8708   48.7225   24.3794 C   0  0  0  0  0  0
   -4.1503   48.7538   24.9294 C   0  0  0  0  0  0
   -4.5314   47.7692   25.8456 C   0  0  0  0  0  0
   -3.6340   46.7669   26.2189 C   0  0  0  0  0  0
   -2.3476   46.7393   25.6755 C   0  0  0  0  0  0
   -1.9667   47.7145   24.7564 C   0  0  0  0  0  0
   -0.6839   47.6409   24.2381 O   0  0  0  0  0  0
    4.2574   54.0923   21.8345 H   0  0  0  0  0  0
    6.3853   54.4551   23.0028 H   0  0  0  0  0  0
    6.4937   54.4685   25.4839 H   0  0  0  0  0  0
    2.1582   53.7095   23.0990 H   0  0  0  0  0  0
    2.6674   53.9384   29.8997 H   0  0  0  0  0  0
    1.9785   55.4606   29.2914 H   0  0  0  0  0  0
    1.0543   54.8640   31.5020 H   0  0  0  0  0  0
   -0.1808   54.8975   30.2838 H   0  0  0  0  0  0
    1.1474   52.3674   31.3582 H   0  0  0  0  0  0
   -0.4791   52.9114   31.6823 H   0  0  0  0  0  0
   -0.4927   51.1922   29.9637 H   0  0  0  0  0  0
   -1.1025   52.7721   29.3909 H   0  0  0  0  0  0
    1.4767   49.9943   27.2539 H   0  0  0  0  0  0
   -0.4968   48.9504   26.2612 H   0  0  0  0  0  0
   -1.0406   50.3410   22.1808 H   0  0  0  0  0  0
   -1.6742   48.7271   21.9568 H   0  0  0  0  0  0
   -4.8354   49.5450   24.6640 H   0  0  0  0  0  0
   -5.5183   47.7957   26.2827 H   0  0  0  0  0  0
   -3.9240   46.0255   26.9486 H   0  0  0  0  0  0
   -1.6435   45.9869   25.9927 H   0  0  0  0  0  0
  1  6  2  0  0  0
  1  2  1  0  0  0
  1 35  1  0  0  0
  2  3  2  0  0  0
  2 36  1  0  0  0
  3  4  1  0  0  0
  3 37  1  0  0  0
  4  9  1  0  0  0
  4  5  2  0  0  0
  5  6  1  0  0  0
  5  7  1  0  0  0
  6 38  1  0  0  0
  7  8  2  0  0  0
  8  9  1  0  0  0
  8 10  1  0  0  0
 10 11  1  0  0  0
 10 16  1  0  0  0
 10 12  1  0  0  0
 12 13  1  0  0  0
 12 39  1  0  0  0
 12 40  1  0  0  0
 13 14  1  0  0  0
 13 41  1  0  0  0
 13 42  1  0  0  0
 14 15  1  0  0  0
 14 43  1  0  0  0
 14 44  1  0  0  0
 15 16  1  0  0  0
 15 45  1  0  0  0
 15 46  1  0  0  0
 16 17  1  0  0  0
 16 18  1  0  0  0
 18 19  2  0  0  0
 18 20  1  0  0  0
 20 21  1  0  0  0
 20 47  1  0  0  0
 21 22  1  0  0  0
 21 48  1  0  0  0
 22 23  2  0  0  0
 22 24  1  0  0  0
 24 25  1  0  0  0
 24 34  1  0  0  0
 24 26  1  0  0  0
 26 27  1  0  0  0
 26 49  1  0  0  0
 26 50  1  0  0  0
 27 28  1  0  0  0
 28 33  2  0  0  0
 28 29  1  0  0  0
 29 30  2  0  0  0
 29 51  1  0  0  0
 30 31  1  0  0  0
 30 52  1  0  0  0
 31 32  2  0  0  0
 31 53  1  0  0  0
 32 33  1  0  0  0
 32 54  1  0  0  0
 33 34  1  0  0  0
M  END
> <i_i_glide_confnum>
59

> <i_i_glide_lignum>
25

> <i_i_glide_posenum>
115

> <i_i_glide_rotatable_bonds>
6

> <i_m_Source_File_Index>
4444

> <b_m_subgroup_collapsed>
0

> <r_i_docking_score>
-5.23547

> <r_i_glide_ecoul>
-1.48366

> <r_i_glide_eff_state_penalty>
0

> <r_i_glide_einternal>
7.10831

> <r_i_glide_emodel>
-59.0814

> <r_i_glide_energy>
-46.1194

> <r_i_glide_erotb>
0.520903

> <r_i_glide_esite>
-0.137575

> <r_i_glide_evdw>
-44.6357

> <r_i_glide_gscore>
-5.23547

> <r_i_glide_hbond>
-0.0107571

> <r_i_glide_ligand_efficiency>
-0.168886

> <r_i_glide_ligand_efficiency_ln>
-1.18076

> <r_i_glide_ligand_efficiency_sa>
-0.530536

> <r_i_glide_lipo>
-2.65233

> <r_i_glide_metal>
0

> <r_i_glide_rewards>
-0.501373

> <s_i_glide_gridfile>
wee1_glide-grid

> <s_m_Source_File>
wee1_decoys_glide_SP.sdf

> <s_m_Source_Path>
/Users/zhangxujun/Desktop

> <s_m_entry_id>
4719

> <s_m_entry_name>
wee1_decoys_glide_SP.4444

> <s_m_subgroup_title>
wee1_decoys_glide_SP

> <s_m_subgroupid>
wee1_decoys_glide_SP


$$$$
