@<TRIPOS>MOLECULE
ZINC62039579_4560
62   66    1
SMALL
USER_CHARGES


@<TRIPOS>ATOM
      1 C1          3.3813   54.5026   29.4786 C.3       1 UNK         0.0000 
      2 C2          4.2277   54.4464   28.2212 C.ar      1 UNK         0.0000 
      3 C3          5.6169   54.3741   28.3086 C.ar      1 UNK         0.0000 
      4 C4          6.4117   54.3106   27.1645 C.ar      1 UNK         0.0000 
      5 C5          5.7905   54.3193   25.9039 C.ar      1 UNK         0.0000 
      6 N6          6.3423   54.3127   24.6718 N.2       1 UNK         0.0000 
      7 C7          5.3272   54.3466   23.8278 C.ar      1 UNK         0.0000 
      8 C8          4.0754   54.3408   24.4817 C.ar      1 UNK         0.0000 
      9 N9          4.3870   54.3666   25.8317 N.pl3     1 UNK         0.0000 
     10 C10         3.6171   54.4438   26.9685 C.ar      1 UNK         0.0000 
     11 C11         2.6350   54.4018   23.9471 C.3       1 UNK         0.0000 
     12 C12         1.6830   53.2419   24.3173 C.2       1 UNK         0.0000 
     13 O13         1.8204   52.6338   25.3790 O.2       1 UNK         0.0000 
     14 N14         0.6705   53.0079   23.4558 N.am      1 UNK         0.0000 
     15 C15        -0.3977   52.1588   23.7318 C.2       1 UNK         0.0000 
     16 C16        -0.4503   50.7909   24.0826 C.2       1 UNK         0.0000 
     17 C17        -1.7929   50.3808   24.3478 C.2       1 UNK         0.0000 
     18 C18        -2.7146   51.4290   24.1718 C.2       1 UNK         0.0000 
     19 S19        -1.9580   52.8967   23.6815 S.3       1 UNK         0.0000 
     20 C20        -4.2313   51.3145   24.2938 C.3       1 UNK         0.0000 
     21 C21        -4.5768   50.0086   25.0474 C.3       1 UNK         0.0000 
     22 H22        -4.3124   50.1286   26.1015 H         1 UNK         0.0000 
     23 C23        -3.7947   48.8341   24.4283 C.3       1 UNK         0.0000 
     24 C24        -2.2802   48.9629   24.6954 C.3       1 UNK         0.0000 
     25 C25        -6.0951   49.7573   25.0013 C.3       1 UNK         0.0000 
     26 C26         0.7041   49.9135   24.0494 C.2       1 UNK         0.0000 
     27 O27         1.6470   50.0988   23.2823 O.2       1 UNK         0.0000 
     28 N28         0.7044   48.8968   24.9098 N.am      1 UNK         0.0000 
     29 C29         5.6023   54.4477   22.3581 C.ar      1 UNK         0.0000 
     30 C30         4.7787   53.8145   21.4188 C.ar      1 UNK         0.0000 
     31 C31         5.0305   53.9424   20.0532 C.ar      1 UNK         0.0000 
     32 C32         6.1242   54.6822   19.6084 C.ar      1 UNK         0.0000 
     33 C33         6.9771   55.2968   20.5317 C.ar      1 UNK         0.0000 
     34 C34         6.7043   55.1871   21.8990 C.ar      1 UNK         0.0000 
     35 C35         8.2315   56.0106   20.0582 C.3       1 UNK         0.0000 
     36 F36         6.3687   54.7791   18.2811 F         1 UNK         0.0000 
     37 H37         3.9290   54.1157   30.3378 H         1 UNK         0.0000 
     38 H38         3.0639   55.5250   29.6805 H         1 UNK         0.0000 
     39 H39         2.4912   53.8839   29.3623 H         1 UNK         0.0000 
     40 H40         6.0989   54.3831   29.2751 H         1 UNK         0.0000 
     41 H41         7.4862   54.2640   27.2509 H         1 UNK         0.0000 
     42 H42         2.5473   54.4959   26.8409 H         1 UNK         0.0000 
     43 H43         2.6209   54.5532   22.8695 H         1 UNK         0.0000 
     44 H44         2.1624   55.2968   24.3378 H         1 UNK         0.0000 
     45 H45         0.5767   53.6274   22.6662 H         1 UNK         0.0000 
     46 H46        -4.6733   51.2981   23.2957 H         1 UNK         0.0000 
     47 H47        -4.6493   52.1765   24.8174 H         1 UNK         0.0000 
     48 H48        -4.0213   48.7378   23.3647 H         1 UNK         0.0000 
     49 H49        -4.1420   47.8953   24.8647 H         1 UNK         0.0000 
     50 H50        -2.0736   48.7486   25.7463 H         1 UNK         0.0000 
     51 H51        -1.7533   48.2039   24.1161 H         1 UNK         0.0000 
     52 H52        -6.4510   49.6226   23.9800 H         1 UNK         0.0000 
     53 H53        -6.3638   48.8622   25.5645 H         1 UNK         0.0000 
     54 H54        -6.6473   50.5905   25.4376 H         1 UNK         0.0000 
     55 H55        -0.0168   48.7823   25.6081 H         1 UNK         0.0000 
     56 H56         1.5232   48.2917   24.9105 H         1 UNK         0.0000 
     57 H57         3.9469   53.2049   21.7386 H         1 UNK         0.0000 
     58 H58         4.3894   53.4506   19.3354 H         1 UNK         0.0000 
     59 H59         7.3678   55.6593   22.6115 H         1 UNK         0.0000 
     60 H60         8.7571   55.3951   19.3249 H         1 UNK         0.0000 
     61 H61         7.9833   56.9534   19.5710 H         1 UNK         0.0000 
     62 H62         8.9349   56.1856   20.8744 H         1 UNK         0.0000 
@<TRIPOS>BOND
     1    1    2 1    
     2    1   37 1    
     3    1   38 1    
     4    1   39 1    
     5    2   10 ar   
     6    2    3 ar   
     7    3    4 ar   
     8    3   40 1    
     9    4    5 ar   
    10    4   41 1    
    11    5    9 ar   
    12    5    6 ar   
    13    6    7 ar   
    14    7    8 ar   
    15    7   29 1    
    16    8    9 ar   
    17    8   11 1    
    18    9   10 ar   
    19   10   42 1    
    20   11   12 1    
    21   11   43 1    
    22   11   44 1    
    23   12   13 2    
    24   12   14 am   BACKBONE|DICT|INTERRES
    25   14   15 am   BACKBONE|DICT|INTERRES
    26   14   45 1    
    27   15   19 1    
    28   15   16 2    
    29   16   17 1    
    30   16   26 1    
    31   17   24 1    
    32   17   18 2    
    33   18   19 1    
    34   18   20 1    
    35   20   21 1    
    36   20   46 1    
    37   20   47 1    
    38   21   22 1    
    39   21   23 1    
    40   21   25 1    
    41   23   24 1    
    42   23   48 1    
    43   23   49 1    
    44   24   50 1    
    45   24   51 1    
    46   25   52 1    
    47   25   53 1    
    48   25   54 1    
    49   26   27 2    
    50   26   28 am   BACKBONE|DICT|INTERRES
    51   28   55 1    
    52   28   56 1    
    53   29   34 ar   
    54   29   30 ar   
    55   30   31 ar   
    56   30   57 1    
    57   31   32 ar   
    58   31   58 1    
    59   32   33 ar   
    60   32   36 1    
    61   33   34 ar   
    62   33   35 1    
    63   34   59 1    
    64   35   60 1    
    65   35   61 1    
    66   35   62 1    
@<TRIPOS>SUBSTRUCTURE
     1 UNK         1 GROUP             0       ****    0 ROOT    
