@<TRIPOS>MOLECULE
ZINC36736446_1627
32   33    1
SMALL
USER_CHARGES


@<TRIPOS>ATOM
      1 C1          5.0043   54.4972   27.7016 C.3       1 UNK         0.0000 
      2 C2          3.6965   53.9131   27.2063 C.2       1 UNK         0.0000 
      3 C3          3.2419   54.0463   25.8849 C.2       1 UNK         0.0000 
      4 C4          2.1008   53.3165   25.5907 C.2       1 UNK         0.0000 
      5 S5          1.5048   52.4977   26.9959 S.3       1 UNK         0.0000 
      6 C6          2.8242   53.1135   27.9651 C.2       1 UNK         0.0000 
      7 C7          2.8825   52.7531   29.3906 C.2       1 UNK         0.0000 
      8 O8          3.5052   53.5285   30.1532 O.co2     1 UNK         0.0000 
      9 O9          2.3134   51.6997   29.7521 O.co2     1 UNK         0.0000 
     10 S10         1.2718   53.2373   23.9764 S.o2      1 UNK         0.0000 
     11 O11        -0.0951   52.7681   24.2228 O.2       1 UNK         0.0000 
     12 O12         1.5448   54.4968   23.2827 O.2       1 UNK         0.0000 
     13 N13         2.1183   51.9364   23.1214 N.pl3     1 UNK         0.0000 
     14 C14         2.9380   52.0612   22.0194 C.ar      1 UNK         0.0000 
     15 C15         2.8642   51.2813   20.8664 C.ar      1 UNK         0.0000 
     16 N16         3.9046   51.6966   20.0817 N.pl3     1 UNK         0.0000 
     17 H17         4.1681   51.2786   19.1900 H         1 UNK         0.0000 
     18 N18         4.6303   52.6643   20.6357 N.2       1 UNK         0.0000 
     19 C19         4.0666   52.8932   21.8013 C.ar      1 UNK         0.0000 
     20 C20         4.7103   53.9147   22.7092 C.3       1 UNK         0.0000 
     21 C21         1.9398   50.1647   20.4383 C.3       1 UNK         0.0000 
     22 H22         5.6374   54.8759   26.8987 H         1 UNK         0.0000 
     23 H23         5.5915   53.7463   28.2314 H         1 UNK         0.0000 
     24 H24         4.8388   55.2956   28.4238 H         1 UNK         0.0000 
     25 H25         3.7576   54.6505   25.1560 H         1 UNK         0.0000 
     26 H26         1.8828   51.0249   23.4828 H         1 UNK         0.0000 
     27 H27         4.0669   54.7823   22.8507 H         1 UNK         0.0000 
     28 H28         4.9279   53.4845   23.6849 H         1 UNK         0.0000 
     29 H29         5.6607   54.2887   22.3221 H         1 UNK         0.0000 
     30 H30         0.9329   50.5373   20.2449 H         1 UNK         0.0000 
     31 H31         2.2798   49.6644   19.5296 H         1 UNK         0.0000 
     32 H32         1.8613   49.3992   21.2111 H         1 UNK         0.0000 
@<TRIPOS>BOND
     1    1    2 1    
     2    1   22 1    
     3    1   23 1    
     4    1   24 1    
     5    2    6 2    
     6    2    3 1    
     7    3    4 2    
     8    3   25 1    
     9    4    5 1    
    10    4   10 1    
    11    5    6 1    
    12    6    7 1    
    13    7    8 2    
    14    7    9 1    
    15   10   11 2    
    16   10   12 2    
    17   10   13 1    
    18   13   14 1    
    19   13   26 1    
    20   14   19 ar   
    21   14   15 ar   
    22   15   16 ar   
    23   15   21 1    
    24   16   17 1    
    25   16   18 ar   
    26   18   19 ar   
    27   19   20 1    
    28   20   27 1    
    29   20   28 1    
    30   20   29 1    
    31   21   30 1    
    32   21   31 1    
    33   21   32 1    
@<TRIPOS>SUBSTRUCTURE
     1 UNK         1 GROUP             0       ****    0 ROOT    
