@<TRIPOS>MOLECULE
ZINC63426685_5520
69   75    1
SMALL
USER_CHARGES


@<TRIPOS>ATOM
      1 C1          3.2076   52.3358   30.1325 C.2       1 UNK         0.0000 
      2 C2          2.9335   52.5456   28.7799 C.2       1 UNK         0.0000 
      3 C3          1.5830   52.8506   28.6759 C.2       1 UNK         0.0000 
      4 O4          1.0240   52.8153   29.9142 O.3       1 UNK         0.0000 
      5 C5          2.0032   52.4957   30.7987 C.2       1 UNK         0.0000 
      6 C6          0.6432   53.2452   27.5509 C.3       1 UNK         0.0000 
      7 N7          0.7720   52.4965   26.2786 N.am      1 UNK         0.0000 
      8 C8          1.3467   53.2391   25.1115 C.3       1 UNK         0.0000 
      9 H9          0.7043   54.0967   24.9180 H         1 UNK         0.0000 
     10 C10         2.7659   53.7746   25.4206 C.3       1 UNK         0.0000 
     11 C11         3.3733   54.5484   24.2489 C.3       1 UNK         0.0000 
     12 C12         3.4027   53.7115   22.9663 C.3       1 UNK         0.0000 
     13 C13         2.0132   53.1596   22.6105 C.3       1 UNK         0.0000 
     14 C14         1.3888   52.4292   23.8050 C.2       1 UNK         0.0000 
     15 C15         0.8698   51.1968   23.7341 C.2       1 UNK         0.0000 
     16 C16         0.1146   50.5461   24.8725 C.3       1 UNK         0.0000 
     17 H17         0.4407   49.5142   25.0070 H         1 UNK         0.0000 
     18 C18         0.3048   51.2061   26.2609 C.2       1 UNK         0.0000 
     19 O19        -0.0548   50.6278   27.2822 O.2       1 UNK         0.0000 
     20 C20        -1.4093   50.4853   24.5912 C.2       1 UNK         0.0000 
     21 O21        -1.8992   49.4129   24.2372 O.2       1 UNK         0.0000 
     22 N22        -2.1081   51.6451   24.7057 N.am      1 UNK         0.0000 
     23 C23        -3.4812   51.8017   24.6396 C.2       1 UNK         0.0000 
     24 N24        -4.3708   50.9278   24.2238 N.2       1 UNK         0.0000 
     25 H25        -1.5870   52.4598   24.9925 H         1 UNK         0.0000 
     26 C26        -5.6124   51.3780   24.3350 C.2       1 UNK         0.0000 
     27 C27        -5.7115   52.6658   24.8725 C.2       1 UNK         0.0000 
     28 S28        -4.1302   53.2929   25.2197 S.3       1 UNK         0.0000 
     29 C29        -6.7404   50.4437   23.8709 C.3       1 UNK         0.0000 
     30 C30        -6.7743   49.1339   24.7268 C.3       1 UNK         0.0000 
     31 C31        -7.9091   48.1842   24.2582 C.3       1 UNK         0.0000 
     32 C32        -7.6810   47.8043   22.7718 C.3       1 UNK         0.0000 
     33 C33        -7.6918   49.0880   21.9008 C.3       1 UNK         0.0000 
     34 C34        -6.5563   50.0325   22.3703 C.3       1 UNK         0.0000 
     35 C35        -9.0552   49.8084   22.0506 C.3       1 UNK         0.0000 
     36 C36        -9.2833   50.1841   23.5360 C.3       1 UNK         0.0000 
     37 C37        -9.2756   48.9006   24.4032 C.3       1 UNK         0.0000 
     38 C38        -8.1423   51.1254   24.0058 C.3       1 UNK         0.0000 
     39 O39         0.8889   50.4019   22.6275 O.3       1 UNK         0.0000 
     40 H40         4.1680   52.0956   30.5695 H         1 UNK         0.0000 
     41 H41         3.6486   52.4974   27.9700 H         1 UNK         0.0000 
     42 H42         1.6990   52.4217   31.8341 H         1 UNK         0.0000 
     43 H43        -0.3854   53.1184   27.8976 H         1 UNK         0.0000 
     44 H44         0.7206   54.3170   27.3814 H         1 UNK         0.0000 
     45 H45         2.7347   54.4376   26.2862 H         1 UNK         0.0000 
     46 H46         3.4151   52.9462   25.7165 H         1 UNK         0.0000 
     47 H47         4.3725   54.9034   24.4979 H         1 UNK         0.0000 
     48 H48         2.7465   55.4222   24.0814 H         1 UNK         0.0000 
     49 H49         4.1178   52.8973   23.0746 H         1 UNK         0.0000 
     50 H50         3.7731   54.3165   22.1392 H         1 UNK         0.0000 
     51 H51         2.0894   52.5136   21.7391 H         1 UNK         0.0000 
     52 H52         1.3644   53.9806   22.3017 H         1 UNK         0.0000 
     53 H53        -6.5987   53.2511   25.0521 H         1 UNK         0.0000 
     54 H54        -5.8173   48.6119   24.6667 H         1 UNK         0.0000 
     55 H55        -6.9092   49.3786   25.7817 H         1 UNK         0.0000 
     56 H56        -7.9040   47.2820   24.8692 H         1 UNK         0.0000 
     57 H57        -6.7327   47.2792   22.6584 H         1 UNK         0.0000 
     58 H58        -8.4539   47.1115   22.4365 H         1 UNK         0.0000 
     59 H59        -7.5338   48.8204   20.8557 H         1 UNK         0.0000 
     60 H60        -6.5311   50.9200   21.7381 H         1 UNK         0.0000 
     61 H61        -5.5948   49.5390   22.2232 H         1 UNK         0.0000 
     62 H62        -9.0777   50.7049   21.4280 H         1 UNK         0.0000 
     63 H63        -9.8649   49.1711   21.6928 H         1 UNK         0.0000 
     64 H64       -10.2437   50.6905   23.6418 H         1 UNK         0.0000 
     65 H65       -10.0866   48.2372   24.1019 H         1 UNK         0.0000 
     66 H66        -9.4603   49.1504   25.4501 H         1 UNK         0.0000 
     67 H67        -8.3235   51.4167   25.0417 H         1 UNK         0.0000 
     68 H68        -8.1729   52.0493   23.4253 H         1 UNK         0.0000 
     69 H69         0.4277   49.5782   22.8074 H         1 UNK         0.0000 
@<TRIPOS>BOND
     1    1    5 2    
     2    1    2 1    
     3    1   40 1    
     4    2    3 2    
     5    2   41 1    
     6    3    4 1    
     7    3    6 1    
     8    4    5 1    
     9    5   42 1    
    10    6    7 1    
    11    6   43 1    
    12    6   44 1    
    13    7   18 am   BACKBONE|DICT|INTERRES
    14    7    8 1    
    15    8    9 1    
    16    8   14 1    
    17    8   10 1    
    18   10   11 1    
    19   10   45 1    
    20   10   46 1    
    21   11   12 1    
    22   11   47 1    
    23   11   48 1    
    24   12   13 1    
    25   12   49 1    
    26   12   50 1    
    27   13   14 1    
    28   13   51 1    
    29   13   52 1    
    30   14   15 2    
    31   15   16 1    
    32   15   39 1    
    33   16   17 1    
    34   16   18 1    
    35   16   20 1    
    36   18   19 2    
    37   20   22 am   BACKBONE|DICT|INTERRES
    38   20   21 2    
    39   22   23 am   BACKBONE|DICT|INTERRES
    40   22   25 1    
    41   23   28 1    
    42   23   24 2    
    43   24   26 1    
    44   26   29 1    
    45   26   27 2    
    46   27   53 1    
    47   27   28 1    
    48   29   34 1    
    49   29   38 1    
    50   29   30 1    
    51   30   31 1    
    52   30   54 1    
    53   30   55 1    
    54   31   37 1    
    55   31   32 1    
    56   31   56 1    
    57   32   33 1    
    58   32   57 1    
    59   32   58 1    
    60   33   34 1    
    61   33   35 1    
    62   33   59 1    
    63   34   60 1    
    64   34   61 1    
    65   35   36 1    
    66   35   62 1    
    67   35   63 1    
    68   36   37 1    
    69   36   38 1    
    70   36   64 1    
    71   37   65 1    
    72   37   66 1    
    73   38   67 1    
    74   38   68 1    
    75   39   69 1    
@<TRIPOS>SUBSTRUCTURE
     1 UNK         1 GROUP             0       ****    0 ROOT    
