@<TRIPOS>MOLECULE
ZINC15155873_5739
82   84    1
SMALL
USER_CHARGES


@<TRIPOS>ATOM
      1 C1          6.6914   54.8344   27.2817 C.3       1 UNK         0.0000 
      2 C2          6.7034   54.8022   25.7483 C.3       1 UNK         0.0000 
      3 C3          5.3153   54.5515   25.1327 C.3       1 UNK         0.0000 
      4 C4          5.4085   54.1984   23.6396 C.3       1 UNK         0.0000 
      5 C5          4.0370   53.9326   22.9800 C.3       1 UNK         0.0000 
      6 C6          4.1616   53.1789   21.6512 C.2       1 UNK         0.0000 
      7 O7          5.1040   53.3754   20.8830 O.2       1 UNK         0.0000 
      8 O8          3.1896   52.2524   21.4904 O.3       1 UNK         0.0000 
      9 C9          3.3135   51.1926   20.5380 C.3       1 UNK         0.0000 
     10 H10         4.3199   50.7878   20.6545 H         1 UNK         0.0000 
     11 C11         2.3013   50.0728   20.8570 C.3       1 UNK         0.0000 
     12 C12         0.8824   50.2848   20.2251 C.3       1 UNK         0.0000 
     13 H13         0.5852   51.2888   20.5306 H         1 UNK         0.0000 
     14 C14        -0.2143   49.2586   20.7746 C.3       1 UNK         0.0000 
     15 C15         0.0807   47.8449   20.1393 C.3       1 UNK         0.0000 
     16 H16         1.0720   47.5453   20.4781 H         1 UNK         0.0000 
     17 C17         0.1704   47.9085   18.6003 C.3       1 UNK         0.0000 
     18 C18         1.3160   48.8299   18.1411 C.3       1 UNK         0.0000 
     19 H19         2.2450   48.4652   18.5782 H         1 UNK         0.0000 
     20 C20         1.0718   50.3051   18.6370 C.3       1 UNK         0.0000 
     21 C21        -0.0192   50.9852   17.7546 C.3       1 UNK         0.0000 
     22 H22        -0.7883   50.2547   17.5091 H         1 UNK         0.0000 
     23 O23         0.6220   51.3663   16.5667 O.3       1 UNK         0.0000 
     24 C24         1.9405   51.7075   16.8394 C.3       1 UNK         0.0000 
     25 H25         2.5911   51.1785   16.1357 H         1 UNK         0.0000 
     26 C26         2.1905   51.2718   18.2510 C.2       1 UNK         0.0000 
     27 C27         3.1505   51.6771   19.1031 C.2       1 UNK         0.0000 
     28 O28         2.1472   53.0919   16.7405 O.3       1 UNK         0.0000 
     29 C29         2.1536   53.6294   15.4950 C.2       1 UNK         0.0000 
     30 O30         2.0084   53.0358   14.4252 O.2       1 UNK         0.0000 
     31 C31         2.3681   55.1351   15.5303 C.3       1 UNK         0.0000 
     32 O32        -0.6287   52.0934   18.3755 O.3       1 UNK         0.0000 
     33 C33        -1.6674   52.7271   17.7239 C.2       1 UNK         0.0000 
     34 O34        -2.1113   53.8138   18.0816 O.2       1 UNK         0.0000 
     35 C35        -2.3223   52.0213   16.5285 C.3       1 UNK         0.0000 
     36 O36         1.5044   48.6915   16.7442 O.3       1 UNK         0.0000 
     37 C37        -0.8960   46.7184   20.5548 C.3       1 UNK         0.0000 
     38 C38        -0.0615   49.0864   22.3196 C.3       1 UNK         0.0000 
     39 C39        -1.6520   49.7762   20.4336 C.3       1 UNK         0.0000 
     40 C40        -2.0257   51.0458   21.2044 C.2       1 UNK         0.0000 
     41 C41        -2.7804   51.1661   22.3231 C.2       1 UNK         0.0000 
     42 C42        -3.4811   49.9797   22.9828 C.3       1 UNK         0.0000 
     43 C43        -2.8955   52.4953   22.9152 C.2       1 UNK         0.0000 
     44 C44        -3.6568   52.8167   23.9760 C.2       1 UNK         0.0000 
     45 H45         7.7029   54.8978   27.6821 H         1 UNK         0.0000 
     46 H46         6.1326   55.6894   27.6633 H         1 UNK         0.0000 
     47 H47         6.2433   53.9286   27.6947 H         1 UNK         0.0000 
     48 H48         7.3871   54.0175   25.4251 H         1 UNK         0.0000 
     49 H49         7.1049   55.7400   25.3616 H         1 UNK         0.0000 
     50 H50         4.6828   55.4278   25.2827 H         1 UNK         0.0000 
     51 H51         4.8291   53.7265   25.6571 H         1 UNK         0.0000 
     52 H52         6.0414   53.3121   23.5424 H         1 UNK         0.0000 
     53 H53         5.9251   54.9941   23.1002 H         1 UNK         0.0000 
     54 H54         3.4962   54.8645   22.8193 H         1 UNK         0.0000 
     55 H55         3.4224   53.3292   23.6491 H         1 UNK         0.0000 
     56 H56         2.2428   50.0325   21.9432 H         1 UNK         0.0000 
     57 H57         2.7063   49.0967   20.6001 H         1 UNK         0.0000 
     58 H58         0.3637   46.9077   18.2072 H         1 UNK         0.0000 
     59 H59        -0.7937   48.1849   18.1741 H         1 UNK         0.0000 
     60 H60         3.8780   52.3829   18.7300 H         1 UNK         0.0000 
     61 H61         3.3381   55.3644   15.9699 H         1 UNK         0.0000 
     62 H62         2.3355   55.5503   14.5227 H         1 UNK         0.0000 
     63 H63         1.5925   55.6104   16.1298 H         1 UNK         0.0000 
     64 H64        -2.6983   51.0391   16.8116 H         1 UNK         0.0000 
     65 H65        -3.1676   52.6085   16.1661 H         1 UNK         0.0000 
     66 H66        -1.6155   51.9165   15.7063 H         1 UNK         0.0000 
     67 H67         2.4415   48.8964   16.5598 H         1 UNK         0.0000 
     68 H68        -1.8999   46.8786   20.1623 H         1 UNK         0.0000 
     69 H69        -0.5540   45.7549   20.1752 H         1 UNK         0.0000 
     70 H70        -0.9738   46.6154   21.6363 H         1 UNK         0.0000 
     71 H71         0.0229   50.0491   22.8243 H         1 UNK         0.0000 
     72 H72        -0.9285   48.5890   22.7561 H         1 UNK         0.0000 
     73 H73         0.8083   48.4969   22.6098 H         1 UNK         0.0000 
     74 H74        -1.7926   49.9623   19.3748 H         1 UNK         0.0000 
     75 H75        -2.3819   49.0014   20.6468 H         1 UNK         0.0000 
     76 H76        -1.5862   51.9403   20.7879 H         1 UNK         0.0000 
     77 H77        -3.1148   49.8585   24.0041 H         1 UNK         0.0000 
     78 H78        -4.5468   50.1986   23.0775 H         1 UNK         0.0000 
     79 H79        -3.3895   49.0267   22.4645 H         1 UNK         0.0000 
     80 H80        -2.3190   53.2964   22.4814 H         1 UNK         0.0000 
     81 H81        -4.2687   52.0878   24.4882 H         1 UNK         0.0000 
     82 H82        -3.6792   53.8290   24.3528 H         1 UNK         0.0000 
@<TRIPOS>BOND
     1    1    2 1    
     2    1   45 1    
     3    1   46 1    
     4    1   47 1    
     5    2    3 1    
     6    2   48 1    
     7    2   49 1    
     8    3    4 1    
     9    3   50 1    
    10    3   51 1    
    11    4    5 1    
    12    4   52 1    
    13    4   53 1    
    14    5    6 1    
    15    5   54 1    
    16    5   55 1    
    17    6    7 2    
    18    6    8 1    
    19    8    9 1    
    20    9   10 1    
    21    9   27 1    
    22    9   11 1    
    23   11   12 1    
    24   11   56 1    
    25   11   57 1    
    26   12   13 1    
    27   12   20 1    
    28   12   14 1    
    29   14   15 1    
    30   14   38 1    
    31   14   39 1    
    32   15   16 1    
    33   15   17 1    
    34   15   37 1    
    35   17   18 1    
    36   17   58 1    
    37   17   59 1    
    38   18   19 1    
    39   18   20 1    
    40   18   36 1    
    41   20   26 1    
    42   20   21 1    
    43   21   22 1    
    44   21   23 1    
    45   21   32 1    
    46   23   24 1    
    47   24   25 1    
    48   24   26 1    
    49   24   28 1    
    50   26   27 2    
    51   27   60 1    
    52   28   29 1    
    53   29   30 2    
    54   29   31 1    
    55   31   61 1    
    56   31   62 1    
    57   31   63 1    
    58   32   33 1    
    59   33   34 2    
    60   33   35 1    
    61   35   64 1    
    62   35   65 1    
    63   35   66 1    
    64   36   67 1    
    65   37   68 1    
    66   37   69 1    
    67   37   70 1    
    68   38   71 1    
    69   38   72 1    
    70   38   73 1    
    71   39   40 1    
    72   39   74 1    
    73   39   75 1    
    74   40   41 2    
    75   40   76 1    
    76   41   42 1    
    77   41   43 1    
    78   42   77 1    
    79   42   78 1    
    80   42   79 1    
    81   43   44 2    
    82   43   80 1    
    83   44   81 1    
    84   44   82 1    
@<TRIPOS>SUBSTRUCTURE
     1 UNK         1 GROUP             0       ****    0 ROOT    
