@<TRIPOS>MOLECULE
ZINC04279574_3576
42   45    1
SMALL
USER_CHARGES


@<TRIPOS>ATOM
      1 C1          2.0359   54.1846   27.9426 C.3       1 UNK         0.0000 
      2 C2          1.0180   53.1263   27.5175 C.2       1 UNK         0.0000 
      3 C3          0.0974   52.4921   28.3166 C.2       1 UNK         0.0000 
      4 C4         -0.6968   51.3180   27.6701 C.3       1 UNK         0.0000 
      5 H5         -0.6860   50.4968   28.3784 H         1 UNK         0.0000 
      6 N6          0.0543   50.7910   26.5172 N.pl3     1 UNK         0.0000 
      7 C7          0.7045   51.7447   25.7053 C.ar      1 UNK         0.0000 
      8 N8          1.1629   52.8469   26.1818 N.2       1 UNK         0.0000 
      9 N9          0.7039   51.3171   24.3950 N.2       1 UNK         0.0000 
     10 C10        -0.0026   50.2488   24.3429 C.ar      1 UNK         0.0000 
     11 N11        -0.5361   49.8867   25.6123 N.pl3     1 UNK         0.0000 
     12 C12        -0.2461   49.4622   23.1192 C.ar      1 UNK         0.0000 
     13 C13         0.5549   49.6499   21.9809 C.ar      1 UNK         0.0000 
     14 C14         0.2892   48.9448   20.8099 C.ar      1 UNK         0.0000 
     15 C15        -0.7773   48.0507   20.7698 C.ar      1 UNK         0.0000 
     16 C16        -1.5741   47.8471   21.8935 C.ar      1 UNK         0.0000 
     17 C17        -1.3086   48.5484   23.0675 C.ar      1 UNK         0.0000 
     18 F18        -1.0357   47.3635   19.6348 F         1 UNK         0.0000 
     19 C19        -2.1836   51.5997   27.3895 C.ar      1 UNK         0.0000 
     20 C20        -3.1704   50.8975   28.0913 C.ar      1 UNK         0.0000 
     21 C21        -4.5166   51.1073   27.8027 C.ar      1 UNK         0.0000 
     22 C22        -4.8776   52.0067   26.8030 C.ar      1 UNK         0.0000 
     23 C23        -3.9052   52.7002   26.0886 C.ar      1 UNK         0.0000 
     24 C24        -2.5603   52.4967   26.3831 C.ar      1 UNK         0.0000 
     25 F25        -6.1846   52.2117   26.5263 F         1 UNK         0.0000 
     26 C26        -0.0956   52.8050   29.7282 C.2       1 UNK         0.0000 
     27 O27         0.1786   53.8930   30.2287 O.2       1 UNK         0.0000 
     28 N28        -0.6470   51.8541   30.4816 N.am      1 UNK         0.0000 
     29 H29         1.6307   55.1815   27.7665 H         1 UNK         0.0000 
     30 H30         2.3060   54.1038   28.9949 H         1 UNK         0.0000 
     31 H31         2.9716   54.0957   27.3836 H         1 UNK         0.0000 
     32 H32        -0.4954   48.9595   26.0243 H         1 UNK         0.0000 
     33 H33         1.3801   50.3494   21.9926 H         1 UNK         0.0000 
     34 H34         0.9043   49.0928   19.9341 H         1 UNK         0.0000 
     35 H35        -2.3982   47.1507   21.8506 H         1 UNK         0.0000 
     36 H36        -1.9511   48.3887   23.9226 H         1 UNK         0.0000 
     37 H37        -2.8957   50.1725   28.8465 H         1 UNK         0.0000 
     38 H38        -5.2764   50.5644   28.3441 H         1 UNK         0.0000 
     39 H39        -4.1947   53.3905   25.3111 H         1 UNK         0.0000 
     40 H40        -1.8101   53.0298   25.8186 H         1 UNK         0.0000 
     41 H41        -0.8962   50.9552   30.0993 H         1 UNK         0.0000 
     42 H42        -0.8508   52.0238   31.4678 H         1 UNK         0.0000 
@<TRIPOS>BOND
     1    1    2 1    
     2    1   29 1    
     3    1   30 1    
     4    1   31 1    
     5    2    8 1    
     6    2    3 2    
     7    3    4 1    
     8    3   26 1    
     9    4    5 1    
    10    4    6 1    
    11    4   19 1    
    12    6   11 1    
    13    6    7 ar   
    14    7    8 2    
    15    7    9 ar   
    16    9   10 ar   
    17   10   11 ar   
    18   10   12 1    
    19   11   32 1    
    20   12   17 ar   
    21   12   13 ar   
    22   13   14 ar   
    23   13   33 1    
    24   14   15 ar   
    25   14   34 1    
    26   15   16 ar   
    27   15   18 1    
    28   16   17 ar   
    29   16   35 1    
    30   17   36 1    
    31   19   24 ar   
    32   19   20 ar   
    33   20   21 ar   
    34   20   37 1    
    35   21   22 ar   
    36   21   38 1    
    37   22   23 ar   
    38   22   25 1    
    39   23   24 ar   
    40   23   39 1    
    41   24   40 1    
    42   26   27 2    
    43   26   28 am   BACKBONE|DICT|INTERRES
    44   28   41 1    
    45   28   42 1    
@<TRIPOS>SUBSTRUCTURE
     1 UNK         1 GROUP             0       ****    0 ROOT    
