@<TRIPOS>MOLECULE
ZINC22925285_1181
66   70    1
SMALL
USER_CHARGES


@<TRIPOS>ATOM
      1 C1          0.6867   54.1788   30.8817 C.ar      1 UNK         0.0000 
      2 C2          1.2160   52.8997   30.7260 C.ar      1 UNK         0.0000 
      3 C3          2.1647   52.6673   29.7337 C.ar      1 UNK         0.0000 
      4 C4          2.5496   53.7021   28.8715 C.ar      1 UNK         0.0000 
      5 C5          2.0222   54.9853   29.0477 C.ar      1 UNK         0.0000 
      6 C6          1.1041   55.2275   30.0648 C.ar      1 UNK         0.0000 
      7 C7          3.5539   53.4222   27.7407 C.3       1 UNK         0.0000 
      8 H8          3.8302   52.3712   27.8221 H         1 UNK         0.0000 
      9 C9          4.8424   54.2321   28.0297 C.3       1 UNK         0.0000 
     10 O10         5.8776   53.9291   27.1143 O.3       1 UNK         0.0000 
     11 C11         5.5131   54.1235   25.8058 C.ar      1 UNK         0.0000 
     12 C12         6.5752   54.3978   24.9469 C.ar      1 UNK         0.0000 
     13 C13         6.3608   54.5024   23.5792 C.ar      1 UNK         0.0000 
     14 C14         5.0763   54.3402   23.0782 C.ar      1 UNK         0.0000 
     15 C15         4.0091   54.0966   23.9423 C.ar      1 UNK         0.0000 
     16 C16         4.1865   53.9740   25.3439 C.ar      1 UNK         0.0000 
     17 N17         3.1517   53.6361   26.3029 N.am      1 UNK         0.0000 
     18 C18         1.8983   53.2225   25.8896 C.2       1 UNK         0.0000 
     19 O19         1.3611   53.6395   24.8620 O.2       1 UNK         0.0000 
     20 C20         1.0601   52.2254   26.7523 C.3       1 UNK         0.0000 
     21 N21         0.0418   51.4668   25.9876 N.3       1 UNK         0.0000 
     22 C22         0.6581   50.3636   25.2292 C.3       1 UNK         0.0000 
     23 C23        -0.3796   49.6132   24.3731 C.3       1 UNK         0.0000 
     24 N24        -1.4866   49.0265   25.2814 N.4       1 UNK         0.0000 
     25 C25        -2.0771   50.1569   26.1607 C.3       1 UNK         0.0000 
     26 C26        -0.9401   50.8781   26.9177 C.3       1 UNK         0.0000 
     27 C27        -2.5843   48.3297   24.4282 C.3       1 UNK         0.0000 
     28 C28        -3.0147   46.9849   25.0364 C.2       1 UNK         0.0000 
     29 O29        -2.2252   46.3175   25.7028 O.2       1 UNK         0.0000 
     30 N30        -4.2484   46.5719   24.6808 N.am      1 UNK         0.0000 
     31 C31        -4.9059   45.3865   25.0486 C.ar      1 UNK         0.0000 
     32 C32        -5.8290   44.8712   24.1346 C.ar      1 UNK         0.0000 
     33 C33        -6.5448   43.7106   24.4306 C.ar      1 UNK         0.0000 
     34 C34        -6.3511   43.0639   25.6493 C.ar      1 UNK         0.0000 
     35 C35        -5.4502   43.5817   26.5763 C.ar      1 UNK         0.0000 
     36 C36        -4.7254   44.7398   26.2834 C.ar      1 UNK         0.0000 
     37 F37        -5.2957   42.9635   27.7643 F         1 UNK         0.0000 
     38 H38        -0.0410   54.3625   31.6599 H         1 UNK         0.0000 
     39 H39         0.8925   52.0986   31.3779 H         1 UNK         0.0000 
     40 H40         2.5759   51.6764   29.6141 H         1 UNK         0.0000 
     41 H41         2.3171   55.7938   28.3942 H         1 UNK         0.0000 
     42 H42         0.7040   56.2205   30.2069 H         1 UNK         0.0000 
     43 H43         4.6271   55.2964   27.9784 H         1 UNK         0.0000 
     44 H44         5.2137   54.0298   29.0354 H         1 UNK         0.0000 
     45 H45         7.5708   54.4968   25.3408 H         1 UNK         0.0000 
     46 H46         7.1895   54.6985   22.9136 H         1 UNK         0.0000 
     47 H47         4.8988   54.4151   22.0149 H         1 UNK         0.0000 
     48 H48         3.0622   53.9846   23.4456 H         1 UNK         0.0000 
     49 H49         0.5429   52.8077   27.5149 H         1 UNK         0.0000 
     50 H50         1.7001   51.5233   27.2867 H         1 UNK         0.0000 
     51 H51         1.1045   49.6600   25.9341 H         1 UNK         0.0000 
     52 H52         1.4394   50.7411   24.5659 H         1 UNK         0.0000 
     53 H53         0.0957   48.7613   23.8856 H         1 UNK         0.0000 
     54 H54        -0.8537   50.2595   23.6342 H         1 UNK         0.0000 
     55 H55        -2.6281   50.8384   25.5100 H         1 UNK         0.0000 
     56 H56        -2.7564   49.6907   26.8746 H         1 UNK         0.0000 
     57 H57        -1.3868   51.6523   27.5434 H         1 UNK         0.0000 
     58 H58        -0.4298   50.1717   27.5749 H         1 UNK         0.0000 
     59 H59        -2.1276   48.0998   23.4661 H         1 UNK         0.0000 
     60 H60        -3.3993   49.0340   24.2628 H         1 UNK         0.0000 
     61 H61        -4.7461   47.1403   24.0135 H         1 UNK         0.0000 
     62 H62        -6.0006   45.3612   23.1865 H         1 UNK         0.0000 
     63 H63        -7.2548   43.3154   23.7202 H         1 UNK         0.0000 
     64 H64        -6.9085   42.1689   25.8871 H         1 UNK         0.0000 
     65 H65        -4.0416   45.1254   27.0266 H         1 UNK         0.0000 
     66 H66        -1.0598   48.3444   25.9039 H         1 UNK         0.0000 
@<TRIPOS>BOND
     1    1    6 ar   
     2    1    2 ar   
     3    1   38 1    
     4    2    3 ar   
     5    2   39 1    
     6    3    4 ar   
     7    3   40 1    
     8    4    5 ar   
     9    4    7 1    
    10    5    6 ar   
    11    5   41 1    
    12    6   42 1    
    13    7    8 1    
    14    7   17 1    
    15    7    9 1    
    16    9   10 1    
    17    9   43 1    
    18    9   44 1    
    19   10   11 1    
    20   11   16 ar   
    21   11   12 ar   
    22   12   13 ar   
    23   12   45 1    
    24   13   14 ar   
    25   13   46 1    
    26   14   15 ar   
    27   14   47 1    
    28   15   16 ar   
    29   15   48 1    
    30   16   17 1    
    31   17   18 am   BACKBONE|DICT|INTERRES
    32   18   19 2    
    33   18   20 1    
    34   20   21 1    
    35   20   49 1    
    36   20   50 1    
    37   21   26 1    
    38   21   22 1    
    39   22   23 1    
    40   22   51 1    
    41   22   52 1    
    42   23   24 1    
    43   23   53 1    
    44   23   54 1    
    45   24   25 1    
    46   24   27 1    
    47   24   66 1    
    48   25   26 1    
    49   25   55 1    
    50   25   56 1    
    51   26   57 1    
    52   26   58 1    
    53   27   28 1    
    54   27   59 1    
    55   27   60 1    
    56   28   29 2    
    57   28   30 am   BACKBONE|DICT|INTERRES
    58   30   31 1    
    59   30   61 1    
    60   31   36 ar   
    61   31   32 ar   
    62   32   33 ar   
    63   32   62 1    
    64   33   34 ar   
    65   33   63 1    
    66   34   35 ar   
    67   34   64 1    
    68   35   36 ar   
    69   35   37 1    
    70   36   65 1    
@<TRIPOS>SUBSTRUCTURE
     1 UNK         1 GROUP             0       ****    0 ROOT    
