@<TRIPOS>MOLECULE
ZINC63376175_656
66   71    1
SMALL
USER_CHARGES


@<TRIPOS>ATOM
      1 C1         -0.9290   50.2873   25.0027 C.3       1 UNK         0.0000 
      2 C2          0.3054   49.9358   24.1471 C.3       1 UNK         0.0000 
      3 H3          0.8772   49.1850   24.6952 H         1 UNK         0.0000 
      4 C4         -0.0489   49.2926   22.7894 C.2       1 UNK         0.0000 
      5 O5         -1.1604   48.7988   22.6077 O.2       1 UNK         0.0000 
      6 N6          0.9297   49.2964   21.8671 N.am      1 UNK         0.0000 
      7 C7          0.8208   48.7874   20.5003 C.3       1 UNK         0.0000 
      8 C8          0.0258   49.7140   19.5500 C.3       1 UNK         0.0000 
      9 C9         -0.0606   49.1556   18.1142 C.3       1 UNK         0.0000 
     10 C10         1.3271   48.8063   17.5467 C.3       1 UNK         0.0000 
     11 C11         2.1035   47.8588   18.4803 C.3       1 UNK         0.0000 
     12 C12         2.1996   48.4225   19.9108 C.3       1 UNK         0.0000 
     13 N13         1.1893   51.0973   23.9954 N.am      1 UNK         0.0000 
     14 C14         0.9109   52.2446   23.3474 C.2       1 UNK         0.0000 
     15 O15        -0.1971   52.4961   22.8731 O.2       1 UNK         0.0000 
     16 C16         2.0705   53.2544   23.1603 C.3       1 UNK         0.0000 
     17 H17         1.5541   54.1927   22.9460 H         1 UNK         0.0000 
     18 C18         2.8922   52.8205   21.8972 C.3       1 UNK         0.0000 
     19 C19         4.1715   53.6173   21.7424 C.2       1 UNK         0.0000 
     20 C20         4.7268   54.2961   20.7289 C.2       1 UNK         0.0000 
     21 C21         4.3064   54.4918   19.3339 C.2       1 UNK         0.0000 
     22 C22         5.0534   55.2385   18.4972 C.2       1 UNK         0.0000 
     23 C23         6.2815   55.8319   19.0117 C.2       1 UNK         0.0000 
     24 C24         6.6814   55.6569   20.2999 C.2       1 UNK         0.0000 
     25 C25         5.9051   54.8969   21.1829 C.2       1 UNK         0.0000 
     26 N26         6.1030   54.6281   22.4543 N.pl3     1 UNK         0.0000 
     27 C27         5.0264   53.7619   22.9745 C.3       1 UNK         0.0000 
     28 H28         5.5056   52.8437   23.2756 H         1 UNK         0.0000 
     29 C29         4.1648   54.3509   24.1038 C.3       1 UNK         0.0000 
     30 H30         3.7900   55.2976   23.7641 H         1 UNK         0.0000 
     31 N31         2.9530   53.5475   24.3413 N.am      1 UNK         0.0000 
     32 C32         2.6112   53.5510   25.6603 C.2       1 UNK         0.0000 
     33 O33         1.5396   53.2177   26.1636 O.2       1 UNK         0.0000 
     34 C34         3.8372   54.0117   26.3825 C.ar      1 UNK         0.0000 
     35 C35         4.7803   54.4385   25.4675 C.ar      1 UNK         0.0000 
     36 C36         6.0332   54.8736   25.9071 C.ar      1 UNK         0.0000 
     37 C37         6.3071   54.8914   27.2769 C.ar      1 UNK         0.0000 
     38 C38         5.3370   54.4948   28.1977 C.ar      1 UNK         0.0000 
     39 C39         4.0868   54.0558   27.7539 C.ar      1 UNK         0.0000 
     40 H40        -1.5131   49.3964   25.2315 H         1 UNK         0.0000 
     41 H41        -0.6332   50.7324   25.9526 H         1 UNK         0.0000 
     42 H42        -1.5891   50.9900   24.4946 H         1 UNK         0.0000 
     43 H43         1.8005   49.7431   22.1101 H         1 UNK         0.0000 
     44 H44         0.2633   47.8498   20.5769 H         1 UNK         0.0000 
     45 H45         0.4993   50.6969   19.5260 H         1 UNK         0.0000 
     46 H46        -0.9805   49.8738   19.9394 H         1 UNK         0.0000 
     47 H47        -0.5532   49.8801   17.4640 H         1 UNK         0.0000 
     48 H48        -0.6897   48.2647   18.1057 H         1 UNK         0.0000 
     49 H49         1.9017   49.7222   17.4040 H         1 UNK         0.0000 
     50 H50         1.2310   48.3560   16.5586 H         1 UNK         0.0000 
     51 H51         3.1057   47.6889   18.0825 H         1 UNK         0.0000 
     52 H52         1.6183   46.8833   18.5013 H         1 UNK         0.0000 
     53 H53         2.7020   47.6968   20.5524 H         1 UNK         0.0000 
     54 H54         2.8367   49.3087   19.9003 H         1 UNK         0.0000 
     55 H55         2.1068   50.9933   24.3996 H         1 UNK         0.0000 
     56 H56         3.1589   51.7640   21.9652 H         1 UNK         0.0000 
     57 H57         2.2723   52.9098   21.0011 H         1 UNK         0.0000 
     58 H58         3.3937   54.0532   18.9513 H         1 UNK         0.0000 
     59 H59         4.7541   55.3949   17.4700 H         1 UNK         0.0000 
     60 H60         6.9004   56.4134   18.3430 H         1 UNK         0.0000 
     61 H61         7.6133   56.0980   20.6224 H         1 UNK         0.0000 
     62 H62         6.7850   55.2111   25.2115 H         1 UNK         0.0000 
     63 H63         7.2667   55.2277   27.6390 H         1 UNK         0.0000 
     64 H64         5.5574   54.5272   29.2551 H         1 UNK         0.0000 
     65 H65         3.3444   53.7344   28.4679 H         1 UNK         0.0000 
     66 H66         6.8996   54.9435   23.0059 H         1 UNK         0.0000 
@<TRIPOS>BOND
     1    1    2 1    
     2    1   40 1    
     3    1   41 1    
     4    1   42 1    
     5    2    3 1    
     6    2    4 1    
     7    2   13 1    
     8    4    5 2    
     9    4    6 am   BACKBONE|DICT|INTERRES
    10    6    7 1    
    11    6   43 1    
    12    7   12 1    
    13    7    8 1    
    14    7   44 1    
    15    8    9 1    
    16    8   45 1    
    17    8   46 1    
    18    9   10 1    
    19    9   47 1    
    20    9   48 1    
    21   10   11 1    
    22   10   49 1    
    23   10   50 1    
    24   11   12 1    
    25   11   51 1    
    26   11   52 1    
    27   12   53 1    
    28   12   54 1    
    29   13   14 am   BACKBONE|DICT|INTERRES
    30   13   55 1    
    31   14   15 2    
    32   14   16 1    
    33   16   17 1    
    34   16   31 1    
    35   16   18 1    
    36   18   19 1    
    37   18   56 1    
    38   18   57 1    
    39   19   27 1    
    40   19   20 2    
    41   20   25 1    
    42   20   21 1    
    43   21   22 2    
    44   21   58 1    
    45   22   23 1    
    46   22   59 1    
    47   23   24 2    
    48   23   60 1    
    49   24   25 1    
    50   24   61 1    
    51   25   26 2    
    52   26   27 1    
    53   26   66 1    
    54   27   28 1    
    55   27   29 1    
    56   29   30 1    
    57   29   35 1    
    58   29   31 1    
    59   31   32 am   BACKBONE|DICT|INTERRES
    60   32   33 2    
    61   32   34 1    
    62   34   39 ar   
    63   34   35 ar   
    64   35   36 ar   
    65   36   37 ar   
    66   36   62 1    
    67   37   38 ar   
    68   37   63 1    
    69   38   39 ar   
    70   38   64 1    
    71   39   65 1    
@<TRIPOS>SUBSTRUCTURE
     1 UNK         1 GROUP             0       ****    0 ROOT    
