@<TRIPOS>MOLECULE
ZINC00627478_540
58   61    1
SMALL
USER_CHARGES


@<TRIPOS>ATOM
      1 C1         -2.3711   48.5221   24.8869 C.ar      1 UNK         0.0000 
      2 C2         -2.8728   47.2323   24.7896 C.ar      1 UNK         0.0000 
      3 C3         -2.7327   46.5215   23.6013 C.ar      1 UNK         0.0000 
      4 C4         -2.0549   47.0690   22.4956 C.ar      1 UNK         0.0000 
      5 C5         -1.5213   48.3826   22.6022 C.ar      1 UNK         0.0000 
      6 C6         -1.7283   49.0973   23.7966 C.ar      1 UNK         0.0000 
      7 C7         -0.8183   49.0803   21.4425 C.2       1 UNK         0.0000 
      8 O8         -1.3228   48.9896   20.3196 O.2       1 UNK         0.0000 
      9 N9          0.3103   49.8152   21.6671 N.am      1 UNK         0.0000 
     10 C10         1.1366   49.6974   22.8772 C.3       1 UNK         0.0000 
     11 C11         1.3606   51.1424   23.3663 C.3       1 UNK         0.0000 
     12 N12         2.0045   52.0625   22.4038 N.pl3     1 UNK         0.0000 
     13 C13         2.0716   51.5015   21.0379 C.3       1 UNK         0.0000 
     14 C14         0.8716   50.6263   20.5655 C.3       1 UNK         0.0000 
     15 C15         2.9393   52.9877   22.8818 C.ar      1 UNK         0.0000 
     16 C16         4.1105   53.2876   22.1653 C.ar      1 UNK         0.0000 
     17 C17         5.1366   54.0251   22.7537 C.ar      1 UNK         0.0000 
     18 C18         4.9919   54.4966   24.0559 C.ar      1 UNK         0.0000 
     19 C19         3.7959   54.3057   24.7410 C.ar      1 UNK         0.0000 
     20 C20         2.7721   53.5698   24.1495 C.ar      1 UNK         0.0000 
     21 Cl21        6.3051   55.3079   24.8315 Cl        1 UNK         0.0000 
     22 N22        -1.8959   46.3595   21.2782 N.am      1 UNK         0.0000 
     23 C23        -2.2488   45.1006   20.9256 C.2       1 UNK         0.0000 
     24 O24        -2.7786   44.2834   21.6817 O.2       1 UNK         0.0000 
     25 C25        -2.0128   44.7262   19.4384 C.3       1 UNK         0.0000 
     26 H26        -2.2147   45.6765   18.9393 H         1 UNK         0.0000 
     27 C27        -3.0428   43.7059   18.8747 C.3       1 UNK         0.0000 
     28 C28        -2.6836   43.3498   17.4325 C.2       1 UNK         0.0000 
     29 C29        -1.5227   43.6837   16.8277 C.2       1 UNK         0.0000 
     30 C30        -0.3651   44.4132   17.5170 C.3       1 UNK         0.0000 
     31 C31        -0.5275   44.3860   19.0711 C.3       1 UNK         0.0000 
     32 H32         0.1651   45.1013   19.5177 H         1 UNK         0.0000 
     33 C33        -0.0594   43.0239   19.6742 C.2       1 UNK         0.0000 
     34 O34         0.3047   42.0966   18.9167 O.co2     1 UNK         0.0000 
     35 O35        -0.0957   42.8952   20.9153 O.co2     1 UNK         0.0000 
     36 H36        -2.4882   49.0779   25.8072 H         1 UNK         0.0000 
     37 H37        -3.3862   46.7933   25.6330 H         1 UNK         0.0000 
     38 H38        -3.1883   45.5501   23.5669 H         1 UNK         0.0000 
     39 H39        -1.3821   50.1157   23.8985 H         1 UNK         0.0000 
     40 H40         0.7045   49.0797   23.6628 H         1 UNK         0.0000 
     41 H41         2.0969   49.2341   22.6432 H         1 UNK         0.0000 
     42 H42         1.9107   51.1049   24.3049 H         1 UNK         0.0000 
     43 H43         0.3936   51.5878   23.6043 H         1 UNK         0.0000 
     44 H44         2.9348   50.8339   21.0579 H         1 UNK         0.0000 
     45 H45         2.2391   52.2977   20.3113 H         1 UNK         0.0000 
     46 H46         1.1733   50.0194   19.7107 H         1 UNK         0.0000 
     47 H47         0.0962   51.3321   20.2641 H         1 UNK         0.0000 
     48 H48         4.2750   52.8839   21.1782 H         1 UNK         0.0000 
     49 H49         6.0570   54.1963   22.2149 H         1 UNK         0.0000 
     50 H50         3.6747   54.6933   25.7416 H         1 UNK         0.0000 
     51 H51         1.8696   53.3939   24.7158 H         1 UNK         0.0000 
     52 H52        -1.4661   46.9221   20.5563 H         1 UNK         0.0000 
     53 H53        -4.0586   44.0964   18.9522 H         1 UNK         0.0000 
     54 H54        -3.0292   42.7815   19.4546 H         1 UNK         0.0000 
     55 H55        -3.4134   42.8152   16.8424 H         1 UNK         0.0000 
     56 H56        -1.3996   43.3981   15.7930 H         1 UNK         0.0000 
     57 H57         0.5881   43.9807   17.2081 H         1 UNK         0.0000 
     58 H58        -0.3490   45.4435   17.1601 H         1 UNK         0.0000 
@<TRIPOS>BOND
     1    1    6 ar   
     2    1    2 ar   
     3    1   36 1    
     4    2    3 ar   
     5    2   37 1    
     6    3    4 ar   
     7    3   38 1    
     8    4    5 ar   
     9    4   22 1    
    10    5    6 ar   
    11    5    7 1    
    12    6   39 1    
    13    7    8 2    
    14    7    9 am   BACKBONE|DICT|INTERRES
    15    9   14 1    
    16    9   10 1    
    17   10   11 1    
    18   10   40 1    
    19   10   41 1    
    20   11   12 1    
    21   11   42 1    
    22   11   43 1    
    23   12   13 1    
    24   12   15 1    
    25   13   14 1    
    26   13   44 1    
    27   13   45 1    
    28   14   46 1    
    29   14   47 1    
    30   15   20 ar   
    31   15   16 ar   
    32   16   17 ar   
    33   16   48 1    
    34   17   18 ar   
    35   17   49 1    
    36   18   19 ar   
    37   18   21 1    
    38   19   20 ar   
    39   19   50 1    
    40   20   51 1    
    41   22   23 am   BACKBONE|DICT|INTERRES
    42   22   52 1    
    43   23   24 2    
    44   23   25 1    
    45   25   26 1    
    46   25   31 1    
    47   25   27 1    
    48   27   28 1    
    49   27   53 1    
    50   27   54 1    
    51   28   29 2    
    52   28   55 1    
    53   29   30 1    
    54   29   56 1    
    55   30   31 1    
    56   30   57 1    
    57   30   58 1    
    58   31   32 1    
    59   31   33 1    
    60   33   34 2    
    61   33   35 1    
@<TRIPOS>SUBSTRUCTURE
     1 UNK         1 GROUP             0       ****    0 ROOT    
