ZINC13572280_4603
                    3D
 Schrodinger Suite 2024-2.
 41 42  0  0  1  0            999 V2000
    2.0181   52.3294   31.4251 C   0  0  0  0  0  0
    1.4529   53.2349   30.4256 N   0  0  0  0  0  0
    0.0061   53.1048   30.2577 C   0  0  0  0  0  0
    2.2553   53.5414   29.2984 C   0  0  0  0  0  0
    3.5469   54.0410   29.4933 C   0  0  0  0  0  0
    4.3639   54.3590   28.4164 C   0  0  0  0  0  0
    3.9246   54.1491   27.1033 C   0  0  0  0  0  0
    2.6208   53.6920   26.9019 C   0  0  0  0  0  0
    1.7924   53.3948   27.9831 C   0  0  0  0  0  0
    4.7178   54.3601   25.9582 N   0  0  0  0  0  0
    6.1275   54.4240   25.7314 C   0  0  0  0  0  0
    6.9304   54.3224   26.8804 N   0  0  0  0  0  0
    6.7005   54.5087   24.5980 N   0  0  0  0  0  0
    6.0760   54.4975   23.3362 C   0  0  0  0  0  0
    6.7045   55.2443   22.3899 N   0  0  0  0  0  0
    6.2133   55.1864   21.1199 C   0  0  0  0  0  0
    5.1049   54.3961   20.7900 C   0  0  0  0  0  0
    4.5192   53.6530   21.8207 C   0  0  0  0  0  0
    4.9964   53.6968   23.0954 N   0  0  0  0  0  0
    3.3265   52.7293   21.5758 C   0  0  0  0  0  0
    2.8083   52.8958   20.3592 F   0  0  0  0  0  0
    3.7187   51.4597   21.6814 F   0  0  0  0  0  0
    2.3668   52.9608   22.4745 F   0  0  0  0  0  0
    6.9586   56.0038   20.0691 C   0  0  0  0  0  0
    6.7044   57.2966   20.2649 F   0  0  0  0  0  0
    8.2744   55.8028   20.1654 F   0  0  0  0  0  0
    6.5808   55.6868   18.8296 F   0  0  0  0  0  0
    1.4992   52.4416   32.3779 H   0  0  0  0  0  0
    3.0779   52.4971   31.6128 H   0  0  0  0  0  0
    1.9045   51.2969   31.1009 H   0  0  0  0  0  0
   -0.4949   53.1034   31.2277 H   0  0  0  0  0  0
   -0.3985   53.9329   29.6740 H   0  0  0  0  0  0
   -0.2459   52.1761   29.7424 H   0  0  0  0  0  0
    3.9344   54.2102   30.4823 H   0  0  0  0  0  0
    5.3287   54.7808   28.6412 H   0  0  0  0  0  0
    2.2488   53.5353   25.8996 H   0  0  0  0  0  0
    0.8000   53.0203   27.7835 H   0  0  0  0  0  0
    4.1838   54.2941   25.1054 H   0  0  0  0  0  0
    7.9018   54.0938   26.7530 H   0  0  0  0  0  0
    4.7257   54.3483   19.7778 H   0  0  0  0  0  0
    6.5393   53.8435   27.6765 H   0  0  0  0  0  0
  1  2  1  0  0  0
  1 28  1  0  0  0
  1 29  1  0  0  0
  1 30  1  0  0  0
  2  3  1  0  0  0
  2  4  1  0  0  0
  3 31  1  0  0  0
  3 32  1  0  0  0
  3 33  1  0  0  0
  4  9  2  0  0  0
  4  5  1  0  0  0
  5  6  2  0  0  0
  5 34  1  0  0  0
  6  7  1  0  0  0
  6 35  1  0  0  0
  7  8  2  0  0  0
  7 10  1  0  0  0
  8  9  1  0  0  0
  8 36  1  0  0  0
  9 37  1  0  0  0
 10 11  1  0  0  0
 10 38  1  0  0  0
 11 12  1  0  0  0
 11 13  2  0  0  0
 12 39  1  0  0  0
 12 41  1  0  0  0
 13 14  1  0  0  0
 14 19  2  0  0  0
 14 15  1  0  0  0
 15 16  2  0  0  0
 16 17  1  0  0  0
 16 24  1  0  0  0
 17 18  2  0  0  0
 17 40  1  0  0  0
 18 19  1  0  0  0
 18 20  1  0  0  0
 20 21  1  0  0  0
 20 22  1  0  0  0
 20 23  1  0  0  0
 24 25  1  0  0  0
 24 26  1  0  0  0
 24 27  1  0  0  0
M  END
> <i_i_glide_confnum>
27

> <i_i_glide_lignum>
4604

> <i_i_glide_posenum>
101

> <i_i_glide_rotatable_bonds>
6

> <i_m_Source_File_Index>
1755

> <b_m_subgroup_collapsed>
0

> <r_i_docking_score>
-5.15756

> <r_i_glide_ecoul>
-0.105507

> <r_i_glide_eff_state_penalty>
0

> <r_i_glide_einternal>
3.39513

> <r_i_glide_emodel>
-54.0043

> <r_i_glide_energy>
-42.5576

> <r_i_glide_erotb>
0.38057

> <r_i_glide_esite>
-0.0850959

> <r_i_glide_evdw>
-42.4521

> <r_i_glide_gscore>
-5.15756

> <r_i_glide_hbond>
0

> <r_i_glide_ligand_efficiency>
-0.191021

> <r_i_glide_ligand_efficiency_ln>
-1.20059

> <r_i_glide_ligand_efficiency_sa>
-0.573062

> <r_i_glide_lipo>
-1.94757

> <r_i_glide_metal>
0

> <r_i_glide_rewards>
-1.36703

> <s_i_glide_gridfile>
wee1_glide-grid

> <s_m_Source_File>
wee1_decoys_glide_SP.sdf

> <s_m_Source_Path>
/Users/zhangxujun/Desktop

> <s_m_entry_id>
2030

> <s_m_entry_name>
wee1_decoys_glide_SP.1755

> <s_m_subgroup_title>
wee1_decoys_glide_SP

> <s_m_subgroupid>
wee1_decoys_glide_SP


$$$$
