ZINC20386448_2191
                    3D
 Schrodinger Suite 2024-2.
 62 65  0  0  1  0            999 V2000
    3.6928   54.1043   15.2398 C   0  0  0  0  0  0
    4.4923   52.9669   15.9089 C   0  0  0  0  0  0
    4.3090   52.8967   17.4457 N   0  3  2  0  0  0
    2.8294   52.7402   17.8541 C   0  0  0  0  0  0
    2.7932   52.2466   19.3180 C   0  0  0  0  0  0
    3.7139   53.0847   20.2115 C   0  0  0  0  0  0
    4.6940   53.9164   19.6515 C   0  0  0  0  0  0
    5.5656   54.7904   20.8515 S   0  0  0  0  0  0
    4.6896   53.9911   22.1085 C   0  0  0  0  0  0
    3.6730   53.1436   21.6288 C   0  0  0  0  0  0
    2.7181   52.3499   22.5246 C   0  0  2  0  0  0
    3.0926   52.4333   23.5421 H   0  0  0  0  0  0
    2.7049   50.8409   22.2296 C   0  0  0  0  0  0
    1.3670   52.9063   22.4944 N   0  0  0  0  0  0
    0.5660   52.8966   23.5707 C   0  0  0  0  0  0
    0.9654   53.1748   24.7015 O   0  0  0  0  0  0
   -0.6819   52.4973   23.2704 N   0  0  0  0  0  0
   -1.6774   52.2134   24.2161 C   0  0  0  0  0  0
   -2.8897   52.8970   24.0928 C   0  0  0  0  0  0
   -3.9207   52.6696   25.0046 C   0  0  0  0  0  0
   -3.7365   51.7470   26.0369 C   0  0  0  0  0  0
   -2.5367   51.0424   26.1482 C   0  0  0  0  0  0
   -1.4918   51.2559   25.2341 C   0  0  0  0  0  0
   -0.2956   50.5590   25.2595 O   0  0  0  0  0  0
   -0.0469   49.6235   26.2993 C   0  0  0  0  0  0
   -5.2235   53.4357   24.8813 C   0  0  0  0  0  0
    5.0441   54.2016   23.4281 N   0  0  0  0  0  0
    4.2055   54.4967   24.4817 C   0  0  0  0  0  0
    4.9469   54.6310   25.6428 C   0  0  0  0  0  0
    6.2830   54.4281   25.3018 C   0  0  0  0  0  0
    6.3237   54.1665   23.9401 C   0  0  0  0  0  0
    4.9497   54.1110   18.1641 C   0  0  0  0  0  0
    3.8738   54.1078   14.1643 H   0  0  0  0  0  0
    2.6185   53.9862   15.3770 H   0  0  0  0  0  0
    3.9769   55.0885   15.6099 H   0  0  0  0  0  0
    5.5695   53.0586   15.7466 H   0  0  0  0  0  0
    4.1873   51.9784   15.5526 H   0  0  0  0  0  0
    2.3407   53.7069   17.7136 H   0  0  0  0  0  0
    2.3857   51.9912   17.1946 H   0  0  0  0  0  0
    3.1362   51.2112   19.3430 H   0  0  0  0  0  0
    1.7659   52.2514   19.6767 H   0  0  0  0  0  0
    3.7194   50.4967   22.0515 H   0  0  0  0  0  0
    2.3005   50.2762   23.0703 H   0  0  0  0  0  0
    2.1075   50.5818   21.3573 H   0  0  0  0  0  0
    0.9634   53.0434   21.5808 H   0  0  0  0  0  0
   -0.9547   52.4577   22.3010 H   0  0  0  0  0  0
   -3.0258   53.6220   23.3064 H   0  0  0  0  0  0
   -4.5247   51.5603   26.7521 H   0  0  0  0  0  0
   -2.4394   50.3224   26.9491 H   0  0  0  0  0  0
    0.9625   49.2270   26.1990 H   0  0  0  0  0  0
   -0.1221   50.0917   27.2827 H   0  0  0  0  0  0
   -0.7344   48.7796   26.2361 H   0  0  0  0  0  0
   -5.7544   53.4824   25.8344 H   0  0  0  0  0  0
   -5.8695   52.9730   24.1363 H   0  0  0  0  0  0
   -5.0361   54.4661   24.5745 H   0  0  0  0  0  0
    3.1411   54.5928   24.3160 H   0  0  0  0  0  0
    4.5619   54.8522   26.6286 H   0  0  0  0  0  0
    7.1242   54.4593   25.9768 H   0  0  0  0  0  0
    7.1650   53.9576   23.2937 H   0  0  0  0  0  0
    4.4827   55.0212   17.7909 H   0  0  0  0  0  0
    6.0095   54.0858   17.9049 H   0  0  0  0  0  0
    4.7708   52.0247   17.7247 H   0  0  0  0  0  0
  1  2  1  0  0  0
  1 33  1  0  0  0
  1 34  1  0  0  0
  1 35  1  0  0  0
  2  3  1  0  0  0
  2 36  1  0  0  0
  2 37  1  0  0  0
  3 32  1  0  0  0
  3  4  1  0  0  0
  3 62  1  0  0  0
  4  5  1  0  0  0
  4 38  1  0  0  0
  4 39  1  0  0  0
  5  6  1  0  0  0
  5 40  1  0  0  0
  5 41  1  0  0  0
  6 10  1  0  0  0
  6  7  2  0  0  0
  7  8  1  0  0  0
  7 32  1  0  0  0
  8  9  1  0  0  0
  9 10  2  0  0  0
  9 27  1  0  0  0
 10 11  1  0  0  0
 11 12  1  0  0  0
 11 13  1  0  0  0
 11 14  1  0  0  0
 13 42  1  0  0  0
 13 43  1  0  0  0
 13 44  1  0  0  0
 14 15  1  0  0  0
 14 45  1  0  0  0
 15 16  2  0  0  0
 15 17  1  0  0  0
 17 18  1  0  0  0
 17 46  1  0  0  0
 18 23  2  0  0  0
 18 19  1  0  0  0
 19 20  2  0  0  0
 19 47  1  0  0  0
 20 21  1  0  0  0
 20 26  1  0  0  0
 21 22  2  0  0  0
 21 48  1  0  0  0
 22 23  1  0  0  0
 22 49  1  0  0  0
 23 24  1  0  0  0
 24 25  1  0  0  0
 25 50  1  0  0  0
 25 51  1  0  0  0
 25 52  1  0  0  0
 26 53  1  0  0  0
 26 54  1  0  0  0
 26 55  1  0  0  0
 27 31  1  0  0  0
 27 28  1  0  0  0
 28 29  2  0  0  0
 28 56  1  0  0  0
 29 30  1  0  0  0
 29 57  1  0  0  0
 30 31  2  0  0  0
 30 58  1  0  0  0
 31 59  1  0  0  0
 32 60  1  0  0  0
 32 61  1  0  0  0
M  CHG  1   3   1
M  END
> <i_i_glide_confnum>
69

> <i_i_glide_lignum>
2192

> <i_i_glide_posenum>
316

> <i_i_glide_rotatable_bonds>
8

> <i_m_Source_File_Index>
2507

> <b_m_subgroup_collapsed>
0

> <r_i_docking_score>
-4.30249

> <r_i_glide_ecoul>
-3.01833

> <r_i_glide_eff_state_penalty>
0

> <r_i_glide_einternal>
12.9504

> <r_i_glide_emodel>
-46.954

> <r_i_glide_energy>
-41.4604

> <r_i_glide_erotb>
0.619723

> <r_i_glide_esite>
-0.0834079

> <r_i_glide_evdw>
-38.4421

> <r_i_glide_gscore>
-4.30249

> <r_i_glide_hbond>
-0.2

> <r_i_glide_ligand_efficiency>
-0.13879

> <r_i_glide_ligand_efficiency_ln>
-0.970342

> <r_i_glide_ligand_efficiency_sa>
-0.435992

> <r_i_glide_lipo>
-2.09776

> <r_i_glide_metal>
0

> <r_i_glide_rewards>
-0.166186

> <s_i_glide_gridfile>
wee1_glide-grid

> <s_m_Source_File>
wee1_decoys_glide_SP.sdf

> <s_m_Source_Path>
/Users/zhangxujun/Desktop

> <s_m_entry_id>
2782

> <s_m_entry_name>
wee1_decoys_glide_SP.2507

> <s_m_subgroup_title>
wee1_decoys_glide_SP

> <s_m_subgroupid>
wee1_decoys_glide_SP


$$$$
