@<TRIPOS>MOLECULE
ZINC59890765_5113
69   71    1
SMALL
USER_CHARGES


@<TRIPOS>ATOM
      1 C1          4.0703   54.2753   24.1890 C.3       1 UNK         0.0000 
      2 C2          2.8121   53.5594   23.7117 C.ar      1 UNK         0.0000 
      3 C3          1.7169   53.5065   24.5823 C.ar      1 UNK         0.0000 
      4 C4          0.5444   52.8466   24.2229 C.ar      1 UNK         0.0000 
      5 C5          0.4509   52.2289   22.9758 C.ar      1 UNK         0.0000 
      6 C6          1.5252   52.2989   22.0899 C.ar      1 UNK         0.0000 
      7 C7          2.7174   52.9560   22.4375 C.ar      1 UNK         0.0000 
      8 C8          3.8713   52.9342   21.4590 C.2       1 UNK         0.0000 
      9 O9          5.0230   52.6841   21.8190 O.2       1 UNK         0.0000 
     10 N10         3.5332   53.1591   20.1786 N.am      1 UNK         0.0000 
     11 C11         4.3826   52.8984   19.0112 C.3       1 UNK         0.0000 
     12 C12         5.0624   54.1564   18.3730 C.3       1 UNK         0.0000 
     13 C13         4.0639   55.3374   18.1183 C.3       1 UNK         0.0000 
     14 C14         4.7350   56.6754   17.7097 C.3       1 UNK         0.0000 
     15 C15         5.8833   57.0668   18.6644 C.3       1 UNK         0.0000 
     16 C16         6.9271   55.9394   18.7464 C.3       1 UNK         0.0000 
     17 H17         7.3029   55.7594   17.7392 H         1 UNK         0.0000 
     18 C18         6.2203   54.6737   19.2852 C.3       1 UNK         0.0000 
     19 C19         8.1217   56.3211   19.6382 C.3       1 UNK         0.0000 
     20 N20         5.6707   53.7608   16.9742 N.4       1 UNK         0.0000 
     21 C21         6.9847   52.9349   17.0081 C.3       1 UNK         0.0000 
     22 C22         4.7042   53.0696   15.9747 C.3       1 UNK         0.0000 
     23 S23        -0.9929   51.2866   22.4895 S.o2      1 UNK         0.0000 
     24 O24        -1.7527   52.0969   21.5316 O.2       1 UNK         0.0000 
     25 O25        -0.5013   49.9593   22.1089 O.2       1 UNK         0.0000 
     26 N26        -1.9891   51.0395   23.9428 N.pl3     1 UNK         0.0000 
     27 C27        -2.9522   51.9297   24.4458 C.ar      1 UNK         0.0000 
     28 C28        -3.8005   51.4593   25.4473 C.ar      1 UNK         0.0000 
     29 C29        -4.7833   52.2884   25.9815 C.ar      1 UNK         0.0000 
     30 C30        -4.9373   53.6000   25.5082 C.ar      1 UNK         0.0000 
     31 C31        -4.0954   54.0607   24.4996 C.ar      1 UNK         0.0000 
     32 C32        -3.0908   53.2438   23.9899 C.ar      1 UNK         0.0000 
     33 O33        -5.8740   54.4966   25.9804 O.3       1 UNK         0.0000 
     34 C34        -6.7035   54.1180   27.0689 C.3       1 UNK         0.0000 
     35 H35         3.8765   54.9301   25.0380 H         1 UNK         0.0000 
     36 H36         4.8376   53.5532   24.4681 H         1 UNK         0.0000 
     37 H37         4.4762   54.8963   23.3952 H         1 UNK         0.0000 
     38 H38         1.7790   53.9629   25.5592 H         1 UNK         0.0000 
     39 H39        -0.2713   52.8022   24.9301 H         1 UNK         0.0000 
     40 H40         1.4383   51.7957   21.1360 H         1 UNK         0.0000 
     41 H41         2.6005   53.5089   20.0008 H         1 UNK         0.0000 
     42 H42         3.7133   52.4110   18.3048 H         1 UNK         0.0000 
     43 H43         5.1400   52.1591   19.2818 H         1 UNK         0.0000 
     44 H44         3.5066   55.5303   19.0337 H         1 UNK         0.0000 
     45 H45         3.3038   55.0876   17.3815 H         1 UNK         0.0000 
     46 H46         5.1177   56.6023   16.6903 H         1 UNK         0.0000 
     47 H47         3.9887   57.4722   17.6840 H         1 UNK         0.0000 
     48 H48         6.3524   57.9920   18.3272 H         1 UNK         0.0000 
     49 H49         5.5084   57.2951   19.6611 H         1 UNK         0.0000 
     50 H50         6.9681   53.8992   19.4242 H         1 UNK         0.0000 
     51 H51         5.8503   54.8767   20.2927 H         1 UNK         0.0000 
     52 H52         7.8184   56.4717   20.6741 H         1 UNK         0.0000 
     53 H53         8.8800   55.5375   19.6325 H         1 UNK         0.0000 
     54 H54         8.6047   57.2306   19.2813 H         1 UNK         0.0000 
     55 H55         6.8263   52.0966   17.6812 H         1 UNK         0.0000 
     56 H56         7.2202   52.5903   16.0002 H         1 UNK         0.0000 
     57 H57         7.7931   53.5735   17.3636 H         1 UNK         0.0000 
     58 H58         4.5641   52.0334   16.2880 H         1 UNK         0.0000 
     59 H59         3.7555   53.5985   15.9377 H         1 UNK         0.0000 
     60 H60         5.1806   53.1035   14.9936 H         1 UNK         0.0000 
     61 H61        -1.8316   50.1819   24.4512 H         1 UNK         0.0000 
     62 H62        -3.7038   50.4489   25.8185 H         1 UNK         0.0000 
     63 H63        -5.4187   51.8918   26.7584 H         1 UNK         0.0000 
     64 H64        -4.2023   55.0680   24.1284 H         1 UNK         0.0000 
     65 H65        -2.4350   53.6548   23.2413 H         1 UNK         0.0000 
     66 H66        -7.3441   54.9571   27.3450 H         1 UNK         0.0000 
     67 H67        -7.3493   53.2772   26.8073 H         1 UNK         0.0000 
     68 H68        -6.1019   53.8542   27.9397 H         1 UNK         0.0000 
     69 H69         5.9082   54.6504   16.5537 H         1 UNK         0.0000 
@<TRIPOS>BOND
     1    1    2 1    
     2    1   35 1    
     3    1   36 1    
     4    1   37 1    
     5    2    7 ar   
     6    2    3 ar   
     7    3    4 ar   
     8    3   38 1    
     9    4    5 ar   
    10    4   39 1    
    11    5    6 ar   
    12    5   23 1    
    13    6    7 ar   
    14    6   40 1    
    15    7    8 1    
    16    8    9 2    
    17    8   10 am   BACKBONE|DICT|INTERRES
    18   10   11 1    
    19   10   41 1    
    20   11   12 1    
    21   11   42 1    
    22   11   43 1    
    23   12   18 1    
    24   12   13 1    
    25   12   20 1    
    26   13   14 1    
    27   13   44 1    
    28   13   45 1    
    29   14   15 1    
    30   14   46 1    
    31   14   47 1    
    32   15   16 1    
    33   15   48 1    
    34   15   49 1    
    35   16   17 1    
    36   16   18 1    
    37   16   19 1    
    38   18   50 1    
    39   18   51 1    
    40   19   52 1    
    41   19   53 1    
    42   19   54 1    
    43   20   21 1    
    44   20   22 1    
    45   20   69 1    
    46   21   55 1    
    47   21   56 1    
    48   21   57 1    
    49   22   58 1    
    50   22   59 1    
    51   22   60 1    
    52   23   24 2    
    53   23   25 2    
    54   23   26 1    
    55   26   27 1    
    56   26   61 1    
    57   27   32 ar   
    58   27   28 ar   
    59   28   29 ar   
    60   28   62 1    
    61   29   30 ar   
    62   29   63 1    
    63   30   31 ar   
    64   30   33 1    
    65   31   32 ar   
    66   31   64 1    
    67   32   65 1    
    68   33   34 1    
    69   34   66 1    
    70   34   67 1    
    71   34   68 1    
@<TRIPOS>SUBSTRUCTURE
     1 UNK         1 GROUP             0       ****    0 ROOT    
