ZINC20746115_169
                    3D
 Schrodinger Suite 2024-2.
 48 51  0  0  1  0            999 V2000
    6.9356   55.5427   19.0204 C   0  0  0  0  0  0
    6.6413   55.3014   20.3898 O   0  0  0  0  0  0
    5.5078   54.6476   20.7489 C   0  0  0  0  0  0
    4.6530   54.2726   19.9441 O   0  0  0  0  0  0
    5.3746   54.4865   22.2329 C   0  0  0  0  0  0
    6.4522   54.7045   23.1074 C   0  0  0  0  0  0
    6.2914   54.5510   24.4837 C   0  0  0  0  0  0
    5.0538   54.1850   25.0089 C   0  0  0  0  0  0
    3.9659   53.9660   24.1604 C   0  0  0  0  0  0
    4.1387   54.0974   22.7719 C   0  0  0  0  0  0
    2.7668   53.5386   24.7590 N   0  0  0  0  0  0
    1.5115   53.6010   24.2612 C   0  0  0  0  0  0
    1.2353   54.2945   23.2834 O   0  0  0  0  0  0
    0.5589   52.8963   24.9419 N   0  0  0  0  0  0
   -0.8446   52.9252   24.4571 C   0  0  0  0  0  0
   -1.1051   51.6443   23.6192 C   0  0  0  0  0  0
   -0.7255   50.4494   24.4769 C   0  0  0  0  0  0
    0.1319   50.5841   25.5659 C   0  0  0  0  0  0
    0.2536   49.3141   26.0622 N   0  0  0  0  0  0
    0.7858   49.0121   26.8664 H   0  0  0  0  0  0
   -0.5598   48.5345   25.2815 C   0  0  0  0  0  0
   -1.1541   49.2064   24.3247 N   0  0  0  0  0  0
    0.8325   51.8786   26.0022 C   0  0  2  0  0  0
    1.9014   51.6980   25.9855 H   0  0  0  0  0  0
    0.6214   52.3647   27.4476 C   0  0  0  0  0  0
   -0.1734   51.6611   28.3648 C   0  0  0  0  0  0
   -0.2845   52.1004   29.6832 C   0  0  0  0  0  0
    0.3964   53.2441   30.0922 C   0  0  0  0  0  0
    1.1653   53.9675   29.1872 C   0  0  0  0  0  0
    1.2782   53.5274   27.8729 C   0  0  0  0  0  0
    0.3006   53.8166   31.9031 Br  0  0  0  0  0  0
    7.8962   56.0506   18.9302 H   0  0  0  0  0  0
    6.9954   54.6064   18.4623 H   0  0  0  0  0  0
    6.1713   56.1710   18.5602 H   0  0  0  0  0  0
    7.4274   54.9900   22.7360 H   0  0  0  0  0  0
    7.1316   54.7114   25.1421 H   0  0  0  0  0  0
    4.9511   54.0615   26.0781 H   0  0  0  0  0  0
    3.3117   53.9004   22.1030 H   0  0  0  0  0  0
    2.8796   53.0772   25.6479 H   0  0  0  0  0  0
   -1.4931   52.9425   25.3346 H   0  0  0  0  0  0
   -1.0939   53.8584   23.9511 H   0  0  0  0  0  0
   -2.1532   51.5994   23.3235 H   0  0  0  0  0  0
   -0.5223   51.6723   22.6978 H   0  0  0  0  0  0
   -0.6726   47.4852   25.5080 H   0  0  0  0  0  0
   -0.7063   50.7653   28.0790 H   0  0  0  0  0  0
   -0.8856   51.5439   30.3907 H   0  0  0  0  0  0
    1.6831   54.8598   29.5065 H   0  0  0  0  0  0
    1.8916   54.0979   27.1939 H   0  0  0  0  0  0
  1  2  1  0  0  0
  1 32  1  0  0  0
  1 33  1  0  0  0
  1 34  1  0  0  0
  2  3  1  0  0  0
  3  4  2  0  0  0
  3  5  1  0  0  0
  5 10  2  0  0  0
  5  6  1  0  0  0
  6  7  2  0  0  0
  6 35  1  0  0  0
  7  8  1  0  0  0
  7 36  1  0  0  0
  8  9  2  0  0  0
  8 37  1  0  0  0
  9 10  1  0  0  0
  9 11  1  0  0  0
 10 38  1  0  0  0
 11 12  1  0  0  0
 11 39  1  0  0  0
 12 13  2  0  0  0
 12 14  1  0  0  0
 14 23  1  0  0  0
 14 15  1  0  0  0
 15 16  1  0  0  0
 15 40  1  0  0  0
 15 41  1  0  0  0
 16 17  1  0  0  0
 16 42  1  0  0  0
 16 43  1  0  0  0
 17 22  1  0  0  0
 17 18  2  0  0  0
 18 19  1  0  0  0
 18 23  1  0  0  0
 19 20  1  0  0  0
 19 21  1  0  0  0
 21 22  2  0  0  0
 21 44  1  0  0  0
 23 24  1  0  0  0
 23 25  1  0  0  0
 25 30  2  0  0  0
 25 26  1  0  0  0
 26 27  2  0  0  0
 26 45  1  0  0  0
 27 28  1  0  0  0
 27 46  1  0  0  0
 28 29  2  0  0  0
 28 31  1  0  0  0
 29 30  1  0  0  0
 29 47  1  0  0  0
 30 48  1  0  0  0
M  END
> <i_i_glide_confnum>
95

> <i_i_glide_lignum>
170

> <i_i_glide_posenum>
382

> <i_i_glide_rotatable_bonds>
6

> <i_m_Source_File_Index>
2399

> <b_m_subgroup_collapsed>
0

> <r_i_docking_score>
-5.60032

> <r_i_glide_ecoul>
-2.41011

> <r_i_glide_eff_state_penalty>
0

> <r_i_glide_einternal>
4.23532

> <r_i_glide_emodel>
-57.3414

> <r_i_glide_energy>
-44.9331

> <r_i_glide_erotb>
0.48451

> <r_i_glide_esite>
-0.167261

> <r_i_glide_evdw>
-42.523

> <r_i_glide_gscore>
-5.60032

> <r_i_glide_hbond>
0

> <r_i_glide_ligand_efficiency>
-0.193114

> <r_i_glide_ligand_efficiency_ln>
-1.28233

> <r_i_glide_ligand_efficiency_sa>
-0.593309

> <r_i_glide_lipo>
-2.34469

> <r_i_glide_metal>
0

> <r_i_glide_rewards>
-1.08521

> <s_i_glide_gridfile>
wee1_glide-grid

> <s_m_Source_File>
wee1_decoys_glide_SP.sdf

> <s_m_Source_Path>
/Users/zhangxujun/Desktop

> <s_m_entry_id>
2674

> <s_m_entry_name>
wee1_decoys_glide_SP.2399

> <s_m_subgroup_title>
wee1_decoys_glide_SP

> <s_m_subgroupid>
wee1_decoys_glide_SP


$$$$
