@<TRIPOS>MOLECULE
ZINC32910360_5393
59   63    1
SMALL
USER_CHARGES


@<TRIPOS>ATOM
      1 C1          6.7003   54.8966   22.7601 C.ar      1 UNK         0.0000 
      2 C2          6.7042   55.2966   24.0889 C.ar      1 UNK         0.0000 
      3 C3          5.6147   55.0231   24.9057 C.ar      1 UNK         0.0000 
      4 C4          4.5014   54.3147   24.3925 C.ar      1 UNK         0.0000 
      5 C5          4.4927   53.8423   23.0497 C.ar      1 UNK         0.0000 
      6 C6          5.6188   54.1907   22.2370 C.ar      1 UNK         0.0000 
      7 C7          3.3616   53.0503   22.6236 C.ar      1 UNK         0.0000 
      8 C8          2.3057   52.8003   23.5477 C.ar      1 UNK         0.0000 
      9 C9          2.4054   53.3491   24.8492 C.ar      1 UNK         0.0000 
     10 N10         3.4711   54.0966   25.2313 N.ar      1 UNK         0.0000 
     11 C11         1.3974   53.0532   25.9286 C.2       1 UNK         0.0000 
     12 C12         1.6982   53.2657   27.2375 C.2       1 UNK         0.0000 
     13 C13         0.9288   53.0596   28.4491 C.2       1 UNK         0.0000 
     14 C14         0.1005   51.9917   28.7880 C.2       1 UNK         0.0000 
     15 C15        -0.4211   52.0966   30.0805 C.2       1 UNK         0.0000 
     16 C16         0.0441   53.2122   30.7576 C.2       1 UNK         0.0000 
     17 S17         1.0966   54.1736   29.7751 S.3       1 UNK         0.0000 
     18 C18         0.0654   52.4985   25.4280 C.3       1 UNK         0.0000 
     19 C19         0.3638   51.3626   24.4484 C.3       1 UNK         0.0000 
     20 C20         1.0876   51.9135   23.2106 C.3       1 UNK         0.0000 
     21 C21         3.3578   52.4267   21.2518 C.2       1 UNK         0.0000 
     22 O22         4.3637   51.9464   20.7242 O.2       1 UNK         0.0000 
     23 O23         2.1474   52.4969   20.6369 O.3       1 UNK         0.0000 
     24 C24         1.9525   52.1192   19.2700 C.3       1 UNK         0.0000 
     25 C25         1.6048   50.6252   19.1337 C.2       1 UNK         0.0000 
     26 O26         1.4660   49.9051   20.1298 O.2       1 UNK         0.0000 
     27 N27         1.4660   50.2025   17.8626 N.am      1 UNK         0.0000 
     28 N28         1.5046   48.8356   17.6279 N.am      1 UNK         0.0000 
     29 C29         0.4611   48.2557   17.0034 C.2       1 UNK         0.0000 
     30 O30        -0.6093   48.8137   16.7428 O.2       1 UNK         0.0000 
     31 C31         0.6929   46.8147   16.6257 C.ar      1 UNK         0.0000 
     32 C32         1.9274   46.4165   16.0831 C.ar      1 UNK         0.0000 
     33 C33         2.1532   45.0862   15.7359 C.ar      1 UNK         0.0000 
     34 C34         1.1559   44.1334   15.9315 C.ar      1 UNK         0.0000 
     35 C35        -0.0693   44.5138   16.4768 C.ar      1 UNK         0.0000 
     36 C36        -0.3048   45.8448   16.8258 C.ar      1 UNK         0.0000 
     37 F37        -1.5033   46.1678   17.3690 F         1 UNK         0.0000 
     38 H38         7.5469   55.1332   22.1316 H         1 UNK         0.0000 
     39 H39         7.5435   55.8492   24.4798 H         1 UNK         0.0000 
     40 H40         5.6067   55.3549   25.9343 H         1 UNK         0.0000 
     41 H41         5.6563   53.9080   21.1969 H         1 UNK         0.0000 
     42 H42         2.6722   53.6598   27.4873 H         1 UNK         0.0000 
     43 H43        -0.1105   51.1518   28.1413 H         1 UNK         0.0000 
     44 H44        -1.0832   51.3628   30.5231 H         1 UNK         0.0000 
     45 H45        -0.1807   53.4947   31.7769 H         1 UNK         0.0000 
     46 H46        -0.5626   52.1367   26.2375 H         1 UNK         0.0000 
     47 H47        -0.5142   53.2740   24.9243 H         1 UNK         0.0000 
     48 H48         0.9706   50.5930   24.9294 H         1 UNK         0.0000 
     49 H49        -0.5633   50.8735   24.1459 H         1 UNK         0.0000 
     50 H50         0.3841   52.5033   22.6212 H         1 UNK         0.0000 
     51 H51         1.3782   51.0613   22.5955 H         1 UNK         0.0000 
     52 H52         1.1515   52.7319   18.8548 H         1 UNK         0.0000 
     53 H53         2.8442   52.3196   18.6698 H         1 UNK         0.0000 
     54 H54         1.8105   50.7391   17.0786 H         1 UNK         0.0000 
     55 H55         2.4543   48.5464   17.4188 H         1 UNK         0.0000 
     56 H56         2.7211   47.1348   15.9179 H         1 UNK         0.0000 
     57 H57         3.1044   44.7974   15.3177 H         1 UNK         0.0000 
     58 H58         1.3324   43.1023   15.6611 H         1 UNK         0.0000 
     59 H59        -0.8436   43.7771   16.6302 H         1 UNK         0.0000 
@<TRIPOS>BOND
     1    1    6 ar   
     2    1    2 ar   
     3    1   38 1    
     4    2    3 ar   
     5    2   39 1    
     6    3    4 ar   
     7    3   40 1    
     8    4   10 ar   
     9    4    5 ar   
    10    5    6 ar   
    11    5    7 ar   
    12    6   41 1    
    13    7    8 ar   
    14    7   21 1    
    15    8   20 1    
    16    8    9 ar   
    17    9   10 ar   
    18    9   11 1    
    19   11   12 2    
    20   11   18 1    
    21   12   13 1    
    22   12   42 1    
    23   13   17 1    
    24   13   14 2    
    25   14   15 1    
    26   14   43 1    
    27   15   16 2    
    28   15   44 1    
    29   16   17 1    
    30   16   45 1    
    31   18   19 1    
    32   18   46 1    
    33   18   47 1    
    34   19   20 1    
    35   19   48 1    
    36   19   49 1    
    37   20   50 1    
    38   20   51 1    
    39   21   22 2    
    40   21   23 1    
    41   23   24 1    
    42   24   25 1    
    43   24   52 1    
    44   24   53 1    
    45   25   26 2    
    46   25   27 am   BACKBONE|DICT|INTERRES
    47   27   28 1    
    48   27   54 1    
    49   28   29 am   BACKBONE|DICT|INTERRES
    50   28   55 1    
    51   29   30 2    
    52   29   31 1    
    53   31   36 ar   
    54   31   32 ar   
    55   32   33 ar   
    56   32   56 1    
    57   33   34 ar   
    58   33   57 1    
    59   34   35 ar   
    60   34   58 1    
    61   35   36 ar   
    62   35   59 1    
    63   36   37 1    
@<TRIPOS>SUBSTRUCTURE
     1 UNK         1 GROUP             0       ****    0 ROOT    
