@<TRIPOS>MOLECULE
ZINC43736727_4650
75   79    1
SMALL
USER_CHARGES


@<TRIPOS>ATOM
      1 C1          4.0424   54.2847   20.6164 C.3       1 UNK         0.0000 
      2 C2          3.8425   53.2724   21.7711 C.3       1 UNK         0.0000 
      3 C3          5.2842   52.6974   21.9657 C.3       1 UNK         0.0000 
      4 C4          6.2992   53.6512   22.6627 C.3       1 UNK         0.0000 
      5 C5          5.7594   54.2712   23.9506 C.2       1 UNK         0.0000 
      6 N6          6.6008   54.5599   24.8682 N.2       1 UNK         0.0000 
      7 O7          5.9902   55.1221   26.0128 O.3       1 UNK         0.0000 
      8 C8          6.0000   54.1657   27.0730 C.3       1 UNK         0.0000 
      9 C9          5.0508   54.6757   28.1618 C.2       1 UNK         0.0000 
     10 O10         5.5027   55.2963   29.1146 O.2       1 UNK         0.0000 
     11 N11         3.7412   54.3504   28.1560 N.am      1 UNK         0.0000 
     12 C12         3.2474   52.9723   27.9988 C.3       1 UNK         0.0000 
     13 H13         3.6619   52.5122   27.1029 H         1 UNK         0.0000 
     14 C14         1.7347   52.8995   27.9395 C.ar      1 UNK         0.0000 
     15 C15         0.9614   53.2640   29.0481 C.ar      1 UNK         0.0000 
     16 C16        -0.3479   52.8165   29.1522 C.ar      1 UNK         0.0000 
     17 C17        -0.9094   52.0609   28.1232 C.ar      1 UNK         0.0000 
     18 C18        -0.1910   51.8057   26.9583 C.ar      1 UNK         0.0000 
     19 C19         1.1306   52.2301   26.8690 C.ar      1 UNK         0.0000 
     20 C20         3.8280   52.0965   29.1748 C.2       1 UNK         0.0000 
     21 O21         5.0673   52.0985   29.2827 O.co2     1 UNK         0.0000 
     22 O22         3.0286   51.2971   29.6863 O.co2     1 UNK         0.0000 
     23 C23         4.3279   54.4732   23.9867 C.2       1 UNK         0.0000 
     24 C24         3.4358   54.0602   23.0537 C.2       1 UNK         0.0000 
     25 C25         1.9510   54.3836   23.2170 C.3       1 UNK         0.0000 
     26 C26         1.1371   53.1142   23.0813 C.3       1 UNK         0.0000 
     27 C27         1.2372   52.5536   21.6508 C.3       1 UNK         0.0000 
     28 H28         0.9258   53.2974   20.9265 H         1 UNK         0.0000 
     29 C29         2.7375   52.1843   21.3390 C.3       1 UNK         0.0000 
     30 H30         2.8599   52.1488   20.2595 H         1 UNK         0.0000 
     31 C31         2.9200   50.7130   21.7602 C.3       1 UNK         0.0000 
     32 C32         2.0927   49.7217   20.8834 C.3       1 UNK         0.0000 
     33 C33         0.6734   50.2538   20.4807 C.3       1 UNK         0.0000 
     34 C34         0.2532   51.3553   21.4901 C.3       1 UNK         0.0000 
     35 H35         0.2343   50.8617   22.4644 H         1 UNK         0.0000 
     36 C36        -1.2264   51.6193   21.1740 C.3       1 UNK         0.0000 
     37 C37        -1.7662   50.2499   20.6910 C.3       1 UNK         0.0000 
     38 C38        -0.5522   49.2711   20.6274 C.3       1 UNK         0.0000 
     39 C39        -0.6871   48.2529   19.5576 C.1       1 UNK         0.0000 
     40 C40        -0.7892   47.4135   18.6745 C.1       1 UNK         0.0000 
     41 O41        -0.5204   48.5333   21.8379 O.3       1 UNK         0.0000 
     42 C42         0.7578   50.8175   19.0125 C.3       1 UNK         0.0000 
     43 H43         4.6450   53.8890   19.7977 H         1 UNK         0.0000 
     44 H44         3.1094   54.4973   20.1411 H         1 UNK         0.0000 
     45 H45         4.5136   55.2113   20.9450 H         1 UNK         0.0000 
     46 H46         5.2846   51.7564   22.4815 H         1 UNK         0.0000 
     47 H47         5.6819   52.3871   21.0012 H         1 UNK         0.0000 
     48 H48         6.5999   54.4590   21.9938 H         1 UNK         0.0000 
     49 H49         7.2079   53.0873   22.8822 H         1 UNK         0.0000 
     50 H50         5.7027   53.1658   26.7438 H         1 UNK         0.0000 
     51 H51         7.0031   54.0780   27.4978 H         1 UNK         0.0000 
     52 H52         3.1892   54.8742   28.8163 H         1 UNK         0.0000 
     53 H53         1.4142   53.7766   29.8863 H         1 UNK         0.0000 
     54 H54        -0.9002   53.0129   30.0597 H         1 UNK         0.0000 
     55 H55        -1.9217   51.6868   28.2191 H         1 UNK         0.0000 
     56 H56        -0.6406   51.2390   26.1574 H         1 UNK         0.0000 
     57 H57         1.7209   51.9585   26.0072 H         1 UNK         0.0000 
     58 H58         3.9154   55.0230   24.8192 H         1 UNK         0.0000 
     59 H59         1.7491   54.8338   24.1879 H         1 UNK         0.0000 
     60 H60         1.6066   55.0965   22.4809 H         1 UNK         0.0000 
     61 H61         0.0972   53.3257   23.3324 H         1 UNK         0.0000 
     62 H62         1.4412   52.3680   23.8118 H         1 UNK         0.0000 
     63 H63         3.9568   50.4895   21.5593 H         1 UNK         0.0000 
     64 H64         2.7361   50.5844   22.8294 H         1 UNK         0.0000 
     65 H65         1.9803   48.8694   21.5513 H         1 UNK         0.0000 
     66 H66         2.6408   49.3283   20.0248 H         1 UNK         0.0000 
     67 H67        -1.3056   52.3374   20.3604 H         1 UNK         0.0000 
     68 H68        -1.7620   52.0408   22.0252 H         1 UNK         0.0000 
     69 H69        -2.2238   50.3807   19.7101 H         1 UNK         0.0000 
     70 H70        -2.5588   49.8826   21.3428 H         1 UNK         0.0000 
     71 H71        -0.8673   46.6910   17.8933 H         1 UNK         0.0000 
     72 H72         0.3338   48.1044   21.8946 H         1 UNK         0.0000 
     73 H73         1.3257   51.7381   18.9196 H         1 UNK         0.0000 
     74 H74         1.2109   50.1014   18.3301 H         1 UNK         0.0000 
     75 H75        -0.2204   51.0515   18.6014 H         1 UNK         0.0000 
@<TRIPOS>BOND
     1    1    2 1    
     2    1   43 1    
     3    1   44 1    
     4    1   45 1    
     5    2   24 1    
     6    2   29 1    
     7    2    3 1    
     8    3    4 1    
     9    3   46 1    
    10    3   47 1    
    11    4    5 1    
    12    4   48 1    
    13    4   49 1    
    14    5    6 2    
    15    5   23 1    
    16    6    7 1    
    17    7    8 1    
    18    8    9 1    
    19    8   50 1    
    20    8   51 1    
    21    9   10 2    
    22    9   11 am   BACKBONE|DICT|INTERRES
    23   11   12 1    
    24   11   52 1    
    25   12   13 1    
    26   12   14 1    
    27   12   20 1    
    28   14   19 ar   
    29   14   15 ar   
    30   15   16 ar   
    31   15   53 1    
    32   16   17 ar   
    33   16   54 1    
    34   17   18 ar   
    35   17   55 1    
    36   18   19 ar   
    37   18   56 1    
    38   19   57 1    
    39   20   21 2    
    40   20   22 1    
    41   23   24 2    
    42   23   58 1    
    43   24   25 1    
    44   25   26 1    
    45   25   59 1    
    46   25   60 1    
    47   26   27 1    
    48   26   61 1    
    49   26   62 1    
    50   27   28 1    
    51   27   34 1    
    52   27   29 1    
    53   29   30 1    
    54   29   31 1    
    55   31   32 1    
    56   31   63 1    
    57   31   64 1    
    58   32   33 1    
    59   32   65 1    
    60   32   66 1    
    61   33   38 1    
    62   33   34 1    
    63   33   42 1    
    64   34   35 1    
    65   34   36 1    
    66   36   37 1    
    67   36   67 1    
    68   36   68 1    
    69   37   38 1    
    70   37   69 1    
    71   37   70 1    
    72   38   39 1    
    73   38   41 1    
    74   39   40 3    
    75   40   71 1    
    76   41   72 1    
    77   42   73 1    
    78   42   74 1    
    79   42   75 1    
@<TRIPOS>SUBSTRUCTURE
     1 UNK         1 GROUP             0       ****    0 ROOT    
