@<TRIPOS>MOLECULE
ZINC20654129_6141
37   39    1
SMALL
USER_CHARGES


@<TRIPOS>ATOM
      1 C1         -0.5135   49.9696   24.5167 C.3       1 UNK         0.0000 
      2 C2         -0.2372   51.2341   25.3584 C.3       1 UNK         0.0000 
      3 C3          0.3150   50.7806   26.7356 C.3       1 UNK         0.0000 
      4 C4          0.9626   51.9322   27.5118 C.2       1 UNK         0.0000 
      5 C5          1.5097   53.0316   26.9224 C.2       1 UNK         0.0000 
      6 C6          2.2353   54.1207   27.7507 C.3       1 UNK         0.0000 
      7 H7          2.2294   55.0787   27.2476 H         1 UNK         0.0000 
      8 C8          1.5345   54.3677   29.0884 C.2       1 UNK         0.0000 
      9 C9          1.0282   53.3712   29.8360 C.2       1 UNK         0.0000 
     10 S10         0.9571   51.6968   29.2806 S.3       1 UNK         0.0000 
     11 N11         0.4342   53.5110   31.0657 N.pl3     1 UNK         0.0000 
     12 C12         1.5044   55.7025   29.5911 C.1       1 UNK         0.0000 
     13 N13         1.5043   56.7602   30.0541 N.1       1 UNK         0.0000 
     14 C14         3.7281   53.8733   27.8693 C.2       1 UNK         0.0000 
     15 C15         4.6286   53.8347   28.9203 C.2       1 UNK         0.0000 
     16 C16         5.9068   53.7264   28.3641 C.2       1 UNK         0.0000 
     17 C17         5.7325   53.6969   26.9960 C.2       1 UNK         0.0000 
     18 O18         4.4143   53.7829   26.6976 O.3       1 UNK         0.0000 
     19 C19         1.5038   53.1787   25.4465 C.2       1 UNK         0.0000 
     20 O20         2.0871   54.0960   24.8712 O.2       1 UNK         0.0000 
     21 C21         0.8536   52.0552   24.6203 C.3       1 UNK         0.0000 
     22 C22        -1.5061   52.0938   25.5692 C.3       1 UNK         0.0000 
     23 H23        -0.8989   50.2262   23.5283 H         1 UNK         0.0000 
     24 H24         0.3875   49.3682   24.3710 H         1 UNK         0.0000 
     25 H25        -1.2551   49.3289   24.9976 H         1 UNK         0.0000 
     26 H26         1.1042   50.0400   26.6038 H         1 UNK         0.0000 
     27 H27        -0.4712   50.2896   27.3139 H         1 UNK         0.0000 
     28 H28         0.3543   54.4133   31.5115 H         1 UNK         0.0000 
     29 H29         0.0033   52.7222   31.5345 H         1 UNK         0.0000 
     30 H30         4.3695   53.9174   29.9652 H         1 UNK         0.0000 
     31 H31         6.8535   53.6970   28.8816 H         1 UNK         0.0000 
     32 H32         6.4089   53.6325   26.1564 H         1 UNK         0.0000 
     33 H33         1.6777   51.3829   24.3828 H         1 UNK         0.0000 
     34 H34         0.5041   52.4624   23.6715 H         1 UNK         0.0000 
     35 H35        -1.8541   52.5299   24.6318 H         1 UNK         0.0000 
     36 H36        -2.3230   51.4916   25.9689 H         1 UNK         0.0000 
     37 H37        -1.3449   52.9080   26.2734 H         1 UNK         0.0000 
@<TRIPOS>BOND
     1    1    2 1    
     2    1   23 1    
     3    1   24 1    
     4    1   25 1    
     5    2   21 1    
     6    2    3 1    
     7    2   22 1    
     8    3    4 1    
     9    3   26 1    
    10    3   27 1    
    11    4   10 1    
    12    4    5 2    
    13    5    6 1    
    14    5   19 1    
    15    6    7 1    
    16    6    8 1    
    17    6   14 1    
    18    8    9 2    
    19    8   12 1    
    20    9   10 1    
    21    9   11 1    
    22   11   28 1    
    23   11   29 1    
    24   12   13 3    
    25   14   18 1    
    26   14   15 2    
    27   15   16 1    
    28   15   30 1    
    29   16   17 2    
    30   16   31 1    
    31   17   18 1    
    32   17   32 1    
    33   19   20 2    
    34   19   21 1    
    35   21   33 1    
    36   21   34 1    
    37   22   35 1    
    38   22   36 1    
    39   22   37 1    
@<TRIPOS>SUBSTRUCTURE
     1 UNK         1 GROUP             0       ****    0 ROOT    
