@<TRIPOS>MOLECULE
ZINC01059993_1057
75   79    1
SMALL
USER_CHARGES


@<TRIPOS>ATOM
      1 C1          1.0733   50.5876   21.9026 C.3       1 UNK         0.0000 
      2 C2         -0.1212   51.4740   22.3003 C.3       1 UNK         0.0000 
      3 O3         -0.2507   51.5575   23.7169 O.3       1 UNK         0.0000 
      4 C4          0.5222   52.3885   24.4586 C.2       1 UNK         0.0000 
      5 O5          1.3108   53.2049   23.9750 O.2       1 UNK         0.0000 
      6 C6          0.3024   52.2315   25.9137 C.2       1 UNK         0.0000 
      7 C7          1.1600   52.8001   26.9054 C.2       1 UNK         0.0000 
      8 C8          0.6961   52.6210   28.2182 C.2       1 UNK         0.0000 
      9 S9         -0.7502   51.6965   28.2722 S.3       1 UNK         0.0000 
     10 C10        -0.7436   51.5117   26.5472 C.2       1 UNK         0.0000 
     11 N11        -1.7229   50.6871   25.9840 N.pl3     1 UNK         0.0000 
     12 C12        -3.0604   51.1342   25.9149 C.2       1 UNK         0.0000 
     13 C13        -4.0372   50.3392   25.3722 C.2       1 UNK         0.0000 
     14 C14        -3.7638   48.8789   24.9381 C.3       1 UNK         0.0000 
     15 H15        -4.0315   48.8112   23.8811 H         1 UNK         0.0000 
     16 C16        -2.2812   48.5406   25.0500 C.2       1 UNK         0.0000 
     17 C17        -1.3656   49.3960   25.5483 C.2       1 UNK         0.0000 
     18 N18        -0.0417   49.0195   25.6818 N.pl3     1 UNK         0.0000 
     19 C19        -1.9200   47.2066   24.7008 C.1       1 UNK         0.0000 
     20 N20        -1.7059   46.1043   24.4338 N.1       1 UNK         0.0000 
     21 C21        -4.6467   47.8203   25.6236 C.ar      1 UNK         0.0000 
     22 C22        -5.6145   47.1086   24.9089 C.ar      1 UNK         0.0000 
     23 C23        -6.3618   46.1113   25.5317 C.ar      1 UNK         0.0000 
     24 C24        -6.1544   45.7978   26.8852 C.ar      1 UNK         0.0000 
     25 C25        -5.1895   46.5105   27.6127 C.ar      1 UNK         0.0000 
     26 C26        -4.4500   47.5192   26.9742 C.ar      1 UNK         0.0000 
     27 O27        -5.0239   46.1673   28.9430 O.3       1 UNK         0.0000 
     28 C28        -4.0002   46.8020   29.7042 C.3       1 UNK         0.0000 
     29 O29        -6.8482   44.8078   27.5615 O.3       1 UNK         0.0000 
     30 C30        -7.8292   44.0415   26.8710 C.3       1 UNK         0.0000 
     31 C31        -5.4149   50.8360   25.1374 C.2       1 UNK         0.0000 
     32 O32        -6.2730   50.1825   24.5454 O.2       1 UNK         0.0000 
     33 C33        -5.7432   52.2484   25.6276 C.3       1 UNK         0.0000 
     34 C34        -4.5385   53.2196   25.5781 C.3       1 UNK         0.0000 
     35 C35        -3.3805   52.5761   26.3835 C.3       1 UNK         0.0000 
     36 C36        -5.0090   54.5190   26.2494 C.3       1 UNK         0.0000 
     37 C37        -4.0983   53.5057   24.1290 C.3       1 UNK         0.0000 
     38 C38         1.3975   53.0918   29.4858 C.3       1 UNK         0.0000 
     39 C39         2.4820   54.1247   29.1199 C.3       1 UNK         0.0000 
     40 C40         3.3322   53.6496   27.9308 C.3       1 UNK         0.0000 
     41 C41         2.4965   53.5103   26.6378 C.3       1 UNK         0.0000 
     42 H42         1.1257   50.4742   20.8181 H         1 UNK         0.0000 
     43 H43         2.0174   51.0239   22.2336 H         1 UNK         0.0000 
     44 H44         0.9886   49.5926   22.3426 H         1 UNK         0.0000 
     45 H45        -1.0396   51.0342   21.9081 H         1 UNK         0.0000 
     46 H46        -0.0369   52.4661   21.8545 H         1 UNK         0.0000 
     47 H47         0.1973   48.0362   25.7162 H         1 UNK         0.0000 
     48 H48         0.6217   49.6474   26.1064 H         1 UNK         0.0000 
     49 H49        -5.7909   47.3243   23.8642 H         1 UNK         0.0000 
     50 H50        -7.0988   45.5889   24.9406 H         1 UNK         0.0000 
     51 H51        -3.6955   48.0748   27.5124 H         1 UNK         0.0000 
     52 H52        -4.0878   46.4997   30.7462 H         1 UNK         0.0000 
     53 H53        -3.0135   46.4977   29.3501 H         1 UNK         0.0000 
     54 H54        -4.0852   47.8899   29.6873 H         1 UNK         0.0000 
     55 H55        -8.2515   43.3040   27.5541 H         1 UNK         0.0000 
     56 H56        -7.3935   43.4993   26.0295 H         1 UNK         0.0000 
     57 H57        -8.6451   44.6694   26.5105 H         1 UNK         0.0000 
     58 H58        -6.0580   52.1229   26.6633 H         1 UNK         0.0000 
     59 H59        -6.6100   52.6226   25.0814 H         1 UNK         0.0000 
     60 H60        -3.6087   52.4964   27.4453 H         1 UNK         0.0000 
     61 H61        -2.5412   53.2565   26.2386 H         1 UNK         0.0000 
     62 H62        -5.8957   54.8967   25.7399 H         1 UNK         0.0000 
     63 H63        -5.3064   54.3763   27.2816 H         1 UNK         0.0000 
     64 H64        -4.2462   55.2965   26.2049 H         1 UNK         0.0000 
     65 H65        -4.8772   54.1141   23.6816 H         1 UNK         0.0000 
     66 H66        -3.1811   54.0944   24.0823 H         1 UNK         0.0000 
     67 H67        -3.9533   52.6096   23.5264 H         1 UNK         0.0000 
     68 H68         0.6906   53.5204   30.1969 H         1 UNK         0.0000 
     69 H69         1.8648   52.2398   29.9809 H         1 UNK         0.0000 
     70 H70         2.0163   55.0808   28.8750 H         1 UNK         0.0000 
     71 H71         3.1189   54.3125   29.9844 H         1 UNK         0.0000 
     72 H72         4.1548   54.3448   27.7602 H         1 UNK         0.0000 
     73 H73         3.7947   52.6909   28.1743 H         1 UNK         0.0000 
     74 H74         3.0872   52.9746   25.8936 H         1 UNK         0.0000 
     75 H75         2.3073   54.4964   26.2179 H         1 UNK         0.0000 
@<TRIPOS>BOND
     1    1    2 1    
     2    1   42 1    
     3    1   43 1    
     4    1   44 1    
     5    2    3 1    
     6    2   45 1    
     7    2   46 1    
     8    3    4 1    
     9    4    5 2    
    10    4    6 1    
    11    6   10 2    
    12    6    7 1    
    13    7   41 1    
    14    7    8 2    
    15    8    9 1    
    16    8   38 1    
    17    9   10 1    
    18   10   11 1    
    19   11   17 1    
    20   11   12 1    
    21   12   35 1    
    22   12   13 2    
    23   13   14 1    
    24   13   31 1    
    25   14   15 1    
    26   14   16 1    
    27   14   21 1    
    28   16   17 2    
    29   16   19 1    
    30   17   18 1    
    31   18   47 1    
    32   18   48 1    
    33   19   20 3    
    34   21   26 ar   
    35   21   22 ar   
    36   22   23 ar   
    37   22   49 1    
    38   23   24 ar   
    39   23   50 1    
    40   24   25 ar   
    41   24   29 1    
    42   25   26 ar   
    43   25   27 1    
    44   26   51 1    
    45   27   28 1    
    46   28   52 1    
    47   28   53 1    
    48   28   54 1    
    49   29   30 1    
    50   30   55 1    
    51   30   56 1    
    52   30   57 1    
    53   31   32 2    
    54   31   33 1    
    55   33   34 1    
    56   33   58 1    
    57   33   59 1    
    58   34   35 1    
    59   34   36 1    
    60   34   37 1    
    61   35   60 1    
    62   35   61 1    
    63   36   62 1    
    64   36   63 1    
    65   36   64 1    
    66   37   65 1    
    67   37   66 1    
    68   37   67 1    
    69   38   39 1    
    70   38   68 1    
    71   38   69 1    
    72   39   40 1    
    73   39   70 1    
    74   39   71 1    
    75   40   41 1    
    76   40   72 1    
    77   40   73 1    
    78   41   74 1    
    79   41   75 1    
@<TRIPOS>SUBSTRUCTURE
     1 UNK         1 GROUP             0       ****    0 ROOT    
