@<TRIPOS>MOLECULE
ZINC33113665_1031
55   57    1
SMALL
USER_CHARGES


@<TRIPOS>ATOM
      1 C1          5.0284   54.7105   29.1075 C.3       1 UNK         0.0000 
      2 C2          5.9710   54.8826   27.9114 C.3       1 UNK         0.0000 
      3 O3          5.2686   54.5216   26.7329 O.3       1 UNK         0.0000 
      4 C4          5.7617   54.7692   25.5087 C.2       1 UNK         0.0000 
      5 O5          6.8551   55.3032   25.3024 O.2       1 UNK         0.0000 
      6 C6          4.8574   54.2970   24.4335 C.2       1 UNK         0.0000 
      7 C7          3.5046   53.7856   24.5971 C.ar      1 UNK         0.0000 
      8 C8          2.6897   53.6976   25.7508 C.ar      1 UNK         0.0000 
      9 C9          1.4125   53.1519   25.6888 C.ar      1 UNK         0.0000 
     10 C10         0.8935   52.6744   24.4976 C.ar      1 UNK         0.0000 
     11 C11         1.6606   52.7032   23.3384 C.ar      1 UNK         0.0000 
     12 C12         2.9356   53.2977   23.3795 C.ar      1 UNK         0.0000 
     13 S13         4.0141   53.5238   22.0335 S.3       1 UNK         0.0000 
     14 C14         5.1886   54.3154   23.0670 C.2       1 UNK         0.0000 
     15 N15         6.3522   54.8976   22.5583 N.am      1 UNK         0.0000 
     16 C16         6.6993   55.2965   21.3147 C.2       1 UNK         0.0000 
     17 O17         7.7274   55.9484   21.1704 O.2       1 UNK         0.0000 
     18 C18         5.8955   54.9535   20.0583 C.3       1 UNK         0.0000 
     19 O19         1.2301   52.1042   22.1760 O.3       1 UNK         0.0000 
     20 C20         1.7586   50.7898   21.9035 C.3       1 UNK         0.0000 
     21 H21         2.7810   50.9134   21.5462 H         1 UNK         0.0000 
     22 C22         1.7704   49.8386   23.1311 C.3       1 UNK         0.0000 
     23 C23         0.9476   50.1234   20.7725 C.2       1 UNK         0.0000 
     24 O24        -0.1475   50.5696   20.4219 O.2       1 UNK         0.0000 
     25 N25         1.5198   49.0207   20.2445 N.am      1 UNK         0.0000 
     26 C26         0.9581   48.1346   19.3147 C.ar      1 UNK         0.0000 
     27 C27         1.7474   47.8490   18.2001 C.ar      1 UNK         0.0000 
     28 C28         1.3096   46.9523   17.2287 C.ar      1 UNK         0.0000 
     29 C29         0.0765   46.3212   17.3742 C.ar      1 UNK         0.0000 
     30 C30        -0.7108   46.5794   18.4964 C.ar      1 UNK         0.0000 
     31 C31        -0.2818   47.4774   19.4808 C.ar      1 UNK         0.0000 
     32 C32        -1.1490   47.6441   20.7232 C.3       1 UNK         0.0000 
     33 Br33       -0.8693   51.9513   24.4728 Br        1 UNK         0.0000 
     34 H34         5.5056   55.0432   30.0279 H         1 UNK         0.0000 
     35 H35         4.1174   55.2947   28.9788 H         1 UNK         0.0000 
     36 H36         4.7447   53.6657   29.2374 H         1 UNK         0.0000 
     37 H37         6.8571   54.2579   28.0300 H         1 UNK         0.0000 
     38 H38         6.3046   55.9178   27.8474 H         1 UNK         0.0000 
     39 H39         3.0208   54.0548   26.7100 H         1 UNK         0.0000 
     40 H40         0.8091   53.0994   26.5846 H         1 UNK         0.0000 
     41 H41         6.9859   55.2159   23.2813 H         1 UNK         0.0000 
     42 H42         4.8658   55.2975   20.1215 H         1 UNK         0.0000 
     43 H43         6.3429   55.4304   19.1865 H         1 UNK         0.0000 
     44 H44         5.8994   53.8791   19.8771 H         1 UNK         0.0000 
     45 H45         2.2567   48.8972   22.8833 H         1 UNK         0.0000 
     46 H46         2.3100   50.2495   23.9787 H         1 UNK         0.0000 
     47 H47         0.7639   49.6052   23.4773 H         1 UNK         0.0000 
     48 H48         2.4997   48.8747   20.4344 H         1 UNK         0.0000 
     49 H49         2.7044   48.3350   18.0801 H         1 UNK         0.0000 
     50 H50         1.9295   46.7555   16.3660 H         1 UNK         0.0000 
     51 H51        -0.2645   45.6264   16.6204 H         1 UNK         0.0000 
     52 H52        -1.6570   46.0697   18.6034 H         1 UNK         0.0000 
     53 H53        -0.5401   47.7867   21.6158 H         1 UNK         0.0000 
     54 H54        -1.8178   48.4988   20.6164 H         1 UNK         0.0000 
     55 H55        -1.7516   46.7540   20.9062 H         1 UNK         0.0000 
@<TRIPOS>BOND
     1    1    2 1    
     2    1   34 1    
     3    1   35 1    
     4    1   36 1    
     5    2    3 1    
     6    2   37 1    
     7    2   38 1    
     8    3    4 1    
     9    4    5 2    
    10    4    6 1    
    11    6   14 2    
    12    6    7 1    
    13    7   12 ar   
    14    7    8 ar   
    15    8    9 ar   
    16    8   39 1    
    17    9   10 ar   
    18    9   40 1    
    19   10   11 ar   
    20   10   33 1    
    21   11   12 ar   
    22   11   19 1    
    23   12   13 1    
    24   13   14 1    
    25   14   15 am   BACKBONE|DICT|INTERRES
    26   15   16 am   BACKBONE|DICT|INTERRES
    27   15   41 1    
    28   16   17 2    
    29   16   18 1    
    30   18   42 1    
    31   18   43 1    
    32   18   44 1    
    33   19   20 1    
    34   20   21 1    
    35   20   22 1    
    36   20   23 1    
    37   22   45 1    
    38   22   46 1    
    39   22   47 1    
    40   23   24 2    
    41   23   25 am   BACKBONE|DICT|INTERRES
    42   25   26 1    
    43   25   48 1    
    44   26   31 ar   
    45   26   27 ar   
    46   27   28 ar   
    47   27   49 1    
    48   28   29 ar   
    49   28   50 1    
    50   29   30 ar   
    51   29   51 1    
    52   30   31 ar   
    53   30   52 1    
    54   31   32 1    
    55   32   53 1    
    56   32   54 1    
    57   32   55 1    
@<TRIPOS>SUBSTRUCTURE
     1 UNK         1 GROUP             0       ****    0 ROOT    
