@<TRIPOS>MOLECULE
ZINC15268650_2711
63   65    1
SMALL
USER_CHARGES


@<TRIPOS>ATOM
      1 C1          6.3773   54.4614   22.8727 C.3       1 UNK         0.0000 
      2 C2          5.2027   54.2558   23.8149 C.ar      1 UNK         0.0000 
      3 C3          5.4443   54.3403   25.1768 C.ar      1 UNK         0.0000 
      4 C4          4.4333   54.0937   26.0934 C.ar      1 UNK         0.0000 
      5 C5          3.1581   53.6968   25.6427 C.ar      1 UNK         0.0000 
      6 C6          2.8865   53.5764   24.2507 C.ar      1 UNK         0.0000 
      7 C7          3.9194   53.9284   23.3415 C.ar      1 UNK         0.0000 
      8 C8          3.6716   54.0358   21.8398 C.3       1 UNK         0.0000 
      9 S9          1.3005   52.8260   23.6417 S.o2      1 UNK         0.0000 
     10 O10         1.4346   52.4711   22.2251 O.2       1 UNK         0.0000 
     11 O11         0.2139   53.7001   24.0817 O.2       1 UNK         0.0000 
     12 N12         1.0942   51.2737   24.4922 N.pl3     1 UNK         0.0000 
     13 C13         1.5621   50.0184   23.8454 C.3       1 UNK         0.0000 
     14 C14         0.4187   49.0313   23.5567 C.3       1 UNK         0.0000 
     15 C15        -0.4519   48.8246   24.8185 C.3       1 UNK         0.0000 
     16 C16        -1.0285   50.1636   25.3350 C.3       1 UNK         0.0000 
     17 C17         0.1346   51.1321   25.6315 C.3       1 UNK         0.0000 
     18 C18        -1.5754   47.7848   24.5964 C.2       1 UNK         0.0000 
     19 O19        -1.6972   47.2306   23.5007 O.2       1 UNK         0.0000 
     20 N20        -2.3014   47.4387   25.6817 N.am      1 UNK         0.0000 
     21 C21        -3.3592   46.5163   25.7321 C.ar      1 UNK         0.0000 
     22 C22        -4.2315   46.2708   24.6602 C.ar      1 UNK         0.0000 
     23 C23        -5.2430   45.3202   24.7873 C.ar      1 UNK         0.0000 
     24 C24        -5.3900   44.6066   25.9783 C.ar      1 UNK         0.0000 
     25 C25        -4.5496   44.8970   27.0600 C.ar      1 UNK         0.0000 
     26 C26        -3.5419   45.8468   26.9387 C.ar      1 UNK         0.0000 
     27 N27        -6.4149   43.6417   26.0240 N.am      1 UNK         0.0000 
     28 C28        -6.5254   42.5708   26.8386 C.2       1 UNK         0.0000 
     29 O29        -5.6980   42.2336   27.6819 O.2       1 UNK         0.0000 
     30 C30        -7.7808   41.7245   26.6539 C.3       1 UNK         0.0000 
     31 C31         2.0864   53.4637   26.7001 C.3       1 UNK         0.0000 
     32 C32         4.7830   54.2040   27.5751 C.3       1 UNK         0.0000 
     33 H33         6.3055   53.7166   22.0816 H         1 UNK         0.0000 
     34 H34         6.3643   55.4561   22.4258 H         1 UNK         0.0000 
     35 H35         7.3382   54.2985   23.3630 H         1 UNK         0.0000 
     36 H36         6.4330   54.5966   25.5276 H         1 UNK         0.0000 
     37 H37         4.3562   54.7092   21.3274 H         1 UNK         0.0000 
     38 H38         3.7047   53.0632   21.3488 H         1 UNK         0.0000 
     39 H39         2.7045   54.4963   21.6820 H         1 UNK         0.0000 
     40 H40         2.3042   49.5578   24.4815 H         1 UNK         0.0000 
     41 H41         2.0862   50.2591   22.9227 H         1 UNK         0.0000 
     42 H42         0.9039   48.1001   23.2816 H         1 UNK         0.0000 
     43 H43        -0.1583   49.4468   22.7292 H         1 UNK         0.0000 
     44 H44         0.1231   48.3994   25.6457 H         1 UNK         0.0000 
     45 H45        -1.6439   50.6518   24.5762 H         1 UNK         0.0000 
     46 H46        -1.5754   50.0499   26.2747 H         1 UNK         0.0000 
     47 H47         0.6948   50.8121   26.5107 H         1 UNK         0.0000 
     48 H48        -0.2835   52.1062   25.8736 H         1 UNK         0.0000 
     49 H49        -1.9868   47.7844   26.5881 H         1 UNK         0.0000 
     50 H50        -4.1356   46.8135   23.7294 H         1 UNK         0.0000 
     51 H51        -5.9028   45.1366   23.9503 H         1 UNK         0.0000 
     52 H52        -4.6442   44.3838   28.0036 H         1 UNK         0.0000 
     53 H53        -2.8908   46.0375   27.7828 H         1 UNK         0.0000 
     54 H54        -7.1243   43.7352   25.3149 H         1 UNK         0.0000 
     55 H55        -7.6586   41.0474   25.8072 H         1 UNK         0.0000 
     56 H56        -8.6575   42.3512   26.4757 H         1 UNK         0.0000 
     57 H57        -7.9713   41.1242   27.5470 H         1 UNK         0.0000 
     58 H58         2.1940   54.1417   27.5449 H         1 UNK         0.0000 
     59 H59         1.1026   53.6942   26.3248 H         1 UNK         0.0000 
     60 H60         2.1283   52.4460   27.0825 H         1 UNK         0.0000 
     61 H61         5.8552   54.3127   27.7441 H         1 UNK         0.0000 
     62 H62         4.2758   55.0545   28.0300 H         1 UNK         0.0000 
     63 H63         4.4734   53.3038   28.1073 H         1 UNK         0.0000 
@<TRIPOS>BOND
     1    1    2 1    
     2    1   33 1    
     3    1   34 1    
     4    1   35 1    
     5    2    7 ar   
     6    2    3 ar   
     7    3    4 ar   
     8    3   36 1    
     9    4    5 ar   
    10    4   32 1    
    11    5    6 ar   
    12    5   31 1    
    13    6    7 ar   
    14    6    9 1    
    15    7    8 1    
    16    8   37 1    
    17    8   38 1    
    18    8   39 1    
    19    9   10 2    
    20    9   11 2    
    21    9   12 1    
    22   12   17 1    
    23   12   13 1    
    24   13   14 1    
    25   13   40 1    
    26   13   41 1    
    27   14   15 1    
    28   14   42 1    
    29   14   43 1    
    30   15   16 1    
    31   15   18 1    
    32   15   44 1    
    33   16   17 1    
    34   16   45 1    
    35   16   46 1    
    36   17   47 1    
    37   17   48 1    
    38   18   19 2    
    39   18   20 am   BACKBONE|DICT|INTERRES
    40   20   21 1    
    41   20   49 1    
    42   21   26 ar   
    43   21   22 ar   
    44   22   23 ar   
    45   22   50 1    
    46   23   24 ar   
    47   23   51 1    
    48   24   25 ar   
    49   24   27 1    
    50   25   26 ar   
    51   25   52 1    
    52   26   53 1    
    53   27   28 am   BACKBONE|DICT|INTERRES
    54   27   54 1    
    55   28   29 2    
    56   28   30 1    
    57   30   55 1    
    58   30   56 1    
    59   30   57 1    
    60   31   58 1    
    61   31   59 1    
    62   31   60 1    
    63   32   61 1    
    64   32   62 1    
    65   32   63 1    
@<TRIPOS>SUBSTRUCTURE
     1 UNK         1 GROUP             0       ****    0 ROOT    
