ZINC49413776_3839
                    3D
 Schrodinger Suite 2024-2.
 37 38  0  0  1  0            999 V2000
    4.6991   52.3776   29.5492 C   0  0  0  0  0  0
    3.2063   52.4936   29.4600 C   0  0  0  0  0  0
    2.2057   51.7387   28.8821 C   0  0  0  0  0  0
    0.9845   52.3867   29.1004 C   0  0  0  0  0  0
    1.3189   53.5040   29.8674 C   0  0  0  0  0  0
    2.6549   53.5601   30.0800 O   0  0  0  0  0  0
    0.5235   54.6254   30.4813 C   0  0  0  0  0  0
   -0.3990   51.9823   28.6042 C   0  0  2  0  0  0
   -0.8947   52.8702   28.2084 H   0  0  0  0  0  0
   -1.2686   51.4644   29.7587 C   0  0  0  0  0  0
   -0.3705   50.9894   27.5219 N   0  0  0  0  0  0
    0.0858   51.2017   26.2770 C   0  0  0  0  0  0
    0.5823   52.2655   25.9055 O   0  0  0  0  0  0
   -0.0871   50.1126   25.5044 N   0  0  0  0  0  0
    0.2451   49.9656   24.1439 C   0  0  0  0  0  0
   -0.5399   49.0871   23.3889 C   0  0  0  0  0  0
   -0.2800   48.8974   22.0303 C   0  0  0  0  0  0
    0.7865   49.5605   21.4223 C   0  0  0  0  0  0
    1.5894   50.4203   22.1705 C   0  0  0  0  0  0
    1.3192   50.6281   23.5245 C   0  0  0  0  0  0
    3.0507   51.3092   21.3332 Br  0  0  0  0  0  0
    5.0996   51.6239   28.8814 H   0  0  0  0  0  0
    5.0002   52.0963   30.5546 H   0  0  0  0  0  0
    5.1869   53.3156   29.2821 H   0  0  0  0  0  0
    2.3235   50.8267   28.3191 H   0  0  0  0  0  0
    0.8349   55.5991   30.1039 H   0  0  0  0  0  0
   -0.5328   54.5090   30.2585 H   0  0  0  0  0  0
    0.6258   54.6467   31.5671 H   0  0  0  0  0  0
   -1.2950   52.1638   30.5906 H   0  0  0  0  0  0
   -2.2929   51.2803   29.4320 H   0  0  0  0  0  0
   -0.8958   50.5286   30.1651 H   0  0  0  0  0  0
   -0.9497   50.1728   27.6788 H   0  0  0  0  0  0
   -0.5816   49.3366   25.9193 H   0  0  0  0  0  0
   -1.3663   48.5628   23.8475 H   0  0  0  0  0  0
   -0.8991   48.2292   21.4509 H   0  0  0  0  0  0
    0.9963   49.4082   20.3738 H   0  0  0  0  0  0
    1.9563   51.2973   24.0833 H   0  0  0  0  0  0
  1  2  1  0  0  0
  1 22  1  0  0  0
  1 23  1  0  0  0
  1 24  1  0  0  0
  2  6  1  0  0  0
  2  3  2  0  0  0
  3  4  1  0  0  0
  3 25  1  0  0  0
  4  5  2  0  0  0
  4  8  1  0  0  0
  5  6  1  0  0  0
  5  7  1  0  0  0
  7 26  1  0  0  0
  7 27  1  0  0  0
  7 28  1  0  0  0
  8  9  1  0  0  0
  8 10  1  0  0  0
  8 11  1  0  0  0
 10 29  1  0  0  0
 10 30  1  0  0  0
 10 31  1  0  0  0
 11 12  1  0  0  0
 11 32  1  0  0  0
 12 13  2  0  0  0
 12 14  1  0  0  0
 14 15  1  0  0  0
 14 33  1  0  0  0
 15 20  2  0  0  0
 15 16  1  0  0  0
 16 17  2  0  0  0
 16 34  1  0  0  0
 17 18  1  0  0  0
 17 35  1  0  0  0
 18 19  2  0  0  0
 18 36  1  0  0  0
 19 20  1  0  0  0
 19 21  1  0  0  0
 20 37  1  0  0  0
M  END
> <i_i_glide_confnum>
3

> <i_i_glide_lignum>
3840

> <i_i_glide_posenum>
291

> <i_i_glide_rotatable_bonds>
5

> <i_m_Source_File_Index>
5574

> <b_m_subgroup_collapsed>
0

> <r_i_docking_score>
-4.38172

> <r_i_glide_ecoul>
-3.89353

> <r_i_glide_eff_state_penalty>
0

> <r_i_glide_einternal>
3.28754

> <r_i_glide_emodel>
-39.227

> <r_i_glide_energy>
-30.2988

> <r_i_glide_erotb>
0.664709

> <r_i_glide_esite>
-0.146013

> <r_i_glide_evdw>
-26.4053

> <r_i_glide_gscore>
-4.38172

> <r_i_glide_hbond>
-0.456

> <r_i_glide_ligand_efficiency>
-0.219086

> <r_i_glide_ligand_efficiency_ln>
-1.0966

> <r_i_glide_ligand_efficiency_sa>
-0.594691

> <r_i_glide_lipo>
-1.46573

> <r_i_glide_metal>
0

> <r_i_glide_rewards>
-1.0744

> <s_i_glide_gridfile>
wee1_glide-grid

> <s_m_Source_File>
wee1_decoys_glide_SP.sdf

> <s_m_Source_Path>
/Users/zhangxujun/Desktop

> <s_m_entry_id>
5849

> <s_m_entry_name>
wee1_decoys_glide_SP.5574

> <s_m_subgroup_title>
wee1_decoys_glide_SP

> <s_m_subgroupid>
wee1_decoys_glide_SP


$$$$
