@<TRIPOS>MOLECULE
ZINC39691162_3695
65   68    1
SMALL
USER_CHARGES


@<TRIPOS>ATOM
      1 C1          4.9625   53.5951   21.7416 C.3       1 UNK         0.0000 
      2 C2          5.2245   54.1816   23.1220 C.ar      1 UNK         0.0000 
      3 C3          6.4312   54.8497   23.3516 C.ar      1 UNK         0.0000 
      4 C4          6.7047   55.4028   24.6010 C.ar      1 UNK         0.0000 
      5 C5          5.7859   55.2882   25.6387 C.ar      1 UNK         0.0000 
      6 C6          4.5777   54.6332   25.4188 C.ar      1 UNK         0.0000 
      7 C7          4.2840   54.0865   24.1654 C.ar      1 UNK         0.0000 
      8 C8          2.9786   53.3178   24.0013 C.3       1 UNK         0.0000 
      9 C9          1.8071   54.1673   23.5033 C.3       1 UNK         0.0000 
     10 N10         0.5266   53.4935   23.6805 N.am      1 UNK         0.0000 
     11 C11         0.0679   52.4969   22.8921 C.2       1 UNK         0.0000 
     12 O12         0.7269   52.0237   21.9702 O.2       1 UNK         0.0000 
     13 C13        -1.3342   51.9078   23.1823 C.3       1 UNK         0.0000 
     14 H14        -1.7573   51.6271   22.2149 H         1 UNK         0.0000 
     15 C15        -2.2945   52.9725   23.7635 C.3       1 UNK         0.0000 
     16 N16        -3.1513   52.2076   24.6735 N.am      1 UNK         0.0000 
     17 C17        -2.7990   50.7811   24.6829 C.3       1 UNK         0.0000 
     18 C18        -1.3361   50.7351   24.1875 C.3       1 UNK         0.0000 
     19 C19        -0.3375   50.9460   25.3748 C.3       1 UNK         0.0000 
     20 C20        -0.4209   49.8244   26.4101 C.3       1 UNK         0.0000 
     21 N21        -0.1310   48.4971   25.6817 N.4       1 UNK         0.0000 
     22 C22        -1.0567   48.2180   24.4796 C.3       1 UNK         0.0000 
     23 C23        -0.9229   49.4049   23.5134 C.3       1 UNK         0.0000 
     24 C24        -4.1778   52.7974   25.3420 C.2       1 UNK         0.0000 
     25 O25        -4.4903   53.9777   25.1596 O.2       1 UNK         0.0000 
     26 C26        -4.9694   51.9897   26.3428 C.ar      1 UNK         0.0000 
     27 C27        -6.3676   51.9818   26.2705 C.ar      1 UNK         0.0000 
     28 C28        -7.1193   51.2626   27.1989 C.ar      1 UNK         0.0000 
     29 C29        -6.4882   50.5534   28.2192 C.ar      1 UNK         0.0000 
     30 C30        -5.0908   50.5695   28.3230 C.ar      1 UNK         0.0000 
     31 C31        -4.3423   51.2961   27.3911 C.ar      1 UNK         0.0000 
     32 C32        -4.3778   49.8020   29.4260 C.3       1 UNK         0.0000 
     33 Br33       -7.5651   49.5834   29.4603 Br        1 UNK         0.0000 
     34 H34         4.9775   52.5054   21.7798 H         1 UNK         0.0000 
     35 H35         3.9827   53.9026   21.3718 H         1 UNK         0.0000 
     36 H36         5.6964   53.9315   21.0060 H         1 UNK         0.0000 
     37 H37         7.1681   54.9440   22.5655 H         1 UNK         0.0000 
     38 H38         7.6350   55.9242   24.7584 H         1 UNK         0.0000 
     39 H39         6.0094   55.6964   26.6132 H         1 UNK         0.0000 
     40 H40         3.8715   54.5436   26.2319 H         1 UNK         0.0000 
     41 H41         3.1043   52.4782   23.3219 H         1 UNK         0.0000 
     42 H42         2.7268   52.8567   24.9580 H         1 UNK         0.0000 
     43 H43         1.7729   55.0883   24.0832 H         1 UNK         0.0000 
     44 H44         1.9731   54.5226   22.4835 H         1 UNK         0.0000 
     45 H45        -0.0501   53.8205   24.4414 H         1 UNK         0.0000 
     46 H46        -1.7876   53.6967   24.3991 H         1 UNK         0.0000 
     47 H47        -2.8721   53.4541   22.9743 H         1 UNK         0.0000 
     48 H48        -3.4324   50.2996   23.9357 H         1 UNK         0.0000 
     49 H49        -2.9653   50.2219   25.5986 H         1 UNK         0.0000 
     50 H50         0.6954   51.0304   25.0333 H         1 UNK         0.0000 
     51 H51        -0.5535   51.8860   25.8825 H         1 UNK         0.0000 
     52 H52         0.3297   49.9226   27.1949 H         1 UNK         0.0000 
     53 H53        -1.3997   49.7282   26.8772 H         1 UNK         0.0000 
     54 H54         0.8330   48.4871   25.3709 H         1 UNK         0.0000 
     55 H55        -0.7143   47.2813   24.0405 H         1 UNK         0.0000 
     56 H56        -2.0623   48.0815   24.8802 H         1 UNK         0.0000 
     57 H57        -1.5725   49.2149   22.6579 H         1 UNK         0.0000 
     58 H58         0.0855   49.4665   23.0988 H         1 UNK         0.0000 
     59 H59        -6.8796   52.5227   25.4862 H         1 UNK         0.0000 
     60 H60        -8.1970   51.2565   27.1264 H         1 UNK         0.0000 
     61 H61        -3.2666   51.3267   27.4976 H         1 UNK         0.0000 
     62 H62        -4.6866   48.7552   29.4175 H         1 UNK         0.0000 
     63 H63        -3.2949   49.8137   29.3096 H         1 UNK         0.0000 
     64 H64        -4.6290   50.2128   30.4048 H         1 UNK         0.0000 
     65 H65        -0.1985   47.7402   26.3596 H         1 UNK         0.0000 
@<TRIPOS>BOND
     1    1    2 1    
     2    1   34 1    
     3    1   35 1    
     4    1   36 1    
     5    2    7 ar   
     6    2    3 ar   
     7    3    4 ar   
     8    3   37 1    
     9    4    5 ar   
    10    4   38 1    
    11    5    6 ar   
    12    5   39 1    
    13    6    7 ar   
    14    6   40 1    
    15    7    8 1    
    16    8    9 1    
    17    8   41 1    
    18    8   42 1    
    19    9   10 1    
    20    9   43 1    
    21    9   44 1    
    22   10   11 am   BACKBONE|DICT|INTERRES
    23   10   45 1    
    24   11   12 2    
    25   11   13 1    
    26   13   14 1    
    27   13   18 1    
    28   13   15 1    
    29   15   16 1    
    30   15   46 1    
    31   15   47 1    
    32   16   17 1    
    33   16   24 am   BACKBONE|DICT|INTERRES
    34   17   18 1    
    35   17   48 1    
    36   17   49 1    
    37   18   23 1    
    38   18   19 1    
    39   19   20 1    
    40   19   50 1    
    41   19   51 1    
    42   20   21 1    
    43   20   52 1    
    44   20   53 1    
    45   21   22 1    
    46   21   54 1    
    47   21   65 1    
    48   22   23 1    
    49   22   55 1    
    50   22   56 1    
    51   23   57 1    
    52   23   58 1    
    53   24   25 2    
    54   24   26 1    
    55   26   31 ar   
    56   26   27 ar   
    57   27   28 ar   
    58   27   59 1    
    59   28   29 ar   
    60   28   60 1    
    61   29   30 ar   
    62   29   33 1    
    63   30   31 ar   
    64   30   32 1    
    65   31   61 1    
    66   32   62 1    
    67   32   63 1    
    68   32   64 1    
@<TRIPOS>SUBSTRUCTURE
     1 UNK         1 GROUP             0       ****    0 ROOT    
