@<TRIPOS>MOLECULE
ZINC39529487_5350
53   55    1
SMALL
USER_CHARGES


@<TRIPOS>ATOM
      1 C1          1.7294   52.4085   28.9893 C.3       1 UNK         0.0000 
      2 C2          1.3485   53.5299   27.9937 C.3       1 UNK         0.0000 
      3 C3          1.6197   54.9384   28.5550 C.3       1 UNK         0.0000 
      4 C4          1.8202   53.2974   26.5213 C.3       1 UNK         0.0000 
      5 C5          3.2526   53.6653   26.0635 C.ar      1 UNK         0.0000 
      6 C6          4.2580   53.6967   27.0411 C.ar      1 UNK         0.0000 
      7 C7          5.5814   53.9688   26.7238 C.ar      1 UNK         0.0000 
      8 C8          5.9185   54.3292   25.4339 C.ar      1 UNK         0.0000 
      9 C9          4.9445   54.3054   24.4479 C.ar      1 UNK         0.0000 
     10 C10         3.6124   53.9027   24.6950 C.ar      1 UNK         0.0000 
     11 N11         2.7796   53.7097   23.5677 N.pl3     1 UNK         0.0000 
     12 C12         1.6060   52.8119   23.4838 C.3       1 UNK         0.0000 
     13 C13         1.6250   51.7919   22.3274 C.3       1 UNK         0.0000 
     14 N14         1.8475   52.4957   20.9836 N.4       1 UNK         0.0000 
     15 C15         3.0911   53.3898   21.0236 C.3       1 UNK         0.0000 
     16 H16         3.1049   53.9090   20.0674 H         1 UNK         0.0000 
     17 C17         3.0163   54.3355   22.2444 C.3       1 UNK         0.0000 
     18 S18         4.6272   52.2647   20.9414 S.3       1 UNK         0.0000 
     19 O19         5.5037   52.5074   22.0860 O.2       1 UNK         0.0000 
     20 O20         4.1900   50.8998   20.6346 O.2       1 UNK         0.0000 
     21 O21         5.3651   52.8968   19.5734 O.3       1 UNK         0.0000 
     22 C22         5.6051   54.2426   19.4453 C.ar      1 UNK         0.0000 
     23 C23         5.1755   54.8716   18.2761 C.ar      1 UNK         0.0000 
     24 C24         5.4238   56.2283   18.0775 C.ar      1 UNK         0.0000 
     25 C25         6.1096   56.9492   19.0519 C.ar      1 UNK         0.0000 
     26 C26         6.5409   56.3286   20.2225 C.ar      1 UNK         0.0000 
     27 C27         6.2958   54.9736   20.4167 C.ar      1 UNK         0.0000 
     28 I28         7.0867   53.7066   28.1450 I         1 UNK         0.0000 
     29 H29         2.7758   52.4156   29.2869 H         1 UNK         0.0000 
     30 H30         1.5078   51.4226   28.5802 H         1 UNK         0.0000 
     31 H31         1.1457   52.5025   29.9059 H         1 UNK         0.0000 
     32 H32         0.2607   53.4623   27.9379 H         1 UNK         0.0000 
     33 H33         2.6831   55.1571   28.6563 H         1 UNK         0.0000 
     34 H34         1.1799   55.6964   27.9100 H         1 UNK         0.0000 
     35 H35         1.1680   55.0618   29.5399 H         1 UNK         0.0000 
     36 H36         1.6945   52.2307   26.3395 H         1 UNK         0.0000 
     37 H37         1.1066   53.8149   25.8797 H         1 UNK         0.0000 
     38 H38         4.0485   53.4506   28.0637 H         1 UNK         0.0000 
     39 H39         6.9438   54.5513   25.1745 H         1 UNK         0.0000 
     40 H40         5.3117   54.5144   23.4594 H         1 UNK         0.0000 
     41 H41         1.4668   52.2112   24.3709 H         1 UNK         0.0000 
     42 H42         0.7395   53.4689   23.3958 H         1 UNK         0.0000 
     43 H43         2.4234   51.0585   22.4418 H         1 UNK         0.0000 
     44 H44         0.6774   51.2623   22.2285 H         1 UNK         0.0000 
     45 H45         1.9457   51.8089   20.2456 H         1 UNK         0.0000 
     46 H46         2.1808   55.0099   22.0851 H         1 UNK         0.0000 
     47 H47         3.8679   55.0067   22.2212 H         1 UNK         0.0000 
     48 H48         4.6583   54.3005   17.5179 H         1 UNK         0.0000 
     49 H49         5.0955   56.7144   17.1700 H         1 UNK         0.0000 
     50 H50         6.3046   58.0011   18.8910 H         1 UNK         0.0000 
     51 H51         7.0717   56.8865   20.9768 H         1 UNK         0.0000 
     52 H52         6.6567   54.4993   21.3163 H         1 UNK         0.0000 
     53 H53         1.0492   53.0747   20.7571 H         1 UNK         0.0000 
@<TRIPOS>BOND
     1    1    2 1    
     2    1   29 1    
     3    1   30 1    
     4    1   31 1    
     5    2    3 1    
     6    2    4 1    
     7    2   32 1    
     8    3   33 1    
     9    3   34 1    
    10    3   35 1    
    11    4    5 1    
    12    4   36 1    
    13    4   37 1    
    14    5   10 ar   
    15    5    6 ar   
    16    6    7 ar   
    17    6   38 1    
    18    7    8 ar   
    19    7   28 1    
    20    8    9 ar   
    21    8   39 1    
    22    9   10 ar   
    23    9   40 1    
    24   10   11 1    
    25   11   17 1    
    26   11   12 1    
    27   12   13 1    
    28   12   41 1    
    29   12   42 1    
    30   13   14 1    
    31   13   43 1    
    32   13   44 1    
    33   14   15 1    
    34   14   45 1    
    35   14   53 1    
    36   15   16 1    
    37   15   17 1    
    38   15   18 1    
    39   17   46 1    
    40   17   47 1    
    41   18   19 2    
    42   18   20 2    
    43   18   21 1    
    44   21   22 1    
    45   22   27 ar   
    46   22   23 ar   
    47   23   24 ar   
    48   23   48 1    
    49   24   25 ar   
    50   24   49 1    
    51   25   26 ar   
    52   25   50 1    
    53   26   27 ar   
    54   26   51 1    
    55   27   52 1    
@<TRIPOS>SUBSTRUCTURE
     1 UNK         1 GROUP             0       ****    0 ROOT    
