ZINC39675311_2206
                    3D
 Schrodinger Suite 2024-2.
 72 75  0  0  1  0            999 V2000
   -7.8912   50.6123   28.1760 C   0  0  0  0  0  0
   -6.8338   51.2536   27.2928 C   0  0  0  0  0  0
   -7.1978   51.8466   26.0813 C   0  0  0  0  0  0
   -6.2338   52.4508   25.2753 C   0  0  0  0  0  0
   -4.8869   52.4548   25.6603 C   0  0  0  0  0  0
   -4.5299   51.8723   26.8834 C   0  0  0  0  0  0
   -5.4948   51.2798   27.6963 C   0  0  0  0  0  0
   -5.1240   50.7371   28.8784 F   0  0  0  0  0  0
   -3.8674   53.1604   24.8029 C   0  0  0  0  0  0
   -4.0956   54.3261   24.4741 O   0  0  0  0  0  0
   -2.7465   52.4950   24.4165 N   0  0  0  0  0  0
   -1.7293   53.1126   23.5637 C   0  0  0  0  0  0
   -0.9177   51.9162   23.0169 C   0  0  2  0  0  0
   -1.3974   51.5234   22.1190 H   0  0  0  0  0  0
   -0.9936   50.8853   24.1723 C   0  0  0  0  0  0
   -2.4623   51.0742   24.6286 C   0  0  0  0  0  0
    0.0068   51.1990   25.3364 C   0  0  0  0  0  0
   -0.2130   50.2978   26.5545 C   0  0  0  0  0  0
   -0.0968   48.8366   26.0816 N   0  3  0  0  0  0
   -0.9508   48.4436   24.8564 C   0  0  0  0  0  0
   -0.6533   49.4440   23.7271 C   0  0  0  0  0  0
    0.5327   52.3434   22.6662 C   0  0  0  0  0  0
    1.0784   53.2608   23.2794 O   0  0  0  0  0  0
    1.1313   51.6623   21.6691 N   0  0  0  0  0  0
    2.5465   51.7422   21.2835 C   0  0  1  0  0  0
    3.1207   51.4751   22.1695 H   0  0  0  0  0  0
    2.8584   50.6455   20.2518 C   0  0  0  0  0  0
    2.9952   53.1435   20.7876 C   0  0  0  0  0  0
    4.5112   53.4437   20.8223 C   0  0  0  0  0  0
    5.0509   53.9889   22.1477 C   0  0  0  0  0  0
    4.4472   53.6971   23.3767 C   0  0  0  0  0  0
    4.9983   54.1571   24.5673 C   0  0  0  0  0  0
    6.1508   54.9486   24.5448 C   0  0  0  0  0  0
    6.7045   55.2968   23.3158 C   0  0  0  0  0  0
    6.1787   54.8092   22.1258 C   0  0  0  0  0  0
    6.7924   55.4266   25.6684 O   0  0  0  0  0  0
    6.3964   54.9354   26.9423 C   0  0  0  0  0  0
   -8.9018   50.8920   27.8744 H   0  0  0  0  0  0
   -7.7990   49.5261   28.1512 H   0  0  0  0  0  0
   -7.7642   50.9311   29.2119 H   0  0  0  0  0  0
   -8.2300   51.8438   25.7611 H   0  0  0  0  0  0
   -6.5418   52.9143   24.3465 H   0  0  0  0  0  0
   -3.5078   51.8960   27.2323 H   0  0  0  0  0  0
   -1.1072   53.7028   24.2337 H   0  0  0  0  0  0
   -2.1582   53.6966   22.7543 H   0  0  0  0  0  0
   -3.1073   50.5193   23.9455 H   0  0  0  0  0  0
   -2.6811   50.6698   25.6135 H   0  0  0  0  0  0
    1.0475   51.1400   25.0139 H   0  0  0  0  0  0
   -0.1272   52.2267   25.6773 H   0  0  0  0  0  0
    0.5559   50.4368   27.3147 H   0  0  0  0  0  0
   -1.1861   50.4023   27.0349 H   0  0  0  0  0  0
    0.8712   48.6069   25.9006 H   0  0  0  0  0  0
   -0.6621   47.4214   24.6067 H   0  0  0  0  0  0
   -1.9894   48.4476   25.1904 H   0  0  0  0  0  0
   -1.2793   49.1694   22.8762 H   0  0  0  0  0  0
    0.3767   49.3618   23.3725 H   0  0  0  0  0  0
    0.5922   50.9668   21.1767 H   0  0  0  0  0  0
    3.9000   50.6912   19.9325 H   0  0  0  0  0  0
    2.7045   49.6464   20.6619 H   0  0  0  0  0  0
    2.2595   50.7559   19.3469 H   0  0  0  0  0  0
    2.5243   53.9201   21.3821 H   0  0  0  0  0  0
    2.6202   53.2956   19.7745 H   0  0  0  0  0  0
    4.7005   54.2026   20.0608 H   0  0  0  0  0  0
    5.0969   52.5738   20.5228 H   0  0  0  0  0  0
    3.5547   53.1003   23.4400 H   0  0  0  0  0  0
    4.5184   53.8868   25.4940 H   0  0  0  0  0  0
    7.5690   55.9417   23.2865 H   0  0  0  0  0  0
    6.6523   55.0690   21.1895 H   0  0  0  0  0  0
    7.1048   55.2964   27.6817 H   0  0  0  0  0  0
    6.4124   53.8446   26.9830 H   0  0  0  0  0  0
    5.4052   55.2950   27.2209 H   0  0  0  0  0  0
   -0.3819   48.2524   26.8677 H   0  0  0  0  0  0
  1  2  1  0  0  0
  1 38  1  0  0  0
  1 39  1  0  0  0
  1 40  1  0  0  0
  2  7  2  0  0  0
  2  3  1  0  0  0
  3  4  2  0  0  0
  3 41  1  0  0  0
  4  5  1  0  0  0
  4 42  1  0  0  0
  5  6  2  0  0  0
  5  9  1  0  0  0
  6  7  1  0  0  0
  6 43  1  0  0  0
  7  8  1  0  0  0
  9 10  2  0  0  0
  9 11  1  0  0  0
 11 16  1  0  0  0
 11 12  1  0  0  0
 12 13  1  0  0  0
 12 44  1  0  0  0
 12 45  1  0  0  0
 13 14  1  0  0  0
 13 15  1  0  0  0
 13 22  1  0  0  0
 15 21  1  0  0  0
 15 16  1  0  0  0
 15 17  1  0  0  0
 16 46  1  0  0  0
 16 47  1  0  0  0
 17 18  1  0  0  0
 17 48  1  0  0  0
 17 49  1  0  0  0
 18 19  1  0  0  0
 18 50  1  0  0  0
 18 51  1  0  0  0
 19 20  1  0  0  0
 19 52  1  0  0  0
 19 72  1  0  0  0
 20 21  1  0  0  0
 20 53  1  0  0  0
 20 54  1  0  0  0
 21 55  1  0  0  0
 21 56  1  0  0  0
 22 23  2  0  0  0
 22 24  1  0  0  0
 24 25  1  0  0  0
 24 57  1  0  0  0
 25 26  1  0  0  0
 25 27  1  0  0  0
 25 28  1  0  0  0
 27 58  1  0  0  0
 27 59  1  0  0  0
 27 60  1  0  0  0
 28 29  1  0  0  0
 28 61  1  0  0  0
 28 62  1  0  0  0
 29 30  1  0  0  0
 29 63  1  0  0  0
 29 64  1  0  0  0
 30 35  2  0  0  0
 30 31  1  0  0  0
 31 32  2  0  0  0
 31 65  1  0  0  0
 32 33  1  0  0  0
 32 66  1  0  0  0
 33 34  2  0  0  0
 33 36  1  0  0  0
 34 35  1  0  0  0
 34 67  1  0  0  0
 35 68  1  0  0  0
 36 37  1  0  0  0
 37 69  1  0  0  0
 37 70  1  0  0  0
 37 71  1  0  0  0
M  CHG  1  19   1
M  END
> <i_i_glide_confnum>
187

> <i_i_glide_lignum>
2207

> <i_i_glide_posenum>
134

> <i_i_glide_rotatable_bonds>
9

> <i_m_Source_File_Index>
4471

> <b_m_subgroup_collapsed>
0

> <r_i_docking_score>
-5.313

> <r_i_glide_ecoul>
-7.5149

> <r_i_glide_eff_state_penalty>
0

> <r_i_glide_einternal>
6.57263

> <r_i_glide_emodel>
-58.3051

> <r_i_glide_energy>
-43.4029

> <r_i_glide_erotb>
0.697078

> <r_i_glide_esite>
-0.134084

> <r_i_glide_evdw>
-35.888

> <r_i_glide_gscore>
-5.313

> <r_i_glide_hbond>
-0.48281

> <r_i_glide_ligand_efficiency>
-0.1518

> <r_i_glide_ligand_efficiency_ln>
-1.16632

> <r_i_glide_ligand_efficiency_sa>
-0.496548

> <r_i_glide_lipo>
-1.97082

> <r_i_glide_metal>
0

> <r_i_glide_rewards>
-0.50073

> <s_i_glide_gridfile>
wee1_glide-grid

> <s_m_Source_File>
wee1_decoys_glide_SP.sdf

> <s_m_Source_Path>
/Users/zhangxujun/Desktop

> <s_m_entry_id>
4746

> <s_m_entry_name>
wee1_decoys_glide_SP.4471

> <s_m_subgroup_title>
wee1_decoys_glide_SP

> <s_m_subgroupid>
wee1_decoys_glide_SP


$$$$
