ZINC09404719_5130
                    3D
 Schrodinger Suite 2024-2.
 53 56  0  0  1  0            999 V2000
    7.2469   59.9007   15.2810 C   0  0  0  0  0  0
    6.3120   58.9675   14.6222 N   0  0  0  0  0  0
    4.8823   59.2957   14.7993 C   0  0  0  0  0  0
    6.7426   57.2468   14.6709 S   0  0  0  0  0  0
    5.7170   56.4936   13.9338 O   0  0  0  0  0  0
    8.1599   57.1233   14.3066 O   0  0  0  0  0  0
    6.5977   56.7808   16.3942 C   0  0  0  0  0  0
    5.3474   56.4586   16.9181 C   0  0  0  0  0  0
    5.2281   56.1059   18.2584 C   0  0  0  0  0  0
    6.3648   56.0634   19.0851 C   0  0  0  0  0  0
    7.6150   56.3948   18.5434 C   0  0  0  0  0  0
    7.7324   56.7541   17.2056 C   0  0  0  0  0  0
    6.2646   55.6811   20.5446 C   0  0  0  0  0  0
    7.1056   56.1035   21.3405 O   0  0  0  0  0  0
    5.2185   54.8757   20.8587 N   0  0  0  0  0  0
    4.8263   54.2538   22.0194 C   0  0  0  0  0  0
    5.7554   54.0976   23.4164 S   0  0  0  0  0  0
    3.5755   53.7219   21.8535 N   0  0  0  0  0  0
    2.7239   52.9883   22.7025 C   0  0  0  0  0  0
    2.0406   51.9200   22.1226 C   0  0  0  0  0  0
    1.1803   51.1387   22.8905 C   0  0  0  0  0  0
    0.9908   51.4306   24.2384 C   0  0  0  0  0  0
    1.6504   52.5099   24.8462 C   0  0  0  0  0  0
    2.5069   53.2961   24.0551 C   0  0  0  0  0  0
    1.4409   52.8218   26.3066 C   0  0  0  0  0  0
    1.9047   53.8976   26.8908 N   0  0  0  0  0  0
    1.4446   54.0256   28.1653 C   0  0  0  0  0  0
    1.6858   55.1244   29.0050 C   0  0  0  0  0  0
    1.1049   55.1309   30.2750 C   0  0  0  0  0  0
    0.3335   54.0607   30.7258 C   0  0  0  0  0  0
    0.0975   52.9466   29.9190 C   0  0  0  0  0  0
    0.6424   52.9487   28.6281 C   0  0  0  0  0  0
    0.4836   51.7673   27.3393 S   0  0  0  0  0  0
    7.1346   59.8313   16.3635 H   0  0  0  0  0  0
    7.0424   60.9235   14.9603 H   0  0  0  0  0  0
    8.2745   59.6463   15.0207 H   0  0  0  0  0  0
    4.6862   60.3211   14.4780 H   0  0  0  0  0  0
    4.2652   58.6197   14.2062 H   0  0  0  0  0  0
    4.6005   59.1902   15.8483 H   0  0  0  0  0  0
    4.4679   56.4848   16.2878 H   0  0  0  0  0  0
    4.2412   55.8762   18.6355 H   0  0  0  0  0  0
    8.5075   56.3743   19.1549 H   0  0  0  0  0  0
    8.7046   57.0051   16.8044 H   0  0  0  0  0  0
    4.6470   54.6504   20.0603 H   0  0  0  0  0  0
    3.2161   53.7683   20.9110 H   0  0  0  0  0  0
    2.1796   51.6770   21.0798 H   0  0  0  0  0  0
    0.6666   50.3023   22.4425 H   0  0  0  0  0  0
    0.3196   50.8021   24.8035 H   0  0  0  0  0  0
    3.0067   54.1442   24.4993 H   0  0  0  0  0  0
    2.2859   55.9566   28.6686 H   0  0  0  0  0  0
    1.2635   55.9790   30.9285 H   0  0  0  0  0  0
   -0.0904   54.0856   31.7220 H   0  0  0  0  0  0
   -0.5040   52.1189   30.2748 H   0  0  0  0  0  0
  1  2  1  0  0  0
  1 34  1  0  0  0
  1 35  1  0  0  0
  1 36  1  0  0  0
  2  3  1  0  0  0
  2  4  1  0  0  0
  3 37  1  0  0  0
  3 38  1  0  0  0
  3 39  1  0  0  0
  4  5  2  0  0  0
  4  6  2  0  0  0
  4  7  1  0  0  0
  7 12  2  0  0  0
  7  8  1  0  0  0
  8  9  2  0  0  0
  8 40  1  0  0  0
  9 10  1  0  0  0
  9 41  1  0  0  0
 10 11  2  0  0  0
 10 13  1  0  0  0
 11 12  1  0  0  0
 11 42  1  0  0  0
 12 43  1  0  0  0
 13 14  2  0  0  0
 13 15  1  0  0  0
 15 16  1  0  0  0
 15 44  1  0  0  0
 16 17  2  0  0  0
 16 18  1  0  0  0
 18 19  1  0  0  0
 18 45  1  0  0  0
 19 24  2  0  0  0
 19 20  1  0  0  0
 20 21  2  0  0  0
 20 46  1  0  0  0
 21 22  1  0  0  0
 21 47  1  0  0  0
 22 23  2  0  0  0
 22 48  1  0  0  0
 23 24  1  0  0  0
 23 25  1  0  0  0
 24 49  1  0  0  0
 25 33  1  0  0  0
 25 26  2  0  0  0
 26 27  1  0  0  0
 27 32  2  0  0  0
 27 28  1  0  0  0
 28 29  2  0  0  0
 28 50  1  0  0  0
 29 30  1  0  0  0
 29 51  1  0  0  0
 30 31  2  0  0  0
 30 52  1  0  0  0
 31 32  1  0  0  0
 31 53  1  0  0  0
 32 33  1  0  0  0
M  END
> <i_i_glide_confnum>
165

> <i_i_glide_lignum>
5131

> <i_i_glide_posenum>
107

> <i_i_glide_rotatable_bonds>
8

> <i_m_Source_File_Index>
3017

> <b_m_subgroup_collapsed>
0

> <r_i_docking_score>
-5.37774

> <r_i_glide_ecoul>
-5.34759

> <r_i_glide_eff_state_penalty>
0

> <r_i_glide_einternal>
2.76073

> <r_i_glide_emodel>
-65.0845

> <r_i_glide_energy>
-48.2881

> <r_i_glide_erotb>
0.578801

> <r_i_glide_esite>
-0.0278986

> <r_i_glide_evdw>
-42.9405

> <r_i_glide_gscore>
-5.37774

> <r_i_glide_hbond>
-0.0685809

> <r_i_glide_ligand_efficiency>
-0.162962

> <r_i_glide_ligand_efficiency_ln>
-1.19598

> <r_i_glide_ligand_efficiency_sa>
-0.522706

> <r_i_glide_lipo>
-2.32043

> <r_i_glide_metal>
0

> <r_i_glide_rewards>
-0.590472

> <s_i_glide_gridfile>
wee1_glide-grid

> <s_m_Source_File>
wee1_decoys_glide_SP.sdf

> <s_m_Source_Path>
/Users/zhangxujun/Desktop

> <s_m_entry_id>
3292

> <s_m_entry_name>
wee1_decoys_glide_SP.3017

> <s_m_subgroup_title>
wee1_decoys_glide_SP

> <s_m_subgroupid>
wee1_decoys_glide_SP


$$$$
