@<TRIPOS>MOLECULE
ZINC42642605_6196
51   53    1
SMALL
USER_CHARGES


@<TRIPOS>ATOM
      1 C1          4.5176   54.7378   19.4352 C.3       1 UNK         0.0000 
      2 C2          4.9152   53.6190   20.4088 C.3       1 UNK         0.0000 
      3 H3          5.9044   53.2786   20.1163 H         1 UNK         0.0000 
      4 C4          4.9864   54.0381   21.8895 C.ar      1 UNK         0.0000 
      5 C5          6.2321   54.4283   22.4345 C.ar      1 UNK         0.0000 
      6 C6          6.3812   54.7174   23.7977 C.ar      1 UNK         0.0000 
      7 C7          5.2538   54.6124   24.6005 C.ar      1 UNK         0.0000 
      8 C8          4.0315   54.2918   24.0805 C.ar      1 UNK         0.0000 
      9 C9          3.8536   54.0260   22.7262 C.ar      1 UNK         0.0000 
     10 O10         3.1048   54.3211   25.0725 O.3       1 UNK         0.0000 
     11 C11         3.8333   54.4519   26.2677 C.3       1 UNK         0.0000 
     12 O12         5.1308   54.8626   25.9294 O.3       1 UNK         0.0000 
     13 N13         4.1624   52.3042   20.0819 N.4       1 UNK         0.0000 
     14 C14         2.6498   52.2633   20.1268 C.3       1 UNK         0.0000 
     15 H15         2.2888   53.2806   20.2673 H         1 UNK         0.0000 
     16 C16         2.1184   51.6742   18.8038 C.3       1 UNK         0.0000 
     17 C17         2.2955   51.3549   21.3332 C.2       1 UNK         0.0000 
     18 O18         3.1043   50.4941   21.6789 O.2       1 UNK         0.0000 
     19 N19         1.1191   51.6069   21.9537 N.am      1 UNK         0.0000 
     20 C20         0.5793   50.9867   23.1076 C.ar      1 UNK         0.0000 
     21 C21         1.1045   49.8251   23.6979 C.ar      1 UNK         0.0000 
     22 C22         0.5394   49.2976   24.8548 C.ar      1 UNK         0.0000 
     23 C23        -0.5703   49.9006   25.4301 C.ar      1 UNK         0.0000 
     24 C24        -1.1485   51.0406   24.8469 C.ar      1 UNK         0.0000 
     25 C25        -0.5550   51.5745   23.6872 C.ar      1 UNK         0.0000 
     26 C26        -2.3906   51.6800   25.4370 C.2       1 UNK         0.0000 
     27 O27        -2.8450   52.7282   24.9700 O.2       1 UNK         0.0000 
     28 N28        -2.9775   51.0268   26.4561 N.am      1 UNK         0.0000 
     29 C29        -4.2175   51.4324   27.0963 C.3       1 UNK         0.0000 
     30 H30         5.1755   55.6005   19.5394 H         1 UNK         0.0000 
     31 H31         4.5733   54.4049   18.3980 H         1 UNK         0.0000 
     32 H32         3.5045   55.0880   19.6090 H         1 UNK         0.0000 
     33 H33         7.1062   54.4972   21.8031 H         1 UNK         0.0000 
     34 H34         7.3433   55.0040   24.1980 H         1 UNK         0.0000 
     35 H35         2.8666   53.8128   22.3535 H         1 UNK         0.0000 
     36 H36         3.8856   53.4811   26.7673 H         1 UNK         0.0000 
     37 H37         3.3638   55.1800   26.9319 H         1 UNK         0.0000 
     38 H38         4.4507   51.5834   20.7358 H         1 UNK         0.0000 
     39 H39         1.0295   51.6215   18.7964 H         1 UNK         0.0000 
     40 H40         2.4087   52.2921   17.9527 H         1 UNK         0.0000 
     41 H41         2.4991   50.6669   18.6148 H         1 UNK         0.0000 
     42 H42         0.5620   52.3567   21.5748 H         1 UNK         0.0000 
     43 H43         1.9562   49.3026   23.2948 H         1 UNK         0.0000 
     44 H44         0.9674   48.4157   25.3115 H         1 UNK         0.0000 
     45 H45        -0.9671   49.4489   26.3294 H         1 UNK         0.0000 
     46 H46        -0.9780   52.4606   23.2359 H         1 UNK         0.0000 
     47 H47        -2.5394   50.1942   26.8264 H         1 UNK         0.0000 
     48 H48        -4.3332   50.9205   28.0543 H         1 UNK         0.0000 
     49 H49        -5.0732   51.1794   26.4658 H         1 UNK         0.0000 
     50 H50        -4.2379   52.5067   27.2832 H         1 UNK         0.0000 
     51 H51         4.4389   51.9701   19.1624 H         1 UNK         0.0000 
@<TRIPOS>BOND
     1    1    2 1    
     2    1   30 1    
     3    1   31 1    
     4    1   32 1    
     5    2    3 1    
     6    2    4 1    
     7    2   13 1    
     8    4    9 ar   
     9    4    5 ar   
    10    5    6 ar   
    11    5   33 1    
    12    6    7 ar   
    13    6   34 1    
    14    7   12 1    
    15    7    8 ar   
    16    8    9 ar   
    17    8   10 1    
    18    9   35 1    
    19   10   11 1    
    20   11   12 1    
    21   11   36 1    
    22   11   37 1    
    23   13   14 1    
    24   13   38 1    
    25   13   51 1    
    26   14   15 1    
    27   14   16 1    
    28   14   17 1    
    29   16   39 1    
    30   16   40 1    
    31   16   41 1    
    32   17   18 2    
    33   17   19 am   BACKBONE|DICT|INTERRES
    34   19   20 1    
    35   19   42 1    
    36   20   25 ar   
    37   20   21 ar   
    38   21   22 ar   
    39   21   43 1    
    40   22   23 ar   
    41   22   44 1    
    42   23   24 ar   
    43   23   45 1    
    44   24   25 ar   
    45   24   26 1    
    46   25   46 1    
    47   26   27 2    
    48   26   28 am   BACKBONE|DICT|INTERRES
    49   28   29 1    
    50   28   47 1    
    51   29   48 1    
    52   29   49 1    
    53   29   50 1    
@<TRIPOS>SUBSTRUCTURE
     1 UNK         1 GROUP             0       ****    0 ROOT    
