ZINC36721865_1781
                    3D
 Schrodinger Suite 2024-2.
 33 33  0  0  1  0            999 V2000
    4.5655   54.9477   29.2137 C   0  0  0  0  0  0
    4.5567   54.0429   27.9593 C   0  0  0  0  0  0
    4.6669   54.8966   26.6610 C   0  0  0  0  0  0
    5.8060   53.1393   28.0093 C   0  0  0  0  0  0
    3.2649   53.1743   28.0293 C   0  0  0  0  0  0
    3.1416   52.3329   28.9249 O   0  0  0  0  0  0
    2.3190   53.4056   27.0973 N   0  0  0  0  0  0
    1.1044   52.7358   26.9187 C   0  0  0  0  0  0
    0.3053   52.3354   27.9997 C   0  0  0  0  0  0
   -0.9110   51.6967   27.7716 C   0  0  0  0  0  0
   -1.3447   51.4678   26.4639 C   0  0  0  0  0  0
   -0.5508   51.8609   25.3849 C   0  0  0  0  0  0
    0.6709   52.4962   25.6064 C   0  0  0  0  0  0
    1.7060   53.0413   24.0963 Br  0  0  0  0  0  0
   -2.9043   50.6531   26.1738 S   0  0  0  0  0  0
   -3.7389   50.8452   27.3639 O   0  0  0  0  0  0
   -3.3855   51.0599   24.8493 O   0  0  0  0  0  0
   -2.4956   48.9658   26.0817 N   0  0  0  0  0  0
    5.5044   55.4928   29.3057 H   0  0  0  0  0  0
    4.4548   54.3759   30.1362 H   0  0  0  0  0  0
    3.7570   55.6809   29.1924 H   0  0  0  0  0  0
    4.7684   54.2624   25.7781 H   0  0  0  0  0  0
    3.7992   55.5323   26.4857 H   0  0  0  0  0  0
    5.5466   55.5408   26.6838 H   0  0  0  0  0  0
    5.8709   52.4967   27.1324 H   0  0  0  0  0  0
    6.7283   53.7207   28.0572 H   0  0  0  0  0  0
    5.7895   52.4967   28.8817 H   0  0  0  0  0  0
    2.5540   54.0625   26.3700 H   0  0  0  0  0  0
    0.6168   52.5160   29.0180 H   0  0  0  0  0  0
   -1.5114   51.3748   28.6120 H   0  0  0  0  0  0
   -0.8807   51.6764   24.3724 H   0  0  0  0  0  0
   -2.1177   48.6446   27.0030 H   0  0  0  0  0  0
   -3.3210   48.4044   25.8716 H   0  0  0  0  0  0
  1  2  1  0  0  0
  1 19  1  0  0  0
  1 20  1  0  0  0
  1 21  1  0  0  0
  2  3  1  0  0  0
  2  4  1  0  0  0
  2  5  1  0  0  0
  3 22  1  0  0  0
  3 23  1  0  0  0
  3 24  1  0  0  0
  4 25  1  0  0  0
  4 26  1  0  0  0
  4 27  1  0  0  0
  5  6  2  0  0  0
  5  7  1  0  0  0
  7  8  1  0  0  0
  7 28  1  0  0  0
  8 13  2  0  0  0
  8  9  1  0  0  0
  9 10  2  0  0  0
  9 29  1  0  0  0
 10 11  1  0  0  0
 10 30  1  0  0  0
 11 12  2  0  0  0
 11 15  1  0  0  0
 12 13  1  0  0  0
 12 31  1  0  0  0
 13 14  1  0  0  0
 15 16  2  0  0  0
 15 17  2  0  0  0
 15 18  1  0  0  0
 18 32  1  0  0  0
 18 33  1  0  0  0
M  END
> <i_i_glide_confnum>
1

> <i_i_glide_lignum>
1782

> <i_i_glide_posenum>
156

> <i_i_glide_rotatable_bonds>
4

> <i_m_Source_File_Index>
1573

> <b_m_subgroup_collapsed>
0

> <r_i_docking_score>
-5.18364

> <r_i_glide_ecoul>
-7.16722

> <r_i_glide_eff_state_penalty>
0

> <r_i_glide_einternal>
1.2069

> <r_i_glide_emodel>
-39.1622

> <r_i_glide_energy>
-29.3006

> <r_i_glide_erotb>
0.335862

> <r_i_glide_esite>
-0.203356

> <r_i_glide_evdw>
-22.1334

> <r_i_glide_gscore>
-5.18364

> <r_i_glide_hbond>
-0.16

> <r_i_glide_ligand_efficiency>
-0.28798

> <r_i_glide_ligand_efficiency_ln>
-1.33243

> <r_i_glide_ligand_efficiency_sa>
-0.754721

> <r_i_glide_lipo>
-1.59142

> <r_i_glide_metal>
0

> <r_i_glide_rewards>
-1.38298

> <s_i_glide_gridfile>
wee1_glide-grid

> <s_m_Source_File>
wee1_decoys_glide_SP.sdf

> <s_m_Source_Path>
/Users/zhangxujun/Desktop

> <s_m_entry_id>
1848

> <s_m_entry_name>
wee1_decoys_glide_SP.1573

> <s_m_subgroup_title>
wee1_decoys_glide_SP

> <s_m_subgroupid>
wee1_decoys_glide_SP


$$$$
