@<TRIPOS>MOLECULE
ZINC36252543_3768
29   31    1
SMALL
USER_CHARGES


@<TRIPOS>ATOM
      1 C1          4.6600   54.0568   28.0436 C.3       1 UNK         0.0000 
      2 C2          4.4198   54.1273   26.5343 C.ar      1 UNK         0.0000 
      3 C3          5.4365   54.5076   25.6422 C.ar      1 UNK         0.0000 
      4 C4          5.2093   54.4964   24.2684 C.ar      1 UNK         0.0000 
      5 C5          3.9856   54.0965   23.7375 C.ar      1 UNK         0.0000 
      6 C6          2.9729   53.6923   24.6181 C.ar      1 UNK         0.0000 
      7 N7          3.1907   53.7485   26.0138 N.pl3     1 UNK         0.0000 
      8 C8          1.9637   53.3570   26.5516 C.ar      1 UNK         0.0000 
      9 N9          1.1608   52.9484   25.5877 N.2       1 UNK         0.0000 
     10 N10         1.7411   53.2042   24.3628 N.2       1 UNK         0.0000 
     11 C11         1.5008   53.4577   27.9671 C.ar      1 UNK         0.0000 
     12 C12         0.8570   52.3844   28.5952 C.ar      1 UNK         0.0000 
     13 C13         0.3551   52.5239   29.8913 C.ar      1 UNK         0.0000 
     14 C14         0.4837   53.7392   30.5640 C.ar      1 UNK         0.0000 
     15 C15         1.1067   54.8186   29.9371 C.ar      1 UNK         0.0000 
     16 C16         1.6084   54.6773   28.6442 C.ar      1 UNK         0.0000 
     17 Br17        1.2487   56.4971   30.8235 Br        1 UNK         0.0000 
     18 N18         6.7042   54.8874   26.0818 N.pl3     1 UNK         0.0000 
     19 H19         5.7131   53.9250   28.2872 H         1 UNK         0.0000 
     20 H20         4.3237   54.9686   28.5345 H         1 UNK         0.0000 
     21 H21         4.1469   53.2035   28.4858 H         1 UNK         0.0000 
     22 H22         5.9983   54.7923   23.5908 H         1 UNK         0.0000 
     23 H23         3.8246   54.0712   22.6695 H         1 UNK         0.0000 
     24 H24         0.7341   51.4440   28.0758 H         1 UNK         0.0000 
     25 H25        -0.1493   51.6969   30.3716 H         1 UNK         0.0000 
     26 H26         0.0857   53.8428   31.5637 H         1 UNK         0.0000 
     27 H27         2.0589   55.5287   28.1555 H         1 UNK         0.0000 
     28 H28         6.9186   54.7466   27.0593 H         1 UNK         0.0000 
     29 H29         7.4361   54.8465   25.3867 H         1 UNK         0.0000 
@<TRIPOS>BOND
     1    1    2 1    
     2    1   19 1    
     3    1   20 1    
     4    1   21 1    
     5    2    7 ar   
     6    2    3 ar   
     7    3    4 ar   
     8    3   18 1    
     9    4    5 ar   
    10    4   22 1    
    11    5    6 ar   
    12    5   23 1    
    13    6   10 ar   
    14    6    7 ar   
    15    7    8 ar   
    16    8    9 ar   
    17    8   11 1    
    18    9   10 ar   
    19   11   16 ar   
    20   11   12 ar   
    21   12   13 ar   
    22   12   24 1    
    23   13   14 ar   
    24   13   25 1    
    25   14   15 ar   
    26   14   26 1    
    27   15   16 ar   
    28   15   17 1    
    29   16   27 1    
    30   18   28 1    
    31   18   29 1    
@<TRIPOS>SUBSTRUCTURE
     1 UNK         1 GROUP             0       ****    0 ROOT    
