@<TRIPOS>MOLECULE
ZINC50122289_4692
39   42    1
SMALL
USER_CHARGES


@<TRIPOS>ATOM
      1 C1          1.5042   52.9215   26.6017 C.ar      1 UNK         0.0000 
      2 C2          1.1507   52.7104   25.2635 C.ar      1 UNK         0.0000 
      3 C3          1.9956   53.2252   24.2700 C.ar      1 UNK         0.0000 
      4 C4          3.1614   53.9119   24.6018 C.ar      1 UNK         0.0000 
      5 C5          3.5044   54.1199   25.9392 C.ar      1 UNK         0.0000 
      6 C6          2.6662   53.6186   26.9521 C.ar      1 UNK         0.0000 
      7 O7          2.9445   53.8218   28.2861 O.3       1 UNK         0.0000 
      8 C8          4.1579   53.2641   28.7821 C.3       1 UNK         0.0000 
      9 C9          5.4127   54.0736   28.4226 C.3       1 UNK         0.0000 
     10 C10         5.6696   54.1973   26.9187 C.3       1 UNK         0.0000 
     11 O11         4.6149   54.8739   26.2476 O.3       1 UNK         0.0000 
     12 Cl12        4.1771   54.4966   23.3316 Cl        1 UNK         0.0000 
     13 C13        -0.1664   51.9962   24.9048 C.3       1 UNK         0.0000 
     14 C14        -0.4464   50.6854   25.5777 C.2       1 UNK         0.0000 
     15 N15        -0.4684   49.7497   24.6177 N.pl3     1 UNK         0.0000 
     16 C16        -0.3606   50.2792   23.4020 C.2       1 UNK         0.0000 
     17 N17        -0.2474   51.5947   23.5073 N.pl3     1 UNK         0.0000 
     18 C18        -0.6355   48.3071   24.7944 C.3       1 UNK         0.0000 
     19 C19        -1.8465   47.7753   25.5318 C.3       1 UNK         0.0000 
     20 C20        -1.7451   47.6102   24.0343 C.3       1 UNK         0.0000 
     21 N21        -0.6620   50.4966   26.8817 N.pl3     1 UNK         0.0000 
     22 H22         0.8716   52.5736   27.4016 H         1 UNK         0.0000 
     23 H23         1.7714   53.1083   23.2208 H         1 UNK         0.0000 
     24 H24         4.0628   53.2244   29.8689 H         1 UNK         0.0000 
     25 H25         4.2583   52.2205   28.4747 H         1 UNK         0.0000 
     26 H26         5.3357   55.0695   28.8612 H         1 UNK         0.0000 
     27 H27         6.2881   53.6120   28.8816 H         1 UNK         0.0000 
     28 H28         6.5746   54.7848   26.7615 H         1 UNK         0.0000 
     29 H29         5.8731   53.2266   26.4613 H         1 UNK         0.0000 
     30 H30        -0.3698   49.7218   22.4751 H         1 UNK         0.0000 
     31 H31         0.3070   47.7659   24.8822 H         1 UNK         0.0000 
     32 H32        -2.5839   48.4714   25.9389 H         1 UNK         0.0000 
     33 H33        -1.7004   46.9159   26.1893 H         1 UNK         0.0000 
     34 H34        -1.5526   46.6167   23.6269 H         1 UNK         0.0000 
     35 H35        -2.4219   48.1886   23.4033 H         1 UNK         0.0000 
     36 H36        -0.6479   51.2718   27.5243 H         1 UNK         0.0000 
     37 H37        -0.9933   52.6824   25.0969 H         1 UNK         0.0000 
     38 H38        -0.8956   49.5683   27.2553 H         1 UNK         0.0000 
     39 H39        -0.1346   52.2382   22.7338 H         1 UNK         0.0000 
@<TRIPOS>BOND
     1    1    6 ar   
     2    1    2 ar   
     3    1   22 1    
     4    2    3 ar   
     5    2   13 1    
     6    3    4 ar   
     7    3   23 1    
     8    4    5 ar   
     9    4   12 1    
    10    5   11 1    
    11    5    6 ar   
    12    6    7 1    
    13    7    8 1    
    14    8    9 1    
    15    8   24 1    
    16    8   25 1    
    17    9   10 1    
    18    9   26 1    
    19    9   27 1    
    20   10   11 1    
    21   10   28 1    
    22   10   29 1    
    23   13   37 1    
    24   13   17 1    
    25   13   14 1    
    26   14   15 1    
    27   14   21 2    
    28   15   16 1    
    29   15   18 1    
    30   16   17 2    
    31   16   30 1    
    32   17   39 1    
    33   18   20 1    
    34   18   19 1    
    35   18   31 1    
    36   19   20 1    
    37   19   32 1    
    38   19   33 1    
    39   20   34 1    
    40   20   35 1    
    41   21   36 1    
    42   21   38 1    
@<TRIPOS>SUBSTRUCTURE
     1 UNK         1 GROUP             0       ****    0 ROOT    
