@<TRIPOS>MOLECULE
ZINC16252507_3378
63   65    1
SMALL
USER_CHARGES


@<TRIPOS>ATOM
      1 C1          6.8251   55.3432   18.4945 C.3       1 UNK         0.0000 
      2 C2          6.4334   55.0427   19.9343 C.ar      1 UNK         0.0000 
      3 C3          7.2123   55.5622   20.9721 C.ar      1 UNK         0.0000 
      4 C4          6.8894   55.2963   22.3019 C.ar      1 UNK         0.0000 
      5 C5          5.7829   54.4966   22.6165 C.ar      1 UNK         0.0000 
      6 C6          5.0041   53.9785   21.5766 C.ar      1 UNK         0.0000 
      7 C7          5.3206   54.2414   20.2384 C.ar      1 UNK         0.0000 
      8 C8          4.4424   53.6525   19.1418 C.3       1 UNK         0.0000 
      9 N9          5.3448   54.2149   23.9223 N.am      1 UNK         0.0000 
     10 C10         5.9159   54.4965   25.1118 C.2       1 UNK         0.0000 
     11 O11         7.0438   54.9673   25.2806 O.2       1 UNK         0.0000 
     12 N12         5.0437   54.1982   26.0945 N.am      1 UNK         0.0000 
     13 C13         5.2838   54.0665   27.4195 C.2       1 UNK         0.0000 
     14 O14         6.3982   54.0988   27.9442 O.2       1 UNK         0.0000 
     15 C15         4.0451   53.9118   28.3214 C.3       1 UNK         0.0000 
     16 O16         2.9717   53.3015   27.5939 O.3       1 UNK         0.0000 
     17 C17         1.7484   53.0975   28.1522 C.2       1 UNK         0.0000 
     18 O18         1.4571   53.4621   29.2942 O.2       1 UNK         0.0000 
     19 C19         0.8295   52.3059   27.2662 C.ar      1 UNK         0.0000 
     20 C20         1.1045   52.1042   25.9036 C.ar      1 UNK         0.0000 
     21 C21         0.2966   51.2742   25.1321 C.ar      1 UNK         0.0000 
     22 C22        -0.8027   50.6415   25.7097 C.ar      1 UNK         0.0000 
     23 C23        -1.1278   50.8968   27.0402 C.ar      1 UNK         0.0000 
     24 C24        -0.3164   51.7189   27.8173 C.ar      1 UNK         0.0000 
     25 S25        -1.7680   49.4632   24.7526 S.o2      1 UNK         0.0000 
     26 O26        -0.9816   49.1527   23.5521 O.2       1 UNK         0.0000 
     27 O27        -2.1977   48.3949   25.6609 O.2       1 UNK         0.0000 
     28 N28        -3.2109   50.3498   24.2348 N.pl3     1 UNK         0.0000 
     29 C29        -3.0484   51.4398   23.2415 C.3       1 UNK         0.0000 
     30 C30        -3.1090   52.8282   23.9189 C.3       1 UNK         0.0000 
     31 C31        -4.3961   52.9843   24.7605 C.3       1 UNK         0.0000 
     32 C32        -4.4420   51.8607   25.8189 C.3       1 UNK         0.0000 
     33 C33        -4.3716   50.4686   25.1615 C.3       1 UNK         0.0000 
     34 C34        -4.4947   54.3723   25.4142 C.3       1 UNK         0.0000 
     35 H35         7.7801   55.8662   18.4265 H         1 UNK         0.0000 
     36 H36         6.9166   54.4155   17.9273 H         1 UNK         0.0000 
     37 H37         6.0592   55.9517   18.0107 H         1 UNK         0.0000 
     38 H38         8.0827   56.1633   20.7524 H         1 UNK         0.0000 
     39 H39         7.5040   55.7320   23.0728 H         1 UNK         0.0000 
     40 H40         4.1398   53.3700   21.8023 H         1 UNK         0.0000 
     41 H41         3.5329   53.1971   19.5364 H         1 UNK         0.0000 
     42 H42         4.9915   52.8996   18.5734 H         1 UNK         0.0000 
     43 H43         4.1316   54.4318   18.4460 H         1 UNK         0.0000 
     44 H44         4.4673   53.7216   23.9533 H         1 UNK         0.0000 
     45 H45         4.0908   54.0223   25.8157 H         1 UNK         0.0000 
     46 H46         4.3012   53.3428   29.2179 H         1 UNK         0.0000 
     47 H47         3.7434   54.9136   28.6341 H         1 UNK         0.0000 
     48 H48         1.9702   52.5499   25.4370 H         1 UNK         0.0000 
     49 H49         0.5531   51.0919   24.0985 H         1 UNK         0.0000 
     50 H50        -1.9814   50.4126   27.4935 H         1 UNK         0.0000 
     51 H51        -0.5660   51.8493   28.8621 H         1 UNK         0.0000 
     52 H52        -2.0903   51.3149   22.7352 H         1 UNK         0.0000 
     53 H53        -3.8187   51.3011   22.4829 H         1 UNK         0.0000 
     54 H54        -2.2307   52.9808   24.5492 H         1 UNK         0.0000 
     55 H55        -3.0485   53.6202   23.1742 H         1 UNK         0.0000 
     56 H56        -5.2488   52.8502   24.0906 H         1 UNK         0.0000 
     57 H57        -5.3462   51.9465   26.4232 H         1 UNK         0.0000 
     58 H58        -3.6273   51.9836   26.5323 H         1 UNK         0.0000 
     59 H59        -5.2791   50.2523   24.5968 H         1 UNK         0.0000 
     60 H60        -4.2971   49.6982   25.9298 H         1 UNK         0.0000 
     61 H61        -3.6960   54.5206   26.1435 H         1 UNK         0.0000 
     62 H62        -4.4182   55.1627   24.6670 H         1 UNK         0.0000 
     63 H63        -5.4443   54.4961   25.9353 H         1 UNK         0.0000 
@<TRIPOS>BOND
     1    1    2 1    
     2    1   35 1    
     3    1   36 1    
     4    1   37 1    
     5    2    7 ar   
     6    2    3 ar   
     7    3    4 ar   
     8    3   38 1    
     9    4    5 ar   
    10    4   39 1    
    11    5    6 ar   
    12    5    9 1    
    13    6    7 ar   
    14    6   40 1    
    15    7    8 1    
    16    8   41 1    
    17    8   42 1    
    18    8   43 1    
    19    9   10 am   BACKBONE|DICT|INTERRES
    20    9   44 1    
    21   10   11 2    
    22   10   12 am   BACKBONE|DICT|INTERRES
    23   12   13 am   BACKBONE|DICT|INTERRES
    24   12   45 1    
    25   13   14 2    
    26   13   15 1    
    27   15   16 1    
    28   15   46 1    
    29   15   47 1    
    30   16   17 1    
    31   17   18 2    
    32   17   19 1    
    33   19   24 ar   
    34   19   20 ar   
    35   20   21 ar   
    36   20   48 1    
    37   21   22 ar   
    38   21   49 1    
    39   22   23 ar   
    40   22   25 1    
    41   23   24 ar   
    42   23   50 1    
    43   24   51 1    
    44   25   26 2    
    45   25   27 2    
    46   25   28 1    
    47   28   33 1    
    48   28   29 1    
    49   29   30 1    
    50   29   52 1    
    51   29   53 1    
    52   30   31 1    
    53   30   54 1    
    54   30   55 1    
    55   31   32 1    
    56   31   34 1    
    57   31   56 1    
    58   32   33 1    
    59   32   57 1    
    60   32   58 1    
    61   33   59 1    
    62   33   60 1    
    63   34   61 1    
    64   34   62 1    
    65   34   63 1    
@<TRIPOS>SUBSTRUCTURE
     1 UNK         1 GROUP             0       ****    0 ROOT    
