ZINC12637886_5383
                    3D
 Schrodinger Suite 2024-2.
 70 74  0  0  1  0            999 V2000
   -3.7424   49.4300   26.1985 C   0  0  0  0  0  0
   -2.4882   50.1618   25.7589 C   0  0  0  0  0  0
   -1.3385   49.4337   25.4510 C   0  0  0  0  0  0
   -0.1731   50.0958   25.0837 C   0  0  0  0  0  0
   -0.1529   51.4985   25.0280 C   0  0  0  0  0  0
   -1.3087   52.2214   25.3361 C   0  0  0  0  0  0
   -2.4740   51.5557   25.7010 C   0  0  0  0  0  0
    1.0352   52.1876   24.6659 N   0  0  0  0  0  0
    1.6601   53.1673   25.6658 C   0  0  1  0  0  0
    1.1045   54.0623   25.3918 H   0  0  0  0  0  0
    1.3297   53.0270   27.1725 C   0  0  0  0  0  0
    0.9346   51.8359   27.7985 C   0  0  0  0  0  0
    0.5604   51.8171   29.1417 C   0  0  0  0  0  0
    0.6539   52.9668   29.9230 C   0  0  0  0  0  0
    1.1145   54.1615   29.3549 C   0  0  0  0  0  0
    1.4329   54.1710   27.9863 C   0  0  0  0  0  0
    1.2144   55.2725   30.1775 O   0  0  0  0  0  0
    1.7311   56.4973   29.6665 C   0  0  0  0  0  0
    0.3036   52.9175   31.2527 O   0  0  0  0  0  0
    3.1009   53.7010   25.4210 C   0  0  0  0  0  0
    3.2927   54.4990   24.5047 O   0  0  0  0  0  0
    4.0577   53.3488   26.2925 N   0  0  0  0  0  0
    5.4786   53.6678   26.1356 C   0  0  0  0  0  0
    5.7696   55.1523   26.2925 C   0  0  0  0  0  0
    5.7995   55.2955   27.8028 C   0  0  0  0  0  0
    6.5128   54.0668   28.3329 C   0  0  0  0  0  0
    6.2955   53.0100   27.2643 C   0  0  0  0  0  0
    1.4974   51.9959   23.3679 C   0  0  0  0  0  0
    2.5722   52.4033   22.9329 O   0  0  0  0  0  0
    0.6668   51.2467   22.3468 C   0  0  0  0  0  0
    1.2131   50.1415   21.6751 C   0  0  0  0  0  0
    0.4848   49.4777   20.6871 C   0  0  0  0  0  0
   -0.7863   49.9336   20.3446 C   0  0  0  0  0  0
   -1.3375   51.0451   21.0019 C   0  0  0  0  0  0
   -0.6136   51.6979   21.9960 C   0  0  0  0  0  0
   -2.5599   51.5779   20.6459 O   0  0  0  0  0  0
   -3.4028   50.6590   19.9414 C   0  0  0  0  0  0
   -2.6019   49.9302   18.8354 C   0  0  0  0  0  0
   -1.4921   49.2191   19.3973 O   0  0  0  0  0  0
   -3.4803   48.6144   26.8748 H   0  0  0  0  0  0
   -4.4216   50.0850   26.7459 H   0  0  0  0  0  0
   -4.2627   49.0052   25.3398 H   0  0  0  0  0  0
   -1.3386   48.3565   25.5242 H   0  0  0  0  0  0
    0.7152   49.5200   24.8622 H   0  0  0  0  0  0
   -1.3058   53.2963   25.2891 H   0  0  0  0  0  0
   -3.3591   52.1240   25.9448 H   0  0  0  0  0  0
    0.8941   50.9032   27.2628 H   0  0  0  0  0  0
    0.1999   50.8970   29.5725 H   0  0  0  0  0  0
    1.7672   55.0873   27.5314 H   0  0  0  0  0  0
    1.7691   57.2353   30.4685 H   0  0  0  0  0  0
    2.7435   56.3783   29.2815 H   0  0  0  0  0  0
    1.0967   56.9059   28.8799 H   0  0  0  0  0  0
   -0.2282   52.1605   31.5317 H   0  0  0  0  0  0
    3.8234   52.6905   27.0211 H   0  0  0  0  0  0
    5.7707   53.2967   25.1516 H   0  0  0  0  0  0
    5.0499   55.8034   25.7979 H   0  0  0  0  0  0
    6.7425   55.3883   25.8601 H   0  0  0  0  0  0
    4.7827   55.2966   28.2019 H   0  0  0  0  0  0
    6.3044   56.1994   28.0820 H   0  0  0  0  0  0
    6.0850   53.7604   29.2815 H   0  0  0  0  0  0
    7.5768   54.2502   28.4813 H   0  0  0  0  0  0
    7.2801   52.7427   26.8854 H   0  0  0  0  0  0
    5.8336   52.1139   27.6783 H   0  0  0  0  0  0
    2.2077   49.7932   21.9145 H   0  0  0  0  0  0
    0.9082   48.6230   20.1813 H   0  0  0  0  0  0
   -1.0432   52.5657   22.4739 H   0  0  0  0  0  0
   -4.2515   51.1928   19.5141 H   0  0  0  0  0  0
   -3.7930   49.9196   20.6446 H   0  0  0  0  0  0
   -2.2316   50.6650   18.1172 H   0  0  0  0  0  0
   -3.2397   49.2304   18.2963 H   0  0  0  0  0  0
  1  2  1  0  0  0
  1 40  1  0  0  0
  1 41  1  0  0  0
  1 42  1  0  0  0
  2  7  2  0  0  0
  2  3  1  0  0  0
  3  4  2  0  0  0
  3 43  1  0  0  0
  4  5  1  0  0  0
  4 44  1  0  0  0
  5  6  2  0  0  0
  5  8  1  0  0  0
  6  7  1  0  0  0
  6 45  1  0  0  0
  7 46  1  0  0  0
  8  9  1  0  0  0
  8 28  1  0  0  0
  9 10  1  0  0  0
  9 11  1  0  0  0
  9 20  1  0  0  0
 11 16  2  0  0  0
 11 12  1  0  0  0
 12 13  2  0  0  0
 12 47  1  0  0  0
 13 14  1  0  0  0
 13 48  1  0  0  0
 14 15  2  0  0  0
 14 19  1  0  0  0
 15 16  1  0  0  0
 15 17  1  0  0  0
 16 49  1  0  0  0
 17 18  1  0  0  0
 18 50  1  0  0  0
 18 51  1  0  0  0
 18 52  1  0  0  0
 19 53  1  0  0  0
 20 21  2  0  0  0
 20 22  1  0  0  0
 22 23  1  0  0  0
 22 54  1  0  0  0
 23 27  1  0  0  0
 23 24  1  0  0  0
 23 55  1  0  0  0
 24 25  1  0  0  0
 24 56  1  0  0  0
 24 57  1  0  0  0
 25 26  1  0  0  0
 25 58  1  0  0  0
 25 59  1  0  0  0
 26 27  1  0  0  0
 26 60  1  0  0  0
 26 61  1  0  0  0
 27 62  1  0  0  0
 27 63  1  0  0  0
 28 29  2  0  0  0
 28 30  1  0  0  0
 30 35  2  0  0  0
 30 31  1  0  0  0
 31 32  2  0  0  0
 31 64  1  0  0  0
 32 33  1  0  0  0
 32 65  1  0  0  0
 33 39  1  0  0  0
 33 34  2  0  0  0
 34 35  1  0  0  0
 34 36  1  0  0  0
 35 66  1  0  0  0
 36 37  1  0  0  0
 37 38  1  0  0  0
 37 67  1  0  0  0
 37 68  1  0  0  0
 38 39  1  0  0  0
 38 69  1  0  0  0
 38 70  1  0  0  0
M  END
> <i_i_glide_confnum>
29

> <i_i_glide_lignum>
5384

> <i_i_glide_posenum>
324

> <i_i_glide_rotatable_bonds>
10

> <i_m_Source_File_Index>
249

> <b_m_subgroup_collapsed>
0

> <r_i_docking_score>
-4.09241

> <r_i_glide_ecoul>
-4.1262

> <r_i_glide_eff_state_penalty>
0

> <r_i_glide_einternal>
5.62135

> <r_i_glide_emodel>
-44.2984

> <r_i_glide_energy>
-41.9323

> <r_i_glide_erotb>
0.53843

> <r_i_glide_esite>
0

> <r_i_glide_evdw>
-37.8061

> <r_i_glide_gscore>
-4.09241

> <r_i_glide_hbond>
-0.0501089

> <r_i_glide_ligand_efficiency>
-0.107695

> <r_i_glide_ligand_efficiency_ln>
-0.882444

> <r_i_glide_ligand_efficiency_sa>
-0.362068

> <r_i_glide_lipo>
-2.51436

> <r_i_glide_metal>
0

> <r_i_glide_rewards>
0.442869

> <s_i_glide_gridfile>
wee1_glide-grid

> <s_m_Source_File>
wee1_decoys_glide_SP.sdf

> <s_m_Source_Path>
/Users/zhangxujun/Desktop

> <s_m_entry_id>
524

> <s_m_entry_name>
wee1_decoys_glide_SP.249

> <s_m_subgroup_title>
wee1_decoys_glide_SP

> <s_m_subgroupid>
wee1_decoys_glide_SP


$$$$
