@<TRIPOS>MOLECULE
ZINC08441958_2043
54   57    1
SMALL
USER_CHARGES


@<TRIPOS>ATOM
      1 C1          6.1030   55.5960   18.9434 C.ar      1 UNK         0.0000 
      2 C2          5.1025   54.8055   19.5046 C.ar      1 UNK         0.0000 
      3 C3          5.1670   54.4601   20.8493 C.ar      1 UNK         0.0000 
      4 C4          6.2346   54.9052   21.6357 C.ar      1 UNK         0.0000 
      5 C5          7.2409   55.6884   21.0641 C.ar      1 UNK         0.0000 
      6 C6          7.1743   56.0351   19.7170 C.ar      1 UNK         0.0000 
      7 C7          6.3434   54.5421   23.1133 C.3       1 UNK         0.0000 
      8 O8          5.0610   54.2964   23.6841 O.3       1 UNK         0.0000 
      9 C9          4.8555   54.4157   25.0141 C.2       1 UNK         0.0000 
     10 O10         5.7443   54.7649   25.7970 O.2       1 UNK         0.0000 
     11 N11         3.5322   54.0947   25.3803 N.am      1 UNK         0.0000 
     12 C12         3.2020   54.2439   26.8081 C.3       1 UNK         0.0000 
     13 C13         1.9135   53.5108   27.1419 C.2       1 UNK         0.0000 
     14 C14         1.1783   52.7358   26.3097 C.2       1 UNK         0.0000 
     15 C15         1.6430   52.5560   24.8592 C.3       1 UNK         0.0000 
     16 H16         2.2997   51.6972   24.8810 H         1 UNK         0.0000 
     17 C17         2.4824   53.7784   24.3782 C.3       1 UNK         0.0000 
     18 C18         0.4619   52.1889   23.9081 C.3       1 UNK         0.0000 
     19 H19        -0.0987   53.1211   23.8073 H         1 UNK         0.0000 
     20 C20        -0.5420   51.1241   24.4770 C.3       1 UNK         0.0000 
     21 C21        -0.7778   51.2593   25.9920 C.2       1 UNK         0.0000 
     22 C22         0.0131   52.0010   26.8010 C.2       1 UNK         0.0000 
     23 C23        -0.2832   52.0318   28.2045 C.1       1 UNK         0.0000 
     24 N24        -0.4939   52.0970   29.3405 N.1       1 UNK         0.0000 
     25 N25        -1.8195   50.4951   26.4798 N.pl3     1 UNK         0.0000 
     26 C26        -1.8278   51.2799   23.7653 C.1       1 UNK         0.0000 
     27 N27        -2.8325   51.4065   23.2047 N.1       1 UNK         0.0000 
     28 C28        -0.0676   49.7499   24.2271 C.1       1 UNK         0.0000 
     29 N29         0.3011   48.6720   24.0273 N.1       1 UNK         0.0000 
     30 C30         0.9178   51.8347   22.4711 C.ar      1 UNK         0.0000 
     31 C31         2.0881   51.0981   22.2164 C.ar      1 UNK         0.0000 
     32 C32         2.4857   50.8084   20.9111 C.ar      1 UNK         0.0000 
     33 C33         1.7050   51.2263   19.8358 C.ar      1 UNK         0.0000 
     34 C34         0.5206   51.9248   20.0714 C.ar      1 UNK         0.0000 
     35 C35         0.1309   52.2172   21.3773 C.ar      1 UNK         0.0000 
     36 Br36       -0.5657   52.4850   18.6121 Br        1 UNK         0.0000 
     37 H37         6.0469   55.8629   17.8991 H         1 UNK         0.0000 
     38 H38         4.2749   54.4630   18.8975 H         1 UNK         0.0000 
     39 H39         4.3873   53.8436   21.2699 H         1 UNK         0.0000 
     40 H40         8.0814   56.0231   21.6579 H         1 UNK         0.0000 
     41 H41         7.9528   56.6352   19.2683 H         1 UNK         0.0000 
     42 H42         6.8429   55.3663   23.6298 H         1 UNK         0.0000 
     43 H43         6.9751   53.6609   23.2232 H         1 UNK         0.0000 
     44 H44         3.0983   55.2969   27.0586 H         1 UNK         0.0000 
     45 H45         4.0047   53.8574   27.4408 H         1 UNK         0.0000 
     46 H46         1.5926   53.6122   28.1676 H         1 UNK         0.0000 
     47 H47         2.9260   53.4712   23.4324 H         1 UNK         0.0000 
     48 H48         1.8944   54.6699   24.1584 H         1 UNK         0.0000 
     49 H49        -2.3617   49.9053   25.8657 H         1 UNK         0.0000 
     50 H50        -1.8648   50.2527   27.4658 H         1 UNK         0.0000 
     51 H51         2.7028   50.7243   23.0219 H         1 UNK         0.0000 
     52 H52         3.3946   50.2518   20.7280 H         1 UNK         0.0000 
     53 H53         2.0178   50.9998   18.8244 H         1 UNK         0.0000 
     54 H54        -0.7944   52.7503   21.5321 H         1 UNK         0.0000 
@<TRIPOS>BOND
     1    1    6 ar   
     2    1    2 ar   
     3    1   37 1    
     4    2    3 ar   
     5    2   38 1    
     6    3    4 ar   
     7    3   39 1    
     8    4    5 ar   
     9    4    7 1    
    10    5    6 ar   
    11    5   40 1    
    12    6   41 1    
    13    7    8 1    
    14    7   42 1    
    15    7   43 1    
    16    8    9 1    
    17    9   10 2    
    18    9   11 am   BACKBONE|DICT|INTERRES
    19   11   17 1    
    20   11   12 1    
    21   12   13 1    
    22   12   44 1    
    23   12   45 1    
    24   13   14 2    
    25   13   46 1    
    26   14   22 1    
    27   14   15 1    
    28   15   16 1    
    29   15   17 1    
    30   15   18 1    
    31   17   47 1    
    32   17   48 1    
    33   18   19 1    
    34   18   20 1    
    35   18   30 1    
    36   20   21 1    
    37   20   26 1    
    38   20   28 1    
    39   21   22 2    
    40   21   25 1    
    41   22   23 1    
    42   23   24 3    
    43   25   49 1    
    44   25   50 1    
    45   26   27 3    
    46   28   29 3    
    47   30   35 ar   
    48   30   31 ar   
    49   31   32 ar   
    50   31   51 1    
    51   32   33 ar   
    52   32   52 1    
    53   33   34 ar   
    54   33   53 1    
    55   34   35 ar   
    56   34   36 1    
    57   35   54 1    
@<TRIPOS>SUBSTRUCTURE
     1 UNK         1 GROUP             0       ****    0 ROOT    
