@<TRIPOS>MOLECULE
ZINC09237785_664
52   55    1
SMALL
USER_CHARGES


@<TRIPOS>ATOM
      1 C1          5.4417   54.8301   27.0075 C.3       1 UNK         0.0000 
      2 C2          4.7339   54.4190   25.7286 C.ar      1 UNK         0.0000 
      3 C3          5.4083   54.4731   24.5081 C.ar      1 UNK         0.0000 
      4 C4          4.7581   54.1011   23.3316 C.ar      1 UNK         0.0000 
      5 C5          3.4230   53.6893   23.3527 C.ar      1 UNK         0.0000 
      6 C6          2.7589   53.5686   24.5930 C.ar      1 UNK         0.0000 
      7 C7          3.4092   53.9746   25.7644 C.ar      1 UNK         0.0000 
      8 N8          1.4739   53.0172   24.7456 N.am      1 UNK         0.0000 
      9 C9          1.1034   51.7814   24.3317 C.2       1 UNK         0.0000 
     10 O10         1.8360   51.0373   23.6789 O.2       1 UNK         0.0000 
     11 C11        -0.2823   51.2403   24.7477 C.3       1 UNK         0.0000 
     12 H12        -0.4658   50.4098   24.0631 H         1 UNK         0.0000 
     13 C13        -0.2758   50.6838   26.2154 C.3       1 UNK         0.0000 
     14 H14         0.3982   49.8247   26.2105 H         1 UNK         0.0000 
     15 N15        -1.5869   50.0967   26.4817 N.3       1 UNK         0.0000 
     16 N16        -2.6544   50.9817   26.3674 N.pl3     1 UNK         0.0000 
     17 C17        -3.7941   51.0145   27.1342 C.ar      1 UNK         0.0000 
     18 N18        -4.5837   51.9824   26.7383 N.2       1 UNK         0.0000 
     19 N19        -3.9474   52.6268   25.6785 N.2       1 UNK         0.0000 
     20 C20        -2.8023   52.0214   25.4753 C.ar      1 UNK         0.0000 
     21 S21        -1.5559   52.4973   24.3142 S.3       1 UNK         0.0000 
     22 C22        -4.0831   50.0637   28.2772 C.3       1 UNK         0.0000 
     23 C23         0.2716   51.6115   27.3178 C.ar      1 UNK         0.0000 
     24 C24        -0.4078   52.7668   27.6922 C.ar      1 UNK         0.0000 
     25 C25         0.1277   53.6345   28.6291 C.ar      1 UNK         0.0000 
     26 C26         1.3761   53.4003   29.2135 C.ar      1 UNK         0.0000 
     27 C27         2.0437   52.2152   28.8812 C.ar      1 UNK         0.0000 
     28 C28         1.4901   51.3308   27.9471 C.ar      1 UNK         0.0000 
     29 Br29        3.7248   51.8040   29.6818 Br        1 UNK         0.0000 
     30 O30         1.9807   54.2926   30.0817 O.3       1 UNK         0.0000 
     31 C31         1.3111   55.5206   30.3811 C.3       1 UNK         0.0000 
     32 C32         2.7391   53.4148   22.0201 C.3       1 UNK         0.0000 
     33 H33         4.7290   55.1214   27.7802 H         1 UNK         0.0000 
     34 H34         6.0523   54.0097   27.3861 H         1 UNK         0.0000 
     35 H35         6.0889   55.6919   26.8323 H         1 UNK         0.0000 
     36 H36         6.4353   54.8057   24.4658 H         1 UNK         0.0000 
     37 H37         5.2875   54.1732   22.3926 H         1 UNK         0.0000 
     38 H38         2.9025   53.9018   26.7156 H         1 UNK         0.0000 
     39 H39         0.8654   53.4753   25.4063 H         1 UNK         0.0000 
     40 H40        -1.6370   49.5624   27.3602 H         1 UNK         0.0000 
     41 H41        -5.0328   50.2771   28.7672 H         1 UNK         0.0000 
     42 H42        -4.1234   49.0289   27.9361 H         1 UNK         0.0000 
     43 H43        -3.3081   50.1076   29.0447 H         1 UNK         0.0000 
     44 H44        -1.3526   53.0333   27.2568 H         1 UNK         0.0000 
     45 H45        -0.4580   54.4950   28.8754 H         1 UNK         0.0000 
     46 H46         2.0222   50.4310   27.6822 H         1 UNK         0.0000 
     47 H47         1.9050   56.1317   31.0568 H         1 UNK         0.0000 
     48 H48         1.1430   56.1154   29.4814 H         1 UNK         0.0000 
     49 H49         0.3540   55.3405   30.8735 H         1 UNK         0.0000 
     50 H50         2.9107   52.3883   21.6954 H         1 UNK         0.0000 
     51 H51         1.6667   53.6020   22.0760 H         1 UNK         0.0000 
     52 H52         3.1201   54.0822   21.2470 H         1 UNK         0.0000 
@<TRIPOS>BOND
     1    1    2 1    
     2    1   33 1    
     3    1   34 1    
     4    1   35 1    
     5    2    7 ar   
     6    2    3 ar   
     7    3    4 ar   
     8    3   36 1    
     9    4    5 ar   
    10    4   37 1    
    11    5    6 ar   
    12    5   32 1    
    13    6    7 ar   
    14    6    8 1    
    15    7   38 1    
    16    8    9 am   BACKBONE|DICT|INTERRES
    17    8   39 1    
    18    9   10 2    
    19    9   11 1    
    20   11   12 1    
    21   11   21 1    
    22   11   13 1    
    23   13   14 1    
    24   13   15 1    
    25   13   23 1    
    26   15   16 1    
    27   15   40 1    
    28   16   20 ar   
    29   16   17 ar   
    30   17   18 ar   
    31   17   22 1    
    32   18   19 ar   
    33   19   20 ar   
    34   20   21 1    
    35   22   41 1    
    36   22   42 1    
    37   22   43 1    
    38   23   28 ar   
    39   23   24 ar   
    40   24   25 ar   
    41   24   44 1    
    42   25   26 ar   
    43   25   45 1    
    44   26   27 ar   
    45   26   30 1    
    46   27   28 ar   
    47   27   29 1    
    48   28   46 1    
    49   30   31 1    
    50   31   47 1    
    51   31   48 1    
    52   31   49 1    
    53   32   50 1    
    54   32   51 1    
    55   32   52 1    
@<TRIPOS>SUBSTRUCTURE
     1 UNK         1 GROUP             0       ****    0 ROOT    
