@<TRIPOS>MOLECULE
ZINC03840838_1016
73   76    1
SMALL
USER_CHARGES


@<TRIPOS>ATOM
      1 C1         -8.7269   50.9276   24.8662 C.3       1 UNK         0.0000 
      2 C2         -7.7372   49.8571   24.4437 C.ar      1 UNK         0.0000 
      3 C3         -7.6778   48.6537   25.1494 C.ar      1 UNK         0.0000 
      4 C4         -6.7722   47.6661   24.7677 C.ar      1 UNK         0.0000 
      5 C5         -5.9308   47.8857   23.6743 C.ar      1 UNK         0.0000 
      6 C6         -5.9904   49.0896   22.9652 C.ar      1 UNK         0.0000 
      7 C7         -6.8954   50.0745   23.3493 C.ar      1 UNK         0.0000 
      8 S8         -4.7256   46.6426   23.2137 S.o2      1 UNK         0.0000 
      9 O9         -4.3274   46.8859   21.8214 O.2       1 UNK         0.0000 
     10 O10        -5.2187   45.3324   23.6563 O.2       1 UNK         0.0000 
     11 N11        -3.3271   46.9882   24.2276 N.pl3     1 UNK         0.0000 
     12 C12        -2.4123   47.9708   23.9752 C.2       1 UNK         0.0000 
     13 N13        -2.6554   49.1224   23.4010 N.2       1 UNK         0.0000 
     14 C14        -1.5895   49.9035   23.3752 C.2       1 UNK         0.0000 
     15 C15        -0.4340   49.3423   23.9343 C.2       1 UNK         0.0000 
     16 S16        -0.7853   47.7395   24.4966 S.3       1 UNK         0.0000 
     17 C17         0.9245   50.0076   24.0059 C.3       1 UNK         0.0000 
     18 C18         0.7089   51.5536   23.9725 C.3       1 UNK         0.0000 
     19 C19         2.0426   52.3292   23.8231 C.3       1 UNK         0.0000 
     20 C20         2.7819   52.0031   22.5196 C.3       1 UNK         0.0000 
     21 C21         1.9346   52.3622   21.2775 C.3       1 UNK         0.0000 
     22 H22         1.7698   53.4329   21.3822 H         1 UNK         0.0000 
     23 C23         0.5103   51.7209   21.3916 C.3       1 UNK         0.0000 
     24 H24         0.6294   50.6410   21.3137 H         1 UNK         0.0000 
     25 C25        -0.2147   51.9673   22.7637 C.3       1 UNK         0.0000 
     26 H26        -0.3252   53.0464   22.8502 H         1 UNK         0.0000 
     27 C27        -1.6562   51.3244   22.8015 C.3       1 UNK         0.0000 
     28 H28        -2.0259   51.2242   21.7815 H         1 UNK         0.0000 
     29 C29        -2.7129   52.2125   23.4989 C.3       1 UNK         0.0000 
     30 O30        -0.2896   52.0951   20.2810 O.3       1 UNK         0.0000 
     31 C31         2.6637   52.1249   19.8974 C.3       1 UNK         0.0000 
     32 H32         2.0622   52.5993   19.1311 H         1 UNK         0.0000 
     33 C33         2.6806   50.6302   19.4845 C.3       1 UNK         0.0000 
     34 C34         4.1164   52.6964   19.8430 C.2       1 UNK         0.0000 
     35 O35         4.9895   52.0954   20.4816 O.2       1 UNK         0.0000 
     36 N36         4.4360   53.7985   19.1078 N.am      1 UNK         0.0000 
     37 C37         3.5046   54.6569   18.3702 C.3       1 UNK         0.0000 
     38 C38         5.8394   54.2231   18.9396 C.3       1 UNK         0.0000 
     39 C39         6.4527   55.0539   20.0625 C.2       1 UNK         0.0000 
     40 C40         5.9148   55.2967   21.2693 C.2       1 UNK         0.0000 
     41 C41         0.0953   52.0085   25.3251 C.3       1 UNK         0.0000 
     42 H42        -9.7076   50.4835   25.0415 H         1 UNK         0.0000 
     43 H43        -8.4040   51.3971   25.7952 H         1 UNK         0.0000 
     44 H44        -8.8509   51.6961   24.1024 H         1 UNK         0.0000 
     45 H45        -8.3267   48.4864   25.9980 H         1 UNK         0.0000 
     46 H46        -6.7204   46.7415   25.3241 H         1 UNK         0.0000 
     47 H47        -5.3338   49.2686   22.1264 H         1 UNK         0.0000 
     48 H48        -6.9358   51.0055   22.8010 H         1 UNK         0.0000 
     49 H49        -3.3202   46.4953   25.1066 H         1 UNK         0.0000 
     50 H50         1.4862   49.6522   23.1443 H         1 UNK         0.0000 
     51 H51         1.4938   49.6851   24.8806 H         1 UNK         0.0000 
     52 H52         2.7022   52.0967   24.6594 H         1 UNK         0.0000 
     53 H53         1.8695   53.4052   23.8897 H         1 UNK         0.0000 
     54 H54         3.0955   50.9604   22.4817 H         1 UNK         0.0000 
     55 H55         3.7064   52.5764   22.5247 H         1 UNK         0.0000 
     56 H56        -3.7172   51.8094   23.3592 H         1 UNK         0.0000 
     57 H57        -2.5497   52.2963   24.5721 H         1 UNK         0.0000 
     58 H58        -2.7134   53.2235   23.0919 H         1 UNK         0.0000 
     59 H59         0.1687   51.8271   19.4801 H         1 UNK         0.0000 
     60 H60         3.1044   50.5013   18.4874 H         1 UNK         0.0000 
     61 H61         3.2637   50.0202   20.1741 H         1 UNK         0.0000 
     62 H62         1.6827   50.1980   19.4244 H         1 UNK         0.0000 
     63 H63         2.4552   54.4063   18.4812 H         1 UNK         0.0000 
     64 H64         3.6186   55.6893   18.7027 H         1 UNK         0.0000 
     65 H65         3.7324   54.6265   17.3016 H         1 UNK         0.0000 
     66 H66         5.9755   54.7307   17.9836 H         1 UNK         0.0000 
     67 H67         6.4699   53.3353   18.8466 H         1 UNK         0.0000 
     68 H68         7.4259   55.4746   19.8429 H         1 UNK         0.0000 
     69 H69         4.9468   54.9034   21.5505 H         1 UNK         0.0000 
     70 H70         6.4429   55.8948   21.9989 H         1 UNK         0.0000 
     71 H71        -0.7735   51.4200   25.6173 H         1 UNK         0.0000 
     72 H72         0.8112   51.9150   26.1422 H         1 UNK         0.0000 
     73 H73        -0.2158   53.0518   25.2805 H         1 UNK         0.0000 
@<TRIPOS>BOND
     1    1    2 1    
     2    1   42 1    
     3    1   43 1    
     4    1   44 1    
     5    2    7 ar   
     6    2    3 ar   
     7    3    4 ar   
     8    3   45 1    
     9    4    5 ar   
    10    4   46 1    
    11    5    6 ar   
    12    5    8 1    
    13    6    7 ar   
    14    6   47 1    
    15    7   48 1    
    16    8    9 2    
    17    8   10 2    
    18    8   11 1    
    19   11   12 1    
    20   11   49 1    
    21   12   16 1    
    22   12   13 2    
    23   13   14 1    
    24   14   27 1    
    25   14   15 2    
    26   15   16 1    
    27   15   17 1    
    28   17   18 1    
    29   17   50 1    
    30   17   51 1    
    31   18   25 1    
    32   18   19 1    
    33   18   41 1    
    34   19   20 1    
    35   19   52 1    
    36   19   53 1    
    37   20   21 1    
    38   20   54 1    
    39   20   55 1    
    40   21   22 1    
    41   21   23 1    
    42   21   31 1    
    43   23   24 1    
    44   23   25 1    
    45   23   30 1    
    46   25   26 1    
    47   25   27 1    
    48   27   28 1    
    49   27   29 1    
    50   29   56 1    
    51   29   57 1    
    52   29   58 1    
    53   30   59 1    
    54   31   32 1    
    55   31   33 1    
    56   31   34 1    
    57   33   60 1    
    58   33   61 1    
    59   33   62 1    
    60   34   35 2    
    61   34   36 am   BACKBONE|DICT|INTERRES
    62   36   37 1    
    63   36   38 1    
    64   37   63 1    
    65   37   64 1    
    66   37   65 1    
    67   38   39 1    
    68   38   66 1    
    69   38   67 1    
    70   39   40 2    
    71   39   68 1    
    72   40   69 1    
    73   40   70 1    
    74   41   71 1    
    75   41   72 1    
    76   41   73 1    
@<TRIPOS>SUBSTRUCTURE
     1 UNK         1 GROUP             0       ****    0 ROOT    
