@<TRIPOS>MOLECULE
ZINC30986470_1458
45   48    1
SMALL
USER_CHARGES


@<TRIPOS>ATOM
      1 C1          2.0177   48.1642   18.5043 C.3       1 UNK         0.0000 
      2 O2          1.8049   48.6841   19.8082 O.3       1 UNK         0.0000 
      3 C3          0.5596   48.7461   20.3474 C.2       1 UNK         0.0000 
      4 O4         -0.4731   48.3606   19.7969 O.2       1 UNK         0.0000 
      5 C5          0.5752   49.2963   21.7049 C.ar      1 UNK         0.0000 
      6 C6         -0.4121   49.4306   22.6777 C.ar      1 UNK         0.0000 
      7 C7          0.1685   49.9862   23.8351 C.ar      1 UNK         0.0000 
      8 C8          1.5035   50.2081   23.5106 C.ar      1 UNK         0.0000 
      9 N9          1.7451   49.7740   22.2371 N.pl3     1 UNK         0.0000 
     10 H10         2.6330   49.8000   21.7543 H         1 UNK         0.0000 
     11 C11        -0.4781   50.3060   25.1071 C.2       1 UNK         0.0000 
     12 C12        -1.8409   50.5703   25.2597 C.2       1 UNK         0.0000 
     13 S13        -2.1684   51.1014   26.8822 S.3       1 UNK         0.0000 
     14 C14        -0.4830   50.8985   27.2219 C.2       1 UNK         0.0000 
     15 N15         0.2330   50.4355   26.2196 N.2       1 UNK         0.0000 
     16 N16        -0.0118   51.2983   28.4684 N.am      1 UNK         0.0000 
     17 C17         1.0534   52.0874   28.7655 C.2       1 UNK         0.0000 
     18 O18         1.3642   52.2566   29.9439 O.2       1 UNK         0.0000 
     19 C19         1.8932   52.7409   27.6837 C.ar      1 UNK         0.0000 
     20 C20         3.2622   52.9649   27.8773 C.ar      1 UNK         0.0000 
     21 C21         4.0541   53.4490   26.8326 C.ar      1 UNK         0.0000 
     22 C22         3.5059   53.6988   25.5696 C.ar      1 UNK         0.0000 
     23 C23         2.1103   53.5588   25.3992 C.ar      1 UNK         0.0000 
     24 C24         1.3369   53.1402   26.4684 C.ar      1 UNK         0.0000 
     25 O25         1.4243   53.8454   24.2380 O.3       1 UNK         0.0000 
     26 C26         1.9287   54.8947   23.4361 C.3       1 UNK         0.0000 
     27 C27         3.0478   54.4385   22.5041 C.3       1 UNK         0.0000 
     28 C28         4.0053   53.5019   23.2243 C.3       1 UNK         0.0000 
     29 O29         4.3692   53.9768   24.5248 O.3       1 UNK         0.0000 
     30 H30         3.0887   48.0788   18.3193 H         1 UNK         0.0000 
     31 H31         1.5910   48.8220   17.7464 H         1 UNK         0.0000 
     32 H32         1.5784   47.1720   18.3943 H         1 UNK         0.0000 
     33 H33        -1.4458   49.1373   22.5690 H         1 UNK         0.0000 
     34 H34         2.3043   50.6414   24.0817 H         1 UNK         0.0000 
     35 H35        -2.6243   50.5318   24.5189 H         1 UNK         0.0000 
     36 H36        -0.5749   51.0033   29.2535 H         1 UNK         0.0000 
     37 H37         3.7343   52.7101   28.8158 H         1 UNK         0.0000 
     38 H38         5.1193   53.5522   26.9773 H         1 UNK         0.0000 
     39 H39         0.2750   53.0756   26.2983 H         1 UNK         0.0000 
     40 H40         2.2712   55.6967   24.0823 H         1 UNK         0.0000 
     41 H41         1.1043   55.2961   22.8561 H         1 UNK         0.0000 
     42 H42         3.5808   55.2967   22.1001 H         1 UNK         0.0000 
     43 H43         2.6236   53.9128   21.6496 H         1 UNK         0.0000 
     44 H44         4.9105   53.3538   22.6347 H         1 UNK         0.0000 
     45 H45         3.5111   52.5276   23.2760 H         1 UNK         0.0000 
@<TRIPOS>BOND
     1    1    2 1    
     2    1   30 1    
     3    1   31 1    
     4    1   32 1    
     5    2    3 1    
     6    3    4 2    
     7    3    5 1    
     8    5    9 ar   
     9    5    6 ar   
    10    6    7 ar   
    11    6   33 1    
    12    7    8 ar   
    13    7   11 1    
    14    8    9 ar   
    15    8   34 1    
    16    9   10 1    
    17   11   15 1    
    18   11   12 2    
    19   12   13 1    
    20   12   35 1    
    21   13   14 1    
    22   14   15 2    
    23   14   16 am   BACKBONE|DICT|INTERRES
    24   16   17 am   BACKBONE|DICT|INTERRES
    25   16   36 1    
    26   17   18 2    
    27   17   19 1    
    28   19   24 ar   
    29   19   20 ar   
    30   20   21 ar   
    31   20   37 1    
    32   21   22 ar   
    33   21   38 1    
    34   22   29 1    
    35   22   23 ar   
    36   23   24 ar   
    37   23   25 1    
    38   24   39 1    
    39   25   26 1    
    40   26   27 1    
    41   26   40 1    
    42   26   41 1    
    43   27   28 1    
    44   27   42 1    
    45   27   43 1    
    46   28   29 1    
    47   28   44 1    
    48   28   45 1    
@<TRIPOS>SUBSTRUCTURE
     1 UNK         1 GROUP             0       ****    0 ROOT    
