@<TRIPOS>MOLECULE
ZINC04366898_4258
56   58    1
SMALL
USER_CHARGES


@<TRIPOS>ATOM
      1 C1          5.8772   54.6554   28.0838 C.3       1 UNK         0.0000 
      2 C2          4.9866   53.7351   27.2216 C.3       1 UNK         0.0000 
      3 H3          5.3740   52.7190   27.3366 H         1 UNK         0.0000 
      4 C4          5.1077   54.0176   25.7083 C.ar      1 UNK         0.0000 
      5 C5          6.3797   54.0979   25.1273 C.ar      1 UNK         0.0000 
      6 C6          6.5249   54.2140   23.7474 C.ar      1 UNK         0.0000 
      7 C7          5.3988   54.2339   22.9321 C.ar      1 UNK         0.0000 
      8 C8          4.1254   54.1729   23.4880 C.ar      1 UNK         0.0000 
      9 C9          3.9793   54.0862   24.8694 C.ar      1 UNK         0.0000 
     10 N10         3.5916   53.6435   27.6680 N.am      1 UNK         0.0000 
     11 C11         3.1097   53.1746   28.8321 C.2       1 UNK         0.0000 
     12 O12         3.7692   53.0669   29.8665 O.2       1 UNK         0.0000 
     13 C13         1.6756   52.6955   28.7533 C.ar      1 UNK         0.0000 
     14 C14         1.3161   51.9004   27.6556 C.ar      1 UNK         0.0000 
     15 C15         0.0639   51.2937   27.5567 C.ar      1 UNK         0.0000 
     16 C16        -0.8298   51.4226   28.6109 C.ar      1 UNK         0.0000 
     17 C17        -0.4915   52.1910   29.7191 C.ar      1 UNK         0.0000 
     18 C18         0.7342   52.8775   29.7960 C.ar      1 UNK         0.0000 
     19 N19         0.9740   53.7538   30.8821 N.pl3     1 UNK         0.0000 
     20 C20         0.3048   53.5076   32.1598 C.3       1 UNK         0.0000 
     21 C21         1.1250   55.1625   30.5176 C.3       1 UNK         0.0000 
     22 N22        -0.2890   50.4633   26.4811 N.am      1 UNK         0.0000 
     23 C23         0.0901   50.6185   25.1969 C.2       1 UNK         0.0000 
     24 O24         0.7114   51.5966   24.7710 O.2       1 UNK         0.0000 
     25 N25        -0.2813   49.5689   24.4398 N.am      1 UNK         0.0000 
     26 C26         0.0584   49.3556   23.0930 C.ar      1 UNK         0.0000 
     27 C27         1.3129   49.6969   22.5595 C.ar      1 UNK         0.0000 
     28 C28         1.5986   49.4467   21.2169 C.ar      1 UNK         0.0000 
     29 C29         0.6364   48.8526   20.4003 C.ar      1 UNK         0.0000 
     30 C30        -0.6051   48.4983   20.9283 C.ar      1 UNK         0.0000 
     31 C31        -0.8916   48.7411   22.2721 C.ar      1 UNK         0.0000 
     32 F32        -1.5314   47.9097   20.1390 F         1 UNK         0.0000 
     33 H33         6.9360   54.4437   27.9344 H         1 UNK         0.0000 
     34 H34         5.7210   55.6967   27.8303 H         1 UNK         0.0000 
     35 H35         5.6978   54.5433   29.1519 H         1 UNK         0.0000 
     36 H36         7.2648   54.0367   25.7396 H         1 UNK         0.0000 
     37 H37         7.5065   54.2674   23.3045 H         1 UNK         0.0000 
     38 H38         5.5115   54.3064   21.8603 H         1 UNK         0.0000 
     39 H39         3.2540   54.1950   22.8494 H         1 UNK         0.0000 
     40 H40         2.9743   54.0183   25.2564 H         1 UNK         0.0000 
     41 H41         2.9131   53.7214   26.9257 H         1 UNK         0.0000 
     42 H42         2.0381   51.7011   26.8817 H         1 UNK         0.0000 
     43 H43        -1.7798   50.9061   28.5901 H         1 UNK         0.0000 
     44 H44        -1.2140   52.2482   30.5176 H         1 UNK         0.0000 
     45 H45         0.4362   52.4680   32.4611 H         1 UNK         0.0000 
     46 H46         0.7042   54.1334   32.9571 H         1 UNK         0.0000 
     47 H47        -0.7649   53.6964   32.0986 H         1 UNK         0.0000 
     48 H48         2.0415   55.3525   29.9607 H         1 UNK         0.0000 
     49 H49         0.3046   55.4689   29.8772 H         1 UNK         0.0000 
     50 H50         1.1086   55.8146   31.3915 H         1 UNK         0.0000 
     51 H51        -0.8958   49.6885   26.7203 H         1 UNK         0.0000 
     52 H52        -0.9179   48.9026   24.8489 H         1 UNK         0.0000 
     53 H53         2.0742   50.1437   23.1825 H         1 UNK         0.0000 
     54 H54         2.5648   49.7096   20.8094 H         1 UNK         0.0000 
     55 H55         0.8565   48.6598   19.3604 H         1 UNK         0.0000 
     56 H56        -1.8581   48.4603   22.6637 H         1 UNK         0.0000 
@<TRIPOS>BOND
     1    1    2 1    
     2    1   33 1    
     3    1   34 1    
     4    1   35 1    
     5    2    3 1    
     6    2    4 1    
     7    2   10 1    
     8    4    9 ar   
     9    4    5 ar   
    10    5    6 ar   
    11    5   36 1    
    12    6    7 ar   
    13    6   37 1    
    14    7    8 ar   
    15    7   38 1    
    16    8    9 ar   
    17    8   39 1    
    18    9   40 1    
    19   10   11 am   BACKBONE|DICT|INTERRES
    20   10   41 1    
    21   11   12 2    
    22   11   13 1    
    23   13   18 ar   
    24   13   14 ar   
    25   14   15 ar   
    26   14   42 1    
    27   15   16 ar   
    28   15   22 1    
    29   16   17 ar   
    30   16   43 1    
    31   17   18 ar   
    32   17   44 1    
    33   18   19 1    
    34   19   20 1    
    35   19   21 1    
    36   20   45 1    
    37   20   46 1    
    38   20   47 1    
    39   21   48 1    
    40   21   49 1    
    41   21   50 1    
    42   22   23 am   BACKBONE|DICT|INTERRES
    43   22   51 1    
    44   23   24 2    
    45   23   25 am   BACKBONE|DICT|INTERRES
    46   25   26 1    
    47   25   52 1    
    48   26   31 ar   
    49   26   27 ar   
    50   27   28 ar   
    51   27   53 1    
    52   28   29 ar   
    53   28   54 1    
    54   29   30 ar   
    55   29   55 1    
    56   30   31 ar   
    57   30   32 1    
    58   31   56 1    
@<TRIPOS>SUBSTRUCTURE
     1 UNK         1 GROUP             0       ****    0 ROOT    
