@<TRIPOS>MOLECULE
ZINC56736381_1386
48   50    1
SMALL
USER_CHARGES


@<TRIPOS>ATOM
      1 C1          4.0646   52.5700   28.4423 C.3       1 UNK         0.0000 
      2 C2          4.1993   54.0841   28.1979 C.3       1 UNK         0.0000 
      3 C3          2.7907   54.7108   28.3175 C.3       1 UNK         0.0000 
      4 C4          5.1147   54.6344   29.3131 C.3       1 UNK         0.0000 
      5 C5          4.8022   54.3301   26.8005 C.2       1 UNK         0.0000 
      6 N6          6.0533   54.6923   26.5878 N.2       1 UNK         0.0000 
      7 N7          6.4038   54.7976   25.2462 N.2       1 UNK         0.0000 
      8 C8          5.4171   54.4899   24.4448 C.2       1 UNK         0.0000 
      9 S9          3.9377   54.0977   25.2966 S.3       1 UNK         0.0000 
     10 N10         5.5857   54.4967   23.0627 N.am      1 UNK         0.0000 
     11 C11         4.7178   54.0966   22.0990 C.2       1 UNK         0.0000 
     12 O12         3.6210   53.5995   22.3674 O.2       1 UNK         0.0000 
     13 N13         5.1047   54.3472   20.8099 N.am      1 UNK         0.0000 
     14 C14         4.2909   53.8072   19.6915 C.3       1 UNK         0.0000 
     15 C15         4.1395   54.8910   18.5984 C.3       1 UNK         0.0000 
     16 C16         5.4784   55.4738   18.1296 C.3       1 UNK         0.0000 
     17 C17         6.2262   56.0089   19.3674 C.3       1 UNK         0.0000 
     18 H18         5.6668   56.8426   19.7978 H         1 UNK         0.0000 
     19 C19         6.4312   54.8968   20.4287 C.3       1 UNK         0.0000 
     20 C20         7.5852   56.6035   18.9290 C.2       1 UNK         0.0000 
     21 O21         8.6245   55.9914   19.1710 O.2       1 UNK         0.0000 
     22 N22         7.5275   57.8078   18.3156 N.am      1 UNK         0.0000 
     23 C23         8.5879   58.5844   17.8613 C.2       1 UNK         0.0000 
     24 N24         8.3542   59.6957   17.2114 N.2       1 UNK         0.0000 
     25 C25         9.4652   60.3203   16.8772 C.2       1 UNK         0.0000 
     26 C26        10.6572   59.7077   17.2564 C.2       1 UNK         0.0000 
     27 S27        10.2856   58.2276   18.0904 S.3       1 UNK         0.0000 
     28 H28         3.6160   52.3463   29.4118 H         1 UNK         0.0000 
     29 H29         5.0463   52.0960   28.4211 H         1 UNK         0.0000 
     30 H30         3.4423   52.0996   27.6818 H         1 UNK         0.0000 
     31 H31         2.8044   55.7855   28.1707 H         1 UNK         0.0000 
     32 H32         2.1000   54.2995   27.5801 H         1 UNK         0.0000 
     33 H33         2.3514   54.5264   29.2986 H         1 UNK         0.0000 
     34 H34         5.3166   55.6895   29.2186 H         1 UNK         0.0000 
     35 H35         4.6989   54.4841   30.3071 H         1 UNK         0.0000 
     36 H36         6.0909   54.1502   29.2811 H         1 UNK         0.0000 
     37 H37         6.4851   54.8311   22.7524 H         1 UNK         0.0000 
     38 H38         4.8059   52.9401   19.2763 H         1 UNK         0.0000 
     39 H39         3.2839   53.5201   20.0022 H         1 UNK         0.0000 
     40 H40         3.6070   54.4637   17.7482 H         1 UNK         0.0000 
     41 H41         3.5022   55.6936   18.9610 H         1 UNK         0.0000 
     42 H42         6.0211   54.6519   17.6578 H         1 UNK         0.0000 
     43 H43         5.2448   56.2633   17.4122 H         1 UNK         0.0000 
     44 H44         6.9802   55.3220   21.2664 H         1 UNK         0.0000 
     45 H45         7.0124   54.0988   19.9704 H         1 UNK         0.0000 
     46 H46         6.6145   58.1936   18.1277 H         1 UNK         0.0000 
     47 H47         9.3843   61.2495   16.3288 H         1 UNK         0.0000 
     48 H48        11.6766   60.0220   17.0858 H         1 UNK         0.0000 
@<TRIPOS>BOND
     1    1    2 1    
     2    1   28 1    
     3    1   29 1    
     4    1   30 1    
     5    2    3 1    
     6    2    4 1    
     7    2    5 1    
     8    3   31 1    
     9    3   32 1    
    10    3   33 1    
    11    4   34 1    
    12    4   35 1    
    13    4   36 1    
    14    5    9 1    
    15    5    6 2    
    16    6    7 1    
    17    7    8 2    
    18    8    9 1    
    19    8   10 am   BACKBONE|DICT|INTERRES
    20   10   11 am   BACKBONE|DICT|INTERRES
    21   10   37 1    
    22   11   12 2    
    23   11   13 am   BACKBONE|DICT|INTERRES
    24   13   19 1    
    25   13   14 1    
    26   14   15 1    
    27   14   38 1    
    28   14   39 1    
    29   15   16 1    
    30   15   40 1    
    31   15   41 1    
    32   16   17 1    
    33   16   42 1    
    34   16   43 1    
    35   17   18 1    
    36   17   19 1    
    37   17   20 1    
    38   19   44 1    
    39   19   45 1    
    40   20   21 2    
    41   20   22 am   BACKBONE|DICT|INTERRES
    42   22   23 am   BACKBONE|DICT|INTERRES
    43   22   46 1    
    44   23   27 1    
    45   23   24 2    
    46   24   25 1    
    47   25   26 2    
    48   25   47 1    
    49   26   27 1    
    50   26   48 1    
@<TRIPOS>SUBSTRUCTURE
     1 UNK         1 GROUP             0       ****    0 ROOT    
