@<TRIPOS>MOLECULE
ZINC32972021_5919
62   64    1
SMALL
USER_CHARGES


@<TRIPOS>ATOM
      1 C1          0.6688   50.1794   20.3180 C.3       1 UNK         0.0000 
      2 C2          0.2202   48.8841   21.0221 C.3       1 UNK         0.0000 
      3 N3         -0.0485   49.0171   22.4648 N.pl3     1 UNK         0.0000 
      4 C4          0.6559   49.6699   23.4564 C.ar      1 UNK         0.0000 
      5 C5         -0.0209   49.3739   24.6554 C.ar      1 UNK         0.0000 
      6 C6         -1.0889   48.5358   24.2473 C.ar      1 UNK         0.0000 
      7 N7         -1.0907   48.3373   22.9506 N.2       1 UNK         0.0000 
      8 C8         -2.1866   47.8725   25.0614 C.3       1 UNK         0.0000 
      9 C9          0.3043   49.8506   26.0809 C.3       1 UNK         0.0000 
     10 N10         0.4405   51.3116   26.1094 N.2       1 UNK         0.0000 
     11 C11        -0.2202   51.9593   27.0103 C.2       1 UNK         0.0000 
     12 N12        -1.5894   52.1670   26.8379 N.pl3     1 UNK         0.0000 
     13 C13        -2.4727   51.9190   25.7681 C.ar      1 UNK         0.0000 
     14 C14        -2.0643   52.0131   24.4303 C.ar      1 UNK         0.0000 
     15 C15        -2.9331   51.6746   23.3973 C.ar      1 UNK         0.0000 
     16 C16        -4.2431   51.2963   23.6859 C.ar      1 UNK         0.0000 
     17 C17        -4.6800   51.2552   25.0093 C.ar      1 UNK         0.0000 
     18 C18        -3.7996   51.5505   26.0539 C.ar      1 UNK         0.0000 
     19 O19        -4.2660   51.4746   27.3461 O.3       1 UNK         0.0000 
     20 C20        -3.9654   50.2467   28.0017 C.3       1 UNK         0.0000 
     21 Cl21       -2.3711   51.6967   21.7678 Cl        1 UNK         0.0000 
     22 N22         0.2844   52.5502   28.0356 N.am      1 UNK         0.0000 
     23 C23         1.6240   52.5559   28.4297 C.2       1 UNK         0.0000 
     24 O24         1.9148   52.0850   29.5326 O.2       1 UNK         0.0000 
     25 C25         2.7044   53.1992   27.5645 C.ar      1 UNK         0.0000 
     26 C26         2.4586   53.6797   26.2676 C.ar      1 UNK         0.0000 
     27 C27         3.4959   54.1278   25.4521 C.ar      1 UNK         0.0000 
     28 C28         4.7925   54.2096   25.9608 C.ar      1 UNK         0.0000 
     29 C29         5.0587   53.7962   27.2674 C.ar      1 UNK         0.0000 
     30 C30         4.0188   53.2967   28.0578 C.ar      1 UNK         0.0000 
     31 C31         6.4708   53.8742   27.8175 C.3       1 UNK         0.0000 
     32 C32         3.1993   54.5090   24.0156 C.3       1 UNK         0.0000 
     33 C33         1.8909   50.5111   23.1705 C.3       1 UNK         0.0000 
     34 H34         0.5573   50.0798   19.2373 H         1 UNK         0.0000 
     35 H35         0.0863   51.0451   20.6300 H         1 UNK         0.0000 
     36 H36         1.7219   50.3919   20.4965 H         1 UNK         0.0000 
     37 H37         0.9650   48.0985   20.8805 H         1 UNK         0.0000 
     38 H38        -0.6957   48.5366   20.5336 H         1 UNK         0.0000 
     39 H39        -3.0658   48.5138   25.1354 H         1 UNK         0.0000 
     40 H40        -2.5128   46.9265   24.6293 H         1 UNK         0.0000 
     41 H41        -1.8690   47.6495   26.0817 H         1 UNK         0.0000 
     42 H42         1.2189   49.3710   26.4278 H         1 UNK         0.0000 
     43 H43        -0.4613   49.4784   26.7602 H         1 UNK         0.0000 
     44 H44        -1.0502   52.2975   24.1910 H         1 UNK         0.0000 
     45 H45        -4.9226   51.0345   22.8877 H         1 UNK         0.0000 
     46 H46        -5.6988   50.9704   25.2279 H         1 UNK         0.0000 
     47 H47        -4.4502   50.2214   28.9764 H         1 UNK         0.0000 
     48 H48        -4.3178   49.3858   27.4325 H         1 UNK         0.0000 
     49 H49        -2.8956   50.1351   28.1680 H         1 UNK         0.0000 
     50 H50        -2.0471   52.4258   27.6926 H         1 UNK         0.0000 
     51 H51         1.4653   53.6619   25.8467 H         1 UNK         0.0000 
     52 H52         5.5971   54.5721   25.3367 H         1 UNK         0.0000 
     53 H53         4.2501   52.9487   29.0559 H         1 UNK         0.0000 
     54 H54         6.9921   52.9296   27.6680 H         1 UNK         0.0000 
     55 H55         7.0380   54.6704   27.3369 H         1 UNK         0.0000 
     56 H56         6.4609   54.0966   28.8832 H         1 UNK         0.0000 
     57 H57         3.8800   55.2848   23.6752 H         1 UNK         0.0000 
     58 H58         2.1901   54.9092   23.9138 H         1 UNK         0.0000 
     59 H59         3.2955   53.6380   23.3669 H         1 UNK         0.0000 
     60 H60         2.3044   50.9362   24.0810 H         1 UNK         0.0000 
     61 H61         2.6826   49.9331   22.6930 H         1 UNK         0.0000 
     62 H62         1.6654   51.3687   22.5368 H         1 UNK         0.0000 
@<TRIPOS>BOND
     1    1    2 1    
     2    1   34 1    
     3    1   35 1    
     4    1   36 1    
     5    2    3 1    
     6    2   37 1    
     7    2   38 1    
     8    3    7 ar   
     9    3    4 ar   
    10    4    5 ar   
    11    4   33 1    
    12    5    6 ar   
    13    5    9 1    
    14    6    7 ar   
    15    6    8 1    
    16    8   39 1    
    17    8   40 1    
    18    8   41 1    
    19    9   42 1    
    20    9   43 1    
    21    9   10 1    
    22   10   11 1    
    23   11   12 1    
    24   11   22 2    
    25   12   13 1    
    26   12   50 1    
    27   13   18 ar   
    28   13   14 ar   
    29   14   15 ar   
    30   14   44 1    
    31   15   16 ar   
    32   15   21 1    
    33   16   17 ar   
    34   16   45 1    
    35   17   18 ar   
    36   17   46 1    
    37   18   19 1    
    38   19   20 1    
    39   20   47 1    
    40   20   48 1    
    41   20   49 1    
    42   22   23 am   BACKBONE|DICT|INTERRES
    43   23   24 2    
    44   23   25 1    
    45   25   30 ar   
    46   25   26 ar   
    47   26   27 ar   
    48   26   51 1    
    49   27   28 ar   
    50   27   32 1    
    51   28   29 ar   
    52   28   52 1    
    53   29   30 ar   
    54   29   31 1    
    55   30   53 1    
    56   31   54 1    
    57   31   55 1    
    58   31   56 1    
    59   32   57 1    
    60   32   58 1    
    61   32   59 1    
    62   33   60 1    
    63   33   61 1    
    64   33   62 1    
@<TRIPOS>SUBSTRUCTURE
     1 UNK         1 GROUP             0       ****    0 ROOT    
