ZINC04045298_5573
                    3D
 Schrodinger Suite 2024-2.
 57 61  0  0  1  0            999 V2000
    3.6590   54.8212   29.3233 C   0  0  0  0  0  0
    3.4191   54.4736   27.9669 O   0  0  0  0  0  0
    2.3117   53.7042   27.6381 C   0  0  0  0  0  0
    1.3297   53.3288   28.5683 C   0  0  0  0  0  0
    0.2594   52.5350   28.1760 C   0  0  0  0  0  0
    0.1446   52.1251   26.8519 C   0  0  0  0  0  0
    1.0836   52.5026   25.8811 C   0  0  0  0  0  0
    2.1847   53.2746   26.3048 C   0  0  0  0  0  0
    3.1692   53.6966   25.3946 N   0  0  0  0  0  0
    2.8946   53.7921   23.9634 C   0  0  2  0  0  0
    2.2792   54.6876   23.8661 H   0  0  0  0  0  0
    2.0507   52.5694   23.4707 C   0  0  1  0  0  0
    2.7045   51.7200   23.2922 H   0  0  0  0  0  0
    0.9529   52.0226   24.4294 C   0  0  2  0  0  0
    1.0868   50.9384   24.4823 H   0  0  0  0  0  0
   -0.3744   52.2934   23.6936 C   0  0  1  0  0  0
   -0.6912   53.3157   23.9094 H   0  0  0  0  0  0
   -0.0457   52.1725   22.1921 C   0  0  1  0  0  0
   -0.8219   52.6968   21.6392 H   0  0  0  0  0  0
    1.3144   52.8721   22.1475 C   0  0  0  0  0  0
    0.0897   50.4674   21.5422 S   0  0  0  0  0  0
    0.5041   50.5063   19.8027 C   0  0  0  0  0  0
    0.6164   51.7386   19.1424 C   0  0  0  0  0  0
    1.0704   51.8091   17.8276 C   0  0  0  0  0  0
    1.4103   50.6439   17.1491 C   0  0  0  0  0  0
    1.2543   49.4092   17.7735 C   0  0  0  0  0  0
    0.7863   49.3169   19.0927 C   0  0  0  0  0  0
    0.5922   47.9692   19.6728 N   0  3  0  0  0  0
   -0.4151   47.7454   20.3366 O   0  0  0  0  0  0
    1.4190   47.1048   19.3967 O   0  5  0  0  0  0
   -1.6686   51.1447   24.1610 Cl  0  0  0  0  0  0
    4.1475   54.0968   23.1010 C   0  0  0  0  0  0
    4.0103   54.4515   21.7549 C   0  0  0  0  0  0
    5.1025   54.8189   20.9810 C   0  0  0  0  0  0
    6.3720   54.8967   21.5443 C   0  0  0  0  0  0
    6.5341   54.5179   22.8850 C   0  0  0  0  0  0
    5.4414   54.1031   23.6459 C   0  0  0  0  0  0
    7.5083   55.3723   20.7193 N   0  3  0  0  0  0
    8.5451   55.6963   21.2816 O   0  0  0  0  0  0
    7.3638   55.4466   19.5032 O   0  5  0  0  0  0
    4.6369   55.2961   29.4025 H   0  0  0  0  0  0
    3.6777   53.9449   29.9727 H   0  0  0  0  0  0
    2.9090   55.5288   29.6812 H   0  0  0  0  0  0
    1.3831   53.6345   29.6023 H   0  0  0  0  0  0
   -0.4822   52.2291   28.9011 H   0  0  0  0  0  0
   -0.6902   51.4915   26.5932 H   0  0  0  0  0  0
    3.8694   54.3441   25.7278 H   0  0  0  0  0  0
    1.1066   53.9389   22.0815 H   0  0  0  0  0  0
    1.9254   52.5625   21.3015 H   0  0  0  0  0  0
    0.3816   52.6662   19.6385 H   0  0  0  0  0  0
    1.1840   52.7678   17.3436 H   0  0  0  0  0  0
    1.7953   50.6896   16.1405 H   0  0  0  0  0  0
    1.5181   48.5170   17.2217 H   0  0  0  0  0  0
    3.0510   54.4934   21.2825 H   0  0  0  0  0  0
    4.9404   55.0953   19.9469 H   0  0  0  0  0  0
    7.5045   54.5497   23.3502 H   0  0  0  0  0  0
    5.6136   53.8240   24.6748 H   0  0  0  0  0  0
  1  2  1  0  0  0
  1 41  1  0  0  0
  1 42  1  0  0  0
  1 43  1  0  0  0
  2  3  1  0  0  0
  3  8  2  0  0  0
  3  4  1  0  0  0
  4  5  2  0  0  0
  4 44  1  0  0  0
  5  6  1  0  0  0
  5 45  1  0  0  0
  6  7  2  0  0  0
  6 46  1  0  0  0
  7 14  1  0  0  0
  7  8  1  0  0  0
  8  9  1  0  0  0
  9 10  1  0  0  0
  9 47  1  0  0  0
 10 11  1  0  0  0
 10 12  1  0  0  0
 10 32  1  0  0  0
 12 13  1  0  0  0
 12 20  1  0  0  0
 12 14  1  0  0  0
 14 15  1  0  0  0
 14 16  1  0  0  0
 16 17  1  0  0  0
 16 18  1  0  0  0
 16 31  1  0  0  0
 18 19  1  0  0  0
 18 20  1  0  0  0
 18 21  1  0  0  0
 20 48  1  0  0  0
 20 49  1  0  0  0
 21 22  1  0  0  0
 22 27  2  0  0  0
 22 23  1  0  0  0
 23 24  2  0  0  0
 23 50  1  0  0  0
 24 25  1  0  0  0
 24 51  1  0  0  0
 25 26  2  0  0  0
 25 52  1  0  0  0
 26 27  1  0  0  0
 26 53  1  0  0  0
 27 28  1  0  0  0
 28 29  2  0  0  0
 28 30  1  0  0  0
 32 37  2  0  0  0
 32 33  1  0  0  0
 33 34  2  0  0  0
 33 54  1  0  0  0
 34 35  1  0  0  0
 34 55  1  0  0  0
 35 36  2  0  0  0
 35 38  1  0  0  0
 36 37  1  0  0  0
 36 56  1  0  0  0
 37 57  1  0  0  0
 38 39  2  0  0  0
 38 40  1  0  0  0
M  CHG  4  28   1  30  -1  38   1  40  -1
M  END
> <i_i_glide_confnum>
14

> <i_i_glide_lignum>
5574

> <i_i_glide_posenum>
370

> <i_i_glide_rotatable_bonds>
6

> <i_m_Source_File_Index>
4148

> <b_m_subgroup_collapsed>
0

> <r_i_docking_score>
-4.77204

> <r_i_glide_ecoul>
-0.782712

> <r_i_glide_eff_state_penalty>
0

> <r_i_glide_einternal>
5.02592

> <r_i_glide_emodel>
-50.3731

> <r_i_glide_energy>
-40.2617

> <r_i_glide_erotb>
0.234585

> <r_i_glide_esite>
-0.0381339

> <r_i_glide_evdw>
-39.479

> <r_i_glide_gscore>
-4.77204

> <r_i_glide_hbond>
0

> <r_i_glide_ligand_efficiency>
-0.136344

> <r_i_glide_ligand_efficiency_ln>
-1.04757

> <r_i_glide_ligand_efficiency_sa>
-0.445991

> <r_i_glide_lipo>
-2.71088

> <r_i_glide_metal>
0

> <r_i_glide_rewards>
-0.166254

> <s_i_glide_gridfile>
wee1_glide-grid

> <s_m_Source_File>
wee1_decoys_glide_SP.sdf

> <s_m_Source_Path>
/Users/zhangxujun/Desktop

> <s_m_entry_id>
4423

> <s_m_entry_name>
wee1_decoys_glide_SP.4148

> <s_m_subgroup_title>
wee1_decoys_glide_SP

> <s_m_subgroupid>
wee1_decoys_glide_SP


$$$$
