@<TRIPOS>MOLECULE
ZINC44460423_1793
54   57    1
SMALL
USER_CHARGES


@<TRIPOS>ATOM
      1 C1          1.7603   49.4148   22.3293 C.3       1 UNK         0.0000 
      2 C2          1.4113   50.2377   21.0361 C.3       1 UNK         0.0000 
      3 C3          2.7653   50.4968   20.2547 C.3       1 UNK         0.0000 
      4 C4          3.3431   51.9371   20.4172 C.3       1 UNK         0.0000 
      5 H5          4.4063   51.9140   20.1784 H         1 UNK         0.0000 
      6 C6          3.1232   52.4487   21.8839 C.3       1 UNK         0.0000 
      7 H7          3.4739   51.6178   22.4816 H         1 UNK         0.0000 
      8 C8          1.6077   52.6485   22.1812 C.3       1 UNK         0.0000 
      9 H9          1.3105   53.6156   21.7710 H         1 UNK         0.0000 
     10 C10         0.7381   51.5868   21.4386 C.3       1 UNK         0.0000 
     11 H11         0.5519   52.0940   20.4968 H         1 UNK         0.0000 
     12 C12        -0.6687   51.2172   21.9139 C.3       1 UNK         0.0000 
     13 C13        -1.0748   50.0327   21.0089 C.3       1 UNK         0.0000 
     14 C14         0.2124   49.5157   20.2783 C.3       1 UNK         0.0000 
     15 C15         0.1231   49.8009   18.7303 C.2       1 UNK         0.0000 
     16 O16         0.3038   48.8950   17.9045 O.2       1 UNK         0.0000 
     17 C17        -0.1796   51.2331   18.2368 C.3       1 UNK         0.0000 
     18 O18        -0.4749   51.2376   16.8499 O.3       1 UNK         0.0000 
     19 O19         0.2662   48.0967   20.3819 O.3       1 UNK         0.0000 
     20 C20         1.4309   52.7494   23.7022 C.3       1 UNK         0.0000 
     21 C21         2.1156   54.0283   24.2163 C.3       1 UNK         0.0000 
     22 C22         3.6116   54.0382   23.8736 C.2       1 UNK         0.0000 
     23 C23         4.5285   54.4125   24.8020 C.2       1 UNK         0.0000 
     24 C24         5.9754   54.4341   24.5893 C.2       1 UNK         0.0000 
     25 O25         6.7686   54.9691   25.3627 O.2       1 UNK         0.0000 
     26 C26         6.3745   53.6965   23.3924 C.2       1 UNK         0.0000 
     27 C27         5.5049   53.2957   22.4390 C.2       1 UNK         0.0000 
     28 C28         4.0169   53.6384   22.4108 C.3       1 UNK         0.0000 
     29 C29         3.9033   54.8740   21.5123 C.3       1 UNK         0.0000 
     30 O30         2.7505   52.7909   19.4495 O.3       1 UNK         0.0000 
     31 H31         0.8714   49.1019   22.8772 H         1 UNK         0.0000 
     32 H32         2.2977   48.4990   22.0786 H         1 UNK         0.0000 
     33 H33         2.3824   49.9407   23.0462 H         1 UNK         0.0000 
     34 H34         3.5045   49.7679   20.5814 H         1 UNK         0.0000 
     35 H35         2.6401   50.3537   19.1821 H         1 UNK         0.0000 
     36 H36        -0.6382   50.8806   22.9514 H         1 UNK         0.0000 
     37 H37        -1.3591   52.0616   21.8852 H         1 UNK         0.0000 
     38 H38        -1.5116   49.2512   21.6340 H         1 UNK         0.0000 
     39 H39        -1.8758   50.3221   20.3267 H         1 UNK         0.0000 
     40 H40        -1.0131   51.6731   18.7829 H         1 UNK         0.0000 
     41 H41         0.6979   51.8598   18.3814 H         1 UNK         0.0000 
     42 H42         0.2165   50.7430   16.3976 H         1 UNK         0.0000 
     43 H43         0.7634   47.7802   19.6192 H         1 UNK         0.0000 
     44 H44         0.3689   52.8256   23.9374 H         1 UNK         0.0000 
     45 H45         1.7611   51.8456   24.2153 H         1 UNK         0.0000 
     46 H46         1.6276   54.9046   23.7908 H         1 UNK         0.0000 
     47 H47         1.9648   54.0972   25.2946 H         1 UNK         0.0000 
     48 H48         4.1702   54.6967   25.7802 H         1 UNK         0.0000 
     49 H49         7.4151   53.4282   23.2813 H         1 UNK         0.0000 
     50 H50         5.9038   52.7418   21.6072 H         1 UNK         0.0000 
     51 H51         2.9206   55.2967   21.6821 H         1 UNK         0.0000 
     52 H52         4.6678   55.6388   21.6818 H         1 UNK         0.0000 
     53 H53         4.0101   54.6438   20.4559 H         1 UNK         0.0000 
     54 H54         2.8580   53.7093   19.7169 H         1 UNK         0.0000 
@<TRIPOS>BOND
     1    1    2 1    
     2    1   31 1    
     3    1   32 1    
     4    1   33 1    
     5    2   10 1    
     6    2   14 1    
     7    2    3 1    
     8    3    4 1    
     9    3   34 1    
    10    3   35 1    
    11    4    5 1    
    12    4    6 1    
    13    4   30 1    
    14    6    7 1    
    15    6   28 1    
    16    6    8 1    
    17    8    9 1    
    18    8   10 1    
    19    8   20 1    
    20   10   11 1    
    21   10   12 1    
    22   12   13 1    
    23   12   36 1    
    24   12   37 1    
    25   13   14 1    
    26   13   38 1    
    27   13   39 1    
    28   14   15 1    
    29   14   19 1    
    30   15   16 2    
    31   15   17 1    
    32   17   18 1    
    33   17   40 1    
    34   17   41 1    
    35   18   42 1    
    36   19   43 1    
    37   20   21 1    
    38   20   44 1    
    39   20   45 1    
    40   21   22 1    
    41   21   46 1    
    42   21   47 1    
    43   22   28 1    
    44   22   23 2    
    45   23   24 1    
    46   23   48 1    
    47   24   25 2    
    48   24   26 1    
    49   26   27 2    
    50   26   49 1    
    51   27   28 1    
    52   27   50 1    
    53   28   29 1    
    54   29   51 1    
    55   29   52 1    
    56   29   53 1    
    57   30   54 1    
@<TRIPOS>SUBSTRUCTURE
     1 UNK         1 GROUP             0       ****    0 ROOT    
