@<TRIPOS>MOLECULE
ZINC65993688_1557
53   56    1
SMALL
USER_CHARGES


@<TRIPOS>ATOM
      1 C1          8.9091   56.5068   18.0933 C.3       1 UNK         0.0000 
      2 C2          7.5854   55.8567   17.7602 C.ar      1 UNK         0.0000 
      3 C3          6.6131   55.3158   18.6563 C.ar      1 UNK         0.0000 
      4 C4          6.4620   55.1698   20.0417 C.ar      1 UNK         0.0000 
      5 C5          5.3054   54.5219   20.5156 C.ar      1 UNK         0.0000 
      6 C6          4.3484   54.0960   19.5855 C.ar      1 UNK         0.0000 
      7 N7          4.4552   54.2361   18.2372 N.ar      1 UNK         0.0000 
      8 C8          5.5815   54.8287   17.8254 C.ar      1 UNK         0.0000 
      9 N9          5.9903   55.0960   16.5337 N.pl3     1 UNK         0.0000 
     10 N10         7.1903   55.7152   16.5164 N.2       1 UNK         0.0000 
     11 C11         5.3058   54.8096   15.2834 C.3       1 UNK         0.0000 
     12 N12         5.0297   54.2986   21.8789 N.am      1 UNK         0.0000 
     13 C13         5.8929   54.3299   22.9138 C.2       1 UNK         0.0000 
     14 O14         7.1044   54.4964   22.8198 O.2       1 UNK         0.0000 
     15 N15         5.2694   54.1844   24.0909 N.am      1 UNK         0.0000 
     16 C16         5.8925   54.2967   25.4195 C.3       1 UNK         0.0000 
     17 C17         6.6391   55.6324   25.6427 C.3       1 UNK         0.0000 
     18 C18         4.8879   54.0661   26.5515 C.ar      1 UNK         0.0000 
     19 C19         3.5306   54.3612   26.3958 C.ar      1 UNK         0.0000 
     20 C20         2.6324   54.0981   27.4230 C.ar      1 UNK         0.0000 
     21 C21         3.0611   53.5280   28.6308 C.ar      1 UNK         0.0000 
     22 C22         4.4282   53.2344   28.7771 C.ar      1 UNK         0.0000 
     23 C23         5.3292   53.5017   27.7501 C.ar      1 UNK         0.0000 
     24 N24         2.1014   53.3072   29.6617 N.am      1 UNK         0.0000 
     25 C25         0.7570   53.9024   29.6123 C.3       1 UNK         0.0000 
     26 C26         0.1214   53.6697   30.9571 C.3       1 UNK         0.0000 
     27 C27         0.9924   52.6380   31.6079 C.3       1 UNK         0.0000 
     28 C28         2.2503   52.4967   30.7531 C.2       1 UNK         0.0000 
     29 O29         3.2119   51.7998   31.0759 O.2       1 UNK         0.0000 
     30 H30         9.5715   55.8143   18.6148 H         1 UNK         0.0000 
     31 H31         9.4428   56.8515   17.2073 H         1 UNK         0.0000 
     32 H32         8.7774   57.3731   18.7417 H         1 UNK         0.0000 
     33 H33         7.2293   55.5444   20.7006 H         1 UNK         0.0000 
     34 H34         3.4403   53.6125   19.9165 H         1 UNK         0.0000 
     35 H35         5.0766   53.7445   15.2368 H         1 UNK         0.0000 
     36 H36         4.3768   55.3794   15.2461 H         1 UNK         0.0000 
     37 H37         5.9279   55.0802   14.4273 H         1 UNK         0.0000 
     38 H38         4.0750   54.0512   22.0871 H         1 UNK         0.0000 
     39 H39         4.3679   53.7339   24.0828 H         1 UNK         0.0000 
     40 H40         6.6222   53.4844   25.4764 H         1 UNK         0.0000 
     41 H41         7.0163   55.6968   26.6641 H         1 UNK         0.0000 
     42 H42         7.4939   55.7390   24.9743 H         1 UNK         0.0000 
     43 H43         5.9862   56.4866   25.4603 H         1 UNK         0.0000 
     44 H44         3.1610   54.8020   25.4819 H         1 UNK         0.0000 
     45 H45         1.5949   54.3426   27.2527 H         1 UNK         0.0000 
     46 H46         4.8298   52.8089   29.6809 H         1 UNK         0.0000 
     47 H47         6.3732   53.2581   27.8876 H         1 UNK         0.0000 
     48 H48         0.8051   54.9702   29.3923 H         1 UNK         0.0000 
     49 H49         0.1646   53.4314   28.8259 H         1 UNK         0.0000 
     50 H50        -0.8955   53.2968   30.8514 H         1 UNK         0.0000 
     51 H51         0.1064   54.5886   31.5460 H         1 UNK         0.0000 
     52 H52         0.4595   51.6968   31.6360 H         1 UNK         0.0000 
     53 H53         1.2283   52.8964   32.6380 H         1 UNK         0.0000 
@<TRIPOS>BOND
     1    1    2 1    
     2    1   30 1    
     3    1   31 1    
     4    1   32 1    
     5    2   10 ar   
     6    2    3 ar   
     7    3    8 ar   
     8    3    4 ar   
     9    4    5 ar   
    10    4   33 1    
    11    5    6 ar   
    12    5   12 1    
    13    6    7 ar   
    14    6   34 1    
    15    7    8 ar   
    16    8    9 ar   
    17    9   10 ar   
    18    9   11 1    
    19   11   35 1    
    20   11   36 1    
    21   11   37 1    
    22   12   13 am   BACKBONE|DICT|INTERRES
    23   12   38 1    
    24   13   14 2    
    25   13   15 am   BACKBONE|DICT|INTERRES
    26   15   16 1    
    27   15   39 1    
    28   16   17 1    
    29   16   18 1    
    30   16   40 1    
    31   17   41 1    
    32   17   42 1    
    33   17   43 1    
    34   18   23 ar   
    35   18   19 ar   
    36   19   20 ar   
    37   19   44 1    
    38   20   21 ar   
    39   20   45 1    
    40   21   22 ar   
    41   21   24 1    
    42   22   23 ar   
    43   22   46 1    
    44   23   47 1    
    45   24   28 am   BACKBONE|DICT|INTERRES
    46   24   25 1    
    47   25   26 1    
    48   25   48 1    
    49   25   49 1    
    50   26   27 1    
    51   26   50 1    
    52   26   51 1    
    53   27   28 1    
    54   27   52 1    
    55   27   53 1    
    56   28   29 2    
@<TRIPOS>SUBSTRUCTURE
     1 UNK         1 GROUP             0       ****    0 ROOT    
