@<TRIPOS>MOLECULE
ZINC22861037_5420
65   68    1
SMALL
USER_CHARGES


@<TRIPOS>ATOM
      1 C1          2.6126   54.9534   29.6868 C.3       1 UNK         0.0000 
      2 C2          2.1397   53.8796   28.6742 C.3       1 UNK         0.0000 
      3 C3          2.4743   52.4745   29.2374 C.3       1 UNK         0.0000 
      4 C4          0.5984   53.9999   28.5745 C.3       1 UNK         0.0000 
      5 C5          2.8171   54.1533   27.2773 C.3       1 UNK         0.0000 
      6 H6          2.7052   55.2245   27.1095 H         1 UNK         0.0000 
      7 C7          4.3399   53.8480   27.2417 C.3       1 UNK         0.0000 
      8 C8          5.0339   54.4295   25.9906 C.3       1 UNK         0.0000 
      9 C9          4.2201   54.0969   24.7378 C.2       1 UNK         0.0000 
     10 C10         2.8881   53.6656   24.8142 C.2       1 UNK         0.0000 
     11 S11         2.1912   53.3860   23.2522 S.3       1 UNK         0.0000 
     12 C12         3.7123   53.7321   22.4930 C.2       1 UNK         0.0000 
     13 C13         4.6958   54.1026   23.4109 C.2       1 UNK         0.0000 
     14 C14         6.0430   54.4963   23.0242 C.1       1 UNK         0.0000 
     15 N15         7.1042   54.8208   22.7070 N.1       1 UNK         0.0000 
     16 N16         3.8346   53.7714   21.1135 N.pl3     1 UNK         0.0000 
     17 C17         3.7468   52.7350   20.2176 C.2       1 UNK         0.0000 
     18 S18         3.1045   51.2258   20.5172 S.2       1 UNK         0.0000 
     19 N19         4.3087   52.9315   18.9829 N.am      1 UNK         0.0000 
     20 C20         4.7459   54.0839   18.4024 C.2       1 UNK         0.0000 
     21 O21         4.5967   55.2111   18.8824 O.2       1 UNK         0.0000 
     22 C22         5.4509   53.9321   17.0783 C.ar      1 UNK         0.0000 
     23 C23         6.5286   53.0367   17.0169 C.ar      1 UNK         0.0000 
     24 C24         7.3007   52.8800   15.8617 C.ar      1 UNK         0.0000 
     25 C25         6.9889   53.6638   14.7462 C.ar      1 UNK         0.0000 
     26 C26         5.9420   54.5801   14.7971 C.ar      1 UNK         0.0000 
     27 C27         5.1583   54.7339   15.9454 C.ar      1 UNK         0.0000 
     28 N28         4.1517   55.6934   15.8598 N.pl3     1 UNK         0.0000 
     29 C29         4.4335   57.0734   16.2918 C.3       1 UNK         0.0000 
     30 C30         3.3917   58.0937   15.7815 C.3       1 UNK         0.0000 
     31 O31         2.0669   57.6771   16.0930 O.3       1 UNK         0.0000 
     32 C32         1.7570   56.3808   15.5969 C.3       1 UNK         0.0000 
     33 C33         2.7515   55.3428   16.1529 C.3       1 UNK         0.0000 
     34 N34         8.4301   51.9179   15.8287 N.pl3     1 UNK         0.0000 
     35 O35         8.7047   51.3012   16.8527 O.co2     1 UNK         0.0000 
     36 O36         9.0485   51.7814   14.7782 O.co2     1 UNK         0.0000 
     37 C37         2.1354   53.3932   26.1048 C.3       1 UNK         0.0000 
     38 H38         1.9959   54.9358   30.5833 H         1 UNK         0.0000 
     39 H39         2.5314   55.9632   29.2795 H         1 UNK         0.0000 
     40 H40         3.6474   54.8090   29.9915 H         1 UNK         0.0000 
     41 H41         2.1822   51.6811   28.5508 H         1 UNK         0.0000 
     42 H42         3.5387   52.3543   29.4408 H         1 UNK         0.0000 
     43 H43         1.9544   52.2889   30.1784 H         1 UNK         0.0000 
     44 H44         0.1570   53.1772   28.0077 H         1 UNK         0.0000 
     45 H45         0.1205   53.9845   29.5575 H         1 UNK         0.0000 
     46 H46         0.3050   54.9280   28.0848 H         1 UNK         0.0000 
     47 H47         4.8284   54.2977   28.1063 H         1 UNK         0.0000 
     48 H48         4.5298   52.7807   27.3511 H         1 UNK         0.0000 
     49 H49         5.1301   55.5126   26.0824 H         1 UNK         0.0000 
     50 H50         6.0495   54.0369   25.9205 H         1 UNK         0.0000 
     51 H51         4.2227   54.6284   20.7413 H         1 UNK         0.0000 
     52 H52         4.4605   52.0778   18.4548 H         1 UNK         0.0000 
     53 H53         6.7853   52.4672   17.8959 H         1 UNK         0.0000 
     54 H54         7.5619   53.5763   13.8325 H         1 UNK         0.0000 
     55 H55         5.7356   55.1835   13.9251 H         1 UNK         0.0000 
     56 H56         4.5019   57.1368   17.3779 H         1 UNK         0.0000 
     57 H57         5.4124   57.3689   15.9082 H         1 UNK         0.0000 
     58 H58         3.4999   58.2091   14.6999 H         1 UNK         0.0000 
     59 H59         3.5695   59.0750   16.2262 H         1 UNK         0.0000 
     60 H60         1.7959   56.3777   14.5051 H         1 UNK         0.0000 
     61 H61         0.7366   56.1234   15.8872 H         1 UNK         0.0000 
     62 H62         2.5310   54.3737   15.7001 H         1 UNK         0.0000 
     63 H63         2.5904   55.2290   17.2263 H         1 UNK         0.0000 
     64 H64         2.1272   52.3211   26.3014 H         1 UNK         0.0000 
     65 H65         1.1022   53.6964   25.9774 H         1 UNK         0.0000 
@<TRIPOS>BOND
     1    1    2 1    
     2    1   38 1    
     3    1   39 1    
     4    1   40 1    
     5    2    3 1    
     6    2    4 1    
     7    2    5 1    
     8    3   41 1    
     9    3   42 1    
    10    3   43 1    
    11    4   44 1    
    12    4   45 1    
    13    4   46 1    
    14    5    6 1    
    15    5   37 1    
    16    5    7 1    
    17    7    8 1    
    18    7   47 1    
    19    7   48 1    
    20    8    9 1    
    21    8   49 1    
    22    8   50 1    
    23    9   13 1    
    24    9   10 2    
    25   10   11 1    
    26   10   37 1    
    27   11   12 1    
    28   12   13 2    
    29   12   16 1    
    30   13   14 1    
    31   14   15 3    
    32   16   17 1    
    33   16   51 1    
    34   17   18 2    
    35   17   19 am   BACKBONE|DICT|INTERRES
    36   19   20 am   BACKBONE|DICT|INTERRES
    37   19   52 1    
    38   20   21 2    
    39   20   22 1    
    40   22   27 ar   
    41   22   23 ar   
    42   23   24 ar   
    43   23   53 1    
    44   24   25 ar   
    45   24   34 1    
    46   25   26 ar   
    47   25   54 1    
    48   26   27 ar   
    49   26   55 1    
    50   27   28 1    
    51   28   33 1    
    52   28   29 1    
    53   29   30 1    
    54   29   56 1    
    55   29   57 1    
    56   30   31 1    
    57   30   58 1    
    58   30   59 1    
    59   31   32 1    
    60   32   33 1    
    61   32   60 1    
    62   32   61 1    
    63   33   62 1    
    64   33   63 1    
    65   34   35 2    
    66   34   36 1    
    67   37   64 1    
    68   37   65 1    
@<TRIPOS>SUBSTRUCTURE
     1 UNK         1 GROUP             0       ****    0 ROOT    
