@<TRIPOS>MOLECULE
ZINC44813699_187
69   72    1
SMALL
USER_CHARGES


@<TRIPOS>ATOM
      1 C1         -4.3951   50.2915   28.8246 C.3       1 UNK         0.0000 
      2 C2         -3.9342   50.7750   27.4562 C.2       1 UNK         0.0000 
      3 O3         -4.4940   51.7386   26.9350 O.2       1 UNK         0.0000 
      4 N4         -2.8955   50.0977   26.9299 N.am      1 UNK         0.0000 
      5 C5         -2.2115   50.3004   25.7245 C.ar      1 UNK         0.0000 
      6 C6         -2.7066   51.0405   24.6443 C.ar      1 UNK         0.0000 
      7 C7         -1.9440   51.1696   23.4869 C.ar      1 UNK         0.0000 
      8 C8         -0.6879   50.5516   23.4041 C.ar      1 UNK         0.0000 
      9 C9         -0.2043   49.8058   24.4826 C.ar      1 UNK         0.0000 
     10 C10        -0.9646   49.6803   25.6372 C.ar      1 UNK         0.0000 
     11 N11         0.1698   50.6162   22.2968 N.am      1 UNK         0.0000 
     12 C12         0.0543   51.2921   21.1362 C.2       1 UNK         0.0000 
     13 O13        -0.9090   51.9854   20.8042 O.2       1 UNK         0.0000 
     14 C14         1.2768   51.1810   20.2067 C.3       1 UNK         0.0000 
     15 H15         1.9754   50.5022   20.7056 H         1 UNK         0.0000 
     16 C16         0.9029   50.5917   18.8301 C.3       1 UNK         0.0000 
     17 C17         2.2044   50.4883   18.0048 C.3       1 UNK         0.0000 
     18 C18         2.9581   51.8362   17.8865 C.3       1 UNK         0.0000 
     19 N19         3.2722   52.3370   19.3214 N.4       1 UNK         0.0000 
     20 C20         1.9263   52.5671   20.0546 C.3       1 UNK         0.0000 
     21 C21         4.1713   53.6048   19.2955 C.3       1 UNK         0.0000 
     22 C22         4.7461   53.9335   20.6718 C.2       1 UNK         0.0000 
     23 N23         4.3377   53.5491   21.8506 N.2       1 UNK         0.0000 
     24 C24         5.1152   54.2251   22.6726 C.2       1 UNK         0.0000 
     25 N25         6.0930   54.8966   22.0980 N.2       1 UNK         0.0000 
     26 O26         5.8301   54.7439   20.7346 O.3       1 UNK         0.0000 
     27 C27         4.8442   54.2694   24.1507 C.ar      1 UNK         0.0000 
     28 C28         5.8521   54.4970   25.0947 C.ar      1 UNK         0.0000 
     29 C29         5.5547   54.4949   26.4610 C.ar      1 UNK         0.0000 
     30 C30         4.2421   54.2699   26.9121 C.ar      1 UNK         0.0000 
     31 C31         3.2379   54.0816   25.9552 C.ar      1 UNK         0.0000 
     32 C32         3.5303   54.0920   24.5975 C.ar      1 UNK         0.0000 
     33 C33         3.8735   54.1712   28.4183 C.3       1 UNK         0.0000 
     34 C34         2.6434   55.0559   28.7577 C.3       1 UNK         0.0000 
     35 C35         5.0212   54.5856   29.3726 C.3       1 UNK         0.0000 
     36 C36         3.5247   52.7013   28.7499 C.3       1 UNK         0.0000 
     37 H37        -3.5405   50.0797   29.4728 H         1 UNK         0.0000 
     38 H38        -5.0169   51.0446   29.3125 H         1 UNK         0.0000 
     39 H39        -4.9814   49.3774   28.7220 H         1 UNK         0.0000 
     40 H40        -2.4570   49.3969   27.5358 H         1 UNK         0.0000 
     41 H41        -3.6761   51.5144   24.6770 H         1 UNK         0.0000 
     42 H42        -2.3551   51.7453   22.6733 H         1 UNK         0.0000 
     43 H43         0.7590   49.3149   24.4377 H         1 UNK         0.0000 
     44 H44        -0.5780   49.0966   26.4622 H         1 UNK         0.0000 
     45 H45         1.0248   50.0947   22.4168 H         1 UNK         0.0000 
     46 H46         0.2206   51.2407   18.2768 H         1 UNK         0.0000 
     47 H47         0.5026   49.5791   18.9151 H         1 UNK         0.0000 
     48 H48         1.9897   50.0971   17.0082 H         1 UNK         0.0000 
     49 H49         2.8614   49.7555   18.4813 H         1 UNK         0.0000 
     50 H50         2.3820   52.6059   17.3698 H         1 UNK         0.0000 
     51 H51         3.9044   51.6968   17.3628 H         1 UNK         0.0000 
     52 H52         2.0952   53.0416   21.0200 H         1 UNK         0.0000 
     53 H53         1.3440   53.2428   19.4233 H         1 UNK         0.0000 
     54 H54         3.5582   54.4063   18.8784 H         1 UNK         0.0000 
     55 H55         4.9693   53.3643   18.5896 H         1 UNK         0.0000 
     56 H56         6.8733   54.6478   24.7742 H         1 UNK         0.0000 
     57 H57         6.3642   54.6469   27.1582 H         1 UNK         0.0000 
     58 H58         2.2177   53.8966   26.2550 H         1 UNK         0.0000 
     59 H59         2.7253   53.9321   23.8952 H         1 UNK         0.0000 
     60 H60         2.4199   55.0425   29.8255 H         1 UNK         0.0000 
     61 H61         1.7349   54.7251   28.2531 H         1 UNK         0.0000 
     62 H62         2.8002   56.0963   28.4819 H         1 UNK         0.0000 
     63 H63         5.8956   53.9449   29.2678 H         1 UNK         0.0000 
     64 H64         5.3588   55.6091   29.2367 H         1 UNK         0.0000 
     65 H65         4.7043   54.4969   30.4124 H         1 UNK         0.0000 
     66 H66         4.3905   52.0600   28.5872 H         1 UNK         0.0000 
     67 H67         3.2227   52.5792   29.7921 H         1 UNK         0.0000 
     68 H68         2.7103   52.3187   28.1329 H         1 UNK         0.0000 
     69 H69         3.8154   51.6253   19.7937 H         1 UNK         0.0000 
@<TRIPOS>BOND
     1    1    2 1    
     2    1   37 1    
     3    1   38 1    
     4    1   39 1    
     5    2    3 2    
     6    2    4 am   BACKBONE|DICT|INTERRES
     7    4    5 1    
     8    4   40 1    
     9    5   10 ar   
    10    5    6 ar   
    11    6    7 ar   
    12    6   41 1    
    13    7    8 ar   
    14    7   42 1    
    15    8    9 ar   
    16    8   11 1    
    17    9   10 ar   
    18    9   43 1    
    19   10   44 1    
    20   11   12 am   BACKBONE|DICT|INTERRES
    21   11   45 1    
    22   12   13 2    
    23   12   14 1    
    24   14   15 1    
    25   14   20 1    
    26   14   16 1    
    27   16   17 1    
    28   16   46 1    
    29   16   47 1    
    30   17   18 1    
    31   17   48 1    
    32   17   49 1    
    33   18   19 1    
    34   18   50 1    
    35   18   51 1    
    36   19   20 1    
    37   19   21 1    
    38   19   69 1    
    39   20   52 1    
    40   20   53 1    
    41   21   22 1    
    42   21   54 1    
    43   21   55 1    
    44   22   26 1    
    45   22   23 2    
    46   23   24 1    
    47   24   25 2    
    48   24   27 1    
    49   25   26 1    
    50   27   32 ar   
    51   27   28 ar   
    52   28   29 ar   
    53   28   56 1    
    54   29   30 ar   
    55   29   57 1    
    56   30   31 ar   
    57   30   33 1    
    58   31   32 ar   
    59   31   58 1    
    60   32   59 1    
    61   33   34 1    
    62   33   35 1    
    63   33   36 1    
    64   34   60 1    
    65   34   61 1    
    66   34   62 1    
    67   35   63 1    
    68   35   64 1    
    69   35   65 1    
    70   36   66 1    
    71   36   67 1    
    72   36   68 1    
@<TRIPOS>SUBSTRUCTURE
     1 UNK         1 GROUP             0       ****    0 ROOT    
