ZINC03007126_1065
                    3D
 Schrodinger Suite 2024-2.
 67 69  0  0  1  0            999 V2000
   10.2834   52.4177   16.3970 C   0  0  0  0  0  0
   10.1041   53.8953   16.7849 C   0  0  0  0  0  0
   10.1261   54.8563   15.5762 C   0  0  0  0  0  0
    7.4998   53.9667   16.8322 C   0  0  0  0  0  0
    6.2627   53.8618   17.7682 C   0  0  0  0  0  0
    6.4806   54.4997   19.1491 C   0  0  0  0  0  0
    7.6827   55.1614   19.4427 C   0  0  0  0  0  0
    7.7707   55.6968   21.0740 S   0  0  0  0  0  0
    6.2737   54.8970   21.4171 C   0  0  0  0  0  0
    5.6178   54.3676   20.2796 C   0  0  0  0  0  0
    4.3054   53.6838   20.2499 C   0  0  0  0  0  0
    3.7596   53.3002   19.2139 O   0  0  0  0  0  0
    3.7818   53.5125   21.4900 O   0  0  0  0  0  0
    2.5598   52.8084   21.6678 C   0  0  0  0  0  0
    5.8191   54.8913   22.7186 N   0  0  0  0  0  0
    6.4267   54.2828   23.7604 C   0  0  0  0  0  0
    7.5035   53.6962   23.6791 O   0  0  0  0  0  0
    5.6570   54.3161   25.0669 C   0  0  0  0  0  0
    6.2985   54.0856   26.2968 C   0  0  0  0  0  0
    5.5718   54.0806   27.4926 C   0  0  0  0  0  0
    4.1971   54.3377   27.4715 C   0  0  0  0  0  0
    3.5738   54.5954   26.2619 C   0  0  0  0  0  0
    4.2754   54.5493   25.0716 C   0  0  0  0  0  0
    3.2031   54.4182   28.9694 S   0  0  0  0  0  0
    2.4859   55.6985   28.9373 O   0  0  0  0  0  0
    4.0999   54.0960   30.0818 O   0  0  0  0  0  0
    1.9865   53.1203   28.8651 N   0  0  0  0  0  0
    0.8164   53.2782   27.9645 C   0  0  0  0  0  0
    0.6818   52.0791   27.0522 C   0  0  0  0  0  0
   -0.4057   51.2953   26.9908 C   0  0  0  0  0  0
    1.7980   52.2254   30.0372 C   0  0  0  0  0  0
    0.8977   52.7726   31.1437 C   0  0  0  0  0  0
    0.3052   53.9782   31.2122 C   0  0  0  0  0  0
    8.8270   55.3462   18.4696 C   0  0  0  0  0  0
   11.2510   52.2562   15.9219 H   0  0  0  0  0  0
   10.2491   51.7698   17.2746 H   0  0  0  0  0  0
    9.5236   52.0735   15.6966 H   0  0  0  0  0  0
   10.9128   54.1534   17.4754 H   0  0  0  0  0  0
   11.0936   54.8078   15.0719 H   0  0  0  0  0  0
    9.3701   54.6019   14.8330 H   0  0  0  0  0  0
    9.9767   55.8934   15.8734 H   0  0  0  0  0  0
    7.4593   54.8577   16.2059 H   0  0  0  0  0  0
    7.5486   53.0877   16.1911 H   0  0  0  0  0  0
    6.0124   52.8063   17.9037 H   0  0  0  0  0  0
    5.3951   54.2955   17.2694 H   0  0  0  0  0  0
    2.3021   52.7696   22.7253 H   0  0  0  0  0  0
    1.7400   53.2933   21.1390 H   0  0  0  0  0  0
    2.6429   51.7853   21.3004 H   0  0  0  0  0  0
    4.8145   54.8813   22.7935 H   0  0  0  0  0  0
    7.3611   53.8935   26.3363 H   0  0  0  0  0  0
    6.0805   53.9004   28.4295 H   0  0  0  0  0  0
    2.5470   54.8858   26.2454 H   0  0  0  0  0  0
    3.7203   54.7404   24.1650 H   0  0  0  0  0  0
    0.9989   54.1305   27.3202 H   0  0  0  0  0  0
   -0.0874   53.5021   28.5329 H   0  0  0  0  0  0
    1.5280   51.8579   26.4203 H   0  0  0  0  0  0
   -1.2726   51.4788   27.6102 H   0  0  0  0  0  0
   -0.4455   50.4455   26.3227 H   0  0  0  0  0  0
    1.3797   51.2841   29.6859 H   0  0  0  0  0  0
    2.7685   51.9825   30.4688 H   0  0  0  0  0  0
    0.7226   52.0921   31.9662 H   0  0  0  0  0  0
   -0.3136   54.2298   32.0612 H   0  0  0  0  0  0
    0.4249   54.7275   30.4441 H   0  0  0  0  0  0
    8.7280   56.2121   17.8128 H   0  0  0  0  0  0
    9.7956   55.3946   18.9730 H   0  0  0  0  0  0
    8.8177   54.0386   17.6468 N   0  3  2  0  0  0
    8.8407   53.2587   18.2892 H   0  0  0  0  0  0
  1  2  1  0  0  0
  1 35  1  0  0  0
  1 36  1  0  0  0
  1 37  1  0  0  0
  2  3  1  0  0  0
  2 38  1  0  0  0
  2 66  1  0  0  0
  3 39  1  0  0  0
  3 40  1  0  0  0
  3 41  1  0  0  0
  4  5  1  0  0  0
  4 42  1  0  0  0
  4 43  1  0  0  0
  4 66  1  0  0  0
  5  6  1  0  0  0
  5 44  1  0  0  0
  5 45  1  0  0  0
  6 10  1  0  0  0
  6  7  2  0  0  0
  7  8  1  0  0  0
  7 34  1  0  0  0
  8  9  1  0  0  0
  9 10  2  0  0  0
  9 15  1  0  0  0
 10 11  1  0  0  0
 11 12  2  0  0  0
 11 13  1  0  0  0
 13 14  1  0  0  0
 14 46  1  0  0  0
 14 47  1  0  0  0
 14 48  1  0  0  0
 15 16  1  0  0  0
 15 49  1  0  0  0
 16 17  2  0  0  0
 16 18  1  0  0  0
 18 23  2  0  0  0
 18 19  1  0  0  0
 19 20  2  0  0  0
 19 50  1  0  0  0
 20 21  1  0  0  0
 20 51  1  0  0  0
 21 22  2  0  0  0
 21 24  1  0  0  0
 22 23  1  0  0  0
 22 52  1  0  0  0
 23 53  1  0  0  0
 24 25  2  0  0  0
 24 26  2  0  0  0
 24 27  1  0  0  0
 27 28  1  0  0  0
 27 31  1  0  0  0
 28 29  1  0  0  0
 28 54  1  0  0  0
 28 55  1  0  0  0
 29 30  2  0  0  0
 29 56  1  0  0  0
 30 57  1  0  0  0
 30 58  1  0  0  0
 31 32  1  0  0  0
 31 59  1  0  0  0
 31 60  1  0  0  0
 32 33  2  0  0  0
 32 61  1  0  0  0
 33 62  1  0  0  0
 33 63  1  0  0  0
 34 64  1  0  0  0
 34 65  1  0  0  0
 34 66  1  0  0  0
 66 67  1  0  0  0
M  CHG  1  66   1
M  END
> <i_i_glide_confnum>
218

> <i_i_glide_lignum>
1066

> <i_i_glide_posenum>
266

> <i_i_glide_rotatable_bonds>
12

> <i_m_Source_File_Index>
5364

> <b_m_subgroup_collapsed>
0

> <r_i_docking_score>
-4.83513

> <r_i_glide_ecoul>
-2.77563

> <r_i_glide_eff_state_penalty>
0

> <r_i_glide_einternal>
21.7328

> <r_i_glide_emodel>
-56.2615

> <r_i_glide_energy>
-51.5615

> <r_i_glide_erotb>
0.76351

> <r_i_glide_esite>
-0.0389951

> <r_i_glide_evdw>
-48.7858

> <r_i_glide_gscore>
-4.83513

> <r_i_glide_hbond>
0

> <r_i_glide_ligand_efficiency>
-0.138146

> <r_i_glide_ligand_efficiency_ln>
-1.06142

> <r_i_glide_ligand_efficiency_sa>
-0.451886

> <r_i_glide_lipo>
-2.74971

> <r_i_glide_metal>
0

> <r_i_glide_rewards>
0.045701

> <s_i_glide_gridfile>
wee1_glide-grid

> <s_m_Source_File>
wee1_decoys_glide_SP.sdf

> <s_m_Source_Path>
/Users/zhangxujun/Desktop

> <s_m_entry_id>
5639

> <s_m_entry_name>
wee1_decoys_glide_SP.5364

> <s_m_subgroup_title>
wee1_decoys_glide_SP

> <s_m_subgroupid>
wee1_decoys_glide_SP


$$$$
