ZINC09390366_2745
                    3D
 Schrodinger Suite 2024-2.
 42 44  0  0  1  0            999 V2000
    2.5299   53.2794   22.8680 C   0  0  0  0  0  0
    3.1031   53.2967   21.6009 C   0  0  0  0  0  0
    4.4026   53.7636   21.4313 C   0  0  0  0  0  0
    5.1486   54.1960   22.5283 C   0  0  0  0  0  0
    4.5953   54.1362   23.8260 C   0  0  0  0  0  0
    3.2708   53.6964   23.9715 C   0  0  0  0  0  0
    5.3294   54.5257   25.0742 C   0  0  0  0  0  0
    6.4352   55.2204   25.1982 N   0  0  0  0  0  0
    6.7045   55.2967   26.5564 N   0  0  0  0  0  0
    5.7550   54.6255   27.1501 C   0  0  0  0  0  0
    4.8377   54.1320   26.2813 O   0  0  0  0  0  0
    5.5041   54.4467   28.8817 S   0  0  0  0  0  0
    4.4564   52.9557   28.9241 C   0  0  0  0  0  0
    2.9662   53.2739   29.0598 C   0  0  0  0  0  0
    2.6063   54.1012   29.9021 O   0  0  0  0  0  0
    2.1455   52.5651   28.2528 N   0  0  0  0  0  0
    0.8194   52.7394   28.0780 C   0  0  0  0  0  0
    0.1569   53.6977   28.4820 O   0  0  0  0  0  0
    0.2909   51.7412   27.3531 N   0  0  0  0  0  0
   -0.8637   51.8855   26.4663 C   0  0  0  0  0  0
   -0.4486   52.2295   25.0264 C   0  0  0  0  0  0
   -1.5482   51.6657   24.1139 C   0  0  0  0  0  0
   -2.3721   50.6947   24.9748 C   0  0  0  0  0  0
   -1.6223   50.5649   26.3045 C   0  0  0  0  0  0
    6.8898   54.8967   22.1680 Br  0  0  0  0  0  0
    1.5128   52.9397   22.9903 H   0  0  0  0  0  0
    2.5298   52.9774   20.7420 H   0  0  0  0  0  0
    4.8269   53.8039   20.4382 H   0  0  0  0  0  0
    2.8051   53.6617   24.9462 H   0  0  0  0  0  0
    4.7266   52.3786   29.8073 H   0  0  0  0  0  0
    4.6721   52.3206   28.0664 H   0  0  0  0  0  0
    2.5742   51.8363   27.7061 H   0  0  0  0  0  0
    0.7571   50.8469   27.3241 H   0  0  0  0  0  0
   -1.5751   52.6424   26.8093 H   0  0  0  0  0  0
    0.4972   51.7386   24.7878 H   0  0  0  0  0  0
   -0.2725   53.2963   24.8819 H   0  0  0  0  0  0
   -1.1142   51.1599   23.2497 H   0  0  0  0  0  0
   -2.1825   52.4673   23.7314 H   0  0  0  0  0  0
   -2.5043   49.7255   24.4917 H   0  0  0  0  0  0
   -3.3681   51.1046   25.1501 H   0  0  0  0  0  0
   -2.2761   50.3588   27.1539 H   0  0  0  0  0  0
   -0.9272   49.7231   26.2600 H   0  0  0  0  0  0
  1  6  2  0  0  0
  1  2  1  0  0  0
  1 26  1  0  0  0
  2  3  2  0  0  0
  2 27  1  0  0  0
  3  4  1  0  0  0
  3 28  1  0  0  0
  4  5  2  0  0  0
  4 25  1  0  0  0
  5  6  1  0  0  0
  5  7  1  0  0  0
  6 29  1  0  0  0
  7 11  1  0  0  0
  7  8  2  0  0  0
  8  9  1  0  0  0
  9 10  2  0  0  0
 10 11  1  0  0  0
 10 12  1  0  0  0
 12 13  1  0  0  0
 13 14  1  0  0  0
 13 30  1  0  0  0
 13 31  1  0  0  0
 14 15  2  0  0  0
 14 16  1  0  0  0
 16 17  1  0  0  0
 16 32  1  0  0  0
 17 18  2  0  0  0
 17 19  1  0  0  0
 19 20  1  0  0  0
 19 33  1  0  0  0
 20 24  1  0  0  0
 20 21  1  0  0  0
 20 34  1  0  0  0
 21 22  1  0  0  0
 21 35  1  0  0  0
 21 36  1  0  0  0
 22 23  1  0  0  0
 22 37  1  0  0  0
 22 38  1  0  0  0
 23 24  1  0  0  0
 23 39  1  0  0  0
 23 40  1  0  0  0
 24 41  1  0  0  0
 24 42  1  0  0  0
M  END
> <i_i_glide_confnum>
310

> <i_i_glide_lignum>
2746

> <i_i_glide_posenum>
88

> <i_i_glide_rotatable_bonds>
8

> <i_m_Source_File_Index>
5492

> <b_m_subgroup_collapsed>
0

> <r_i_docking_score>
-5.23528

> <r_i_glide_ecoul>
-5.29668

> <r_i_glide_eff_state_penalty>
0

> <r_i_glide_einternal>
2.96792

> <r_i_glide_emodel>
-60.5099

> <r_i_glide_energy>
-46.4402

> <r_i_glide_erotb>
0.767643

> <r_i_glide_esite>
-0.000594942

> <r_i_glide_evdw>
-41.1435

> <r_i_glide_gscore>
-5.23528

> <r_i_glide_hbond>
-0.32

> <r_i_glide_ligand_efficiency>
-0.209411

> <r_i_glide_ligand_efficiency_ln>
-1.24092

> <r_i_glide_ligand_efficiency_sa>
-0.612322

> <r_i_glide_lipo>
-2.01739

> <r_i_glide_metal>
0

> <r_i_glide_rewards>
-0.813261

> <s_i_glide_gridfile>
wee1_glide-grid

> <s_m_Source_File>
wee1_decoys_glide_SP.sdf

> <s_m_Source_Path>
/Users/zhangxujun/Desktop

> <s_m_entry_id>
5767

> <s_m_entry_name>
wee1_decoys_glide_SP.5492

> <s_m_subgroup_title>
wee1_decoys_glide_SP

> <s_m_subgroupid>
wee1_decoys_glide_SP


$$$$
