@<TRIPOS>MOLECULE
ZINC22893335_81
58   61    1
SMALL
USER_CHARGES


@<TRIPOS>ATOM
      1 C1          1.0039   45.2678   15.8344 C.ar      1 UNK         0.0000 
      2 C2          2.1619   45.9980   16.0893 C.ar      1 UNK         0.0000 
      3 C3          2.1882   46.8951   17.1539 C.ar      1 UNK         0.0000 
      4 C4          1.0597   47.0720   17.9698 C.ar      1 UNK         0.0000 
      5 C5         -0.0925   46.3174   17.7068 C.ar      1 UNK         0.0000 
      6 C6         -0.1213   45.4192   16.6415 C.ar      1 UNK         0.0000 
      7 C7          1.0693   48.0429   19.1299 C.2       1 UNK         0.0000 
      8 O8          0.3059   47.8648   20.0811 O.2       1 UNK         0.0000 
      9 N9          1.9071   49.0974   19.0136 N.am      1 UNK         0.0000 
     10 C10         2.1173   50.1584   19.9149 C.ar      1 UNK         0.0000 
     11 C11         2.7059   51.3040   19.3850 C.ar      1 UNK         0.0000 
     12 C12         3.0168   52.3841   20.2064 C.ar      1 UNK         0.0000 
     13 C13         2.7551   52.3387   21.5840 C.ar      1 UNK         0.0000 
     14 C14         2.1375   51.1890   22.1090 C.ar      1 UNK         0.0000 
     15 C15         1.8243   50.1080   21.2854 C.ar      1 UNK         0.0000 
     16 C16         3.2188   53.4838   22.4682 C.2       1 UNK         0.0000 
     17 O17         3.7303   54.4915   21.9758 O.2       1 UNK         0.0000 
     18 N18         3.1167   53.3025   23.8020 N.am      1 UNK         0.0000 
     19 C19         3.9364   53.8818   24.7996 C.ar      1 UNK         0.0000 
     20 C20         5.1790   54.4963   24.5491 C.ar      1 UNK         0.0000 
     21 C21         5.9963   54.8985   25.6079 C.ar      1 UNK         0.0000 
     22 C22         5.5945   54.6853   26.9267 C.ar      1 UNK         0.0000 
     23 C23         4.3594   54.0891   27.1833 C.ar      1 UNK         0.0000 
     24 C24         3.5382   53.6970   26.1216 C.ar      1 UNK         0.0000 
     25 S25         3.8142   53.7951   28.8569 S.o2      1 UNK         0.0000 
     26 O26         4.3239   54.8960   29.6798 O.2       1 UNK         0.0000 
     27 O27         4.1501   52.4039   29.1783 O.2       1 UNK         0.0000 
     28 N28         2.0576   53.9446   28.7209 N.pl3     1 UNK         0.0000 
     29 C29         1.4841   55.3001   28.8359 C.3       1 UNK         0.0000 
     30 C30         1.1499   55.6140   30.3045 C.3       1 UNK         0.0000 
     31 C31         0.3056   54.4828   30.9400 C.3       1 UNK         0.0000 
     32 C32         0.8872   53.0667   30.7117 C.3       1 UNK         0.0000 
     33 C33         1.1961   52.8491   29.2229 C.3       1 UNK         0.0000 
     34 H34         0.9811   44.5718   15.0073 H         1 UNK         0.0000 
     35 H35         3.0397   45.8713   15.4729 H         1 UNK         0.0000 
     36 H36         3.1035   47.4284   17.3487 H         1 UNK         0.0000 
     37 H37        -0.9764   46.4257   18.3201 H         1 UNK         0.0000 
     38 H38        -1.0133   44.8469   16.4370 H         1 UNK         0.0000 
     39 H39         2.4374   49.1673   18.1543 H         1 UNK         0.0000 
     40 H40         2.9641   51.3529   18.3359 H         1 UNK         0.0000 
     41 H41         3.4976   53.2440   19.7622 H         1 UNK         0.0000 
     42 H42         1.9200   51.0902   23.1625 H         1 UNK         0.0000 
     43 H43         1.3944   49.2285   21.7388 H         1 UNK         0.0000 
     44 H44         2.5256   52.5501   24.1168 H         1 UNK         0.0000 
     45 H45         5.5523   54.6326   23.5465 H         1 UNK         0.0000 
     46 H46         6.9505   55.3560   25.4002 H         1 UNK         0.0000 
     47 H47         6.2323   54.9865   27.7474 H         1 UNK         0.0000 
     48 H48         2.6012   53.1958   26.3217 H         1 UNK         0.0000 
     49 H49         0.5669   55.3130   28.2482 H         1 UNK         0.0000 
     50 H50         2.1628   56.0272   28.3904 H         1 UNK         0.0000 
     51 H51         0.6222   56.5657   30.3791 H         1 UNK         0.0000 
     52 H52         2.0696   55.7560   30.8675 H         1 UNK         0.0000 
     53 H53         0.1644   54.6594   32.0053 H         1 UNK         0.0000 
     54 H54        -0.6770   54.5198   30.4825 H         1 UNK         0.0000 
     55 H55         1.7938   52.9244   31.2988 H         1 UNK         0.0000 
     56 H56         0.1785   52.3140   31.0635 H         1 UNK         0.0000 
     57 H57         0.2574   52.8863   28.6727 H         1 UNK         0.0000 
     58 H58         1.6506   51.8841   29.0000 H         1 UNK         0.0000 
@<TRIPOS>BOND
     1    1    6 ar   
     2    1    2 ar   
     3    1   34 1    
     4    2    3 ar   
     5    2   35 1    
     6    3    4 ar   
     7    3   36 1    
     8    4    5 ar   
     9    4    7 1    
    10    5    6 ar   
    11    5   37 1    
    12    6   38 1    
    13    7    8 2    
    14    7    9 am   BACKBONE|DICT|INTERRES
    15    9   10 1    
    16    9   39 1    
    17   10   15 ar   
    18   10   11 ar   
    19   11   12 ar   
    20   11   40 1    
    21   12   13 ar   
    22   12   41 1    
    23   13   14 ar   
    24   13   16 1    
    25   14   15 ar   
    26   14   42 1    
    27   15   43 1    
    28   16   17 2    
    29   16   18 am   BACKBONE|DICT|INTERRES
    30   18   19 1    
    31   18   44 1    
    32   19   24 ar   
    33   19   20 ar   
    34   20   21 ar   
    35   20   45 1    
    36   21   22 ar   
    37   21   46 1    
    38   22   23 ar   
    39   22   47 1    
    40   23   24 ar   
    41   23   25 1    
    42   24   48 1    
    43   25   26 2    
    44   25   27 2    
    45   25   28 1    
    46   28   33 1    
    47   28   29 1    
    48   29   30 1    
    49   29   49 1    
    50   29   50 1    
    51   30   31 1    
    52   30   51 1    
    53   30   52 1    
    54   31   32 1    
    55   31   53 1    
    56   31   54 1    
    57   32   33 1    
    58   32   55 1    
    59   32   56 1    
    60   33   57 1    
    61   33   58 1    
@<TRIPOS>SUBSTRUCTURE
     1 UNK         1 GROUP             0       ****    0 ROOT    
