@<TRIPOS>MOLECULE
ZINC35696573_5955
55   58    1
SMALL
USER_CHARGES


@<TRIPOS>ATOM
      1 C1          1.0908   52.4438   31.8319 C.3       1 UNK         0.0000 
      2 C2          0.0834   52.7926   30.7174 C.3       1 UNK         0.0000 
      3 C3          0.6793   52.8211   29.3019 C.2       1 UNK         0.0000 
      4 C4          1.2759   53.8709   28.6479 C.2       1 UNK         0.0000 
      5 C5          1.7855   53.6830   27.1854 C.3       1 UNK         0.0000 
      6 H6          1.3880   54.4967   26.5915 H         1 UNK         0.0000 
      7 N7          1.1654   52.4754   26.5775 N.pl3     1 UNK         0.0000 
      8 C8          1.1041   52.1708   25.2224 C.2       1 UNK         0.0000 
      9 C9          0.5692   50.9537   25.0107 C.2       1 UNK         0.0000 
     10 S10         0.1577   50.0993   26.4816 S.3       1 UNK         0.0000 
     11 C11         0.6115   51.5244   27.4285 C.2       1 UNK         0.0000 
     12 N12         0.4530   51.6202   28.6917 N.2       1 UNK         0.0000 
     13 C13         1.6201   53.0033   24.1416 C.2       1 UNK         0.0000 
     14 C14         2.1571   52.5632   22.9853 C.2       1 UNK         0.0000 
     15 O15         2.3044   51.3600   22.5508 O.co2     1 UNK         0.0000 
     16 N16         2.6475   53.4622   22.0661 N.pl3     1 UNK         0.0000 
     17 C17         3.6571   53.2877   21.0162 C.3       1 UNK         0.0000 
     18 C18         4.9062   54.1195   21.2706 C.ar      1 UNK         0.0000 
     19 C19         5.4361   54.8976   20.2345 C.ar      1 UNK         0.0000 
     20 C20         6.5776   55.6635   20.4797 C.ar      1 UNK         0.0000 
     21 N21         7.2068   55.6790   21.6802 N.ar      1 UNK         0.0000 
     22 C22         6.7033   54.8956   22.6686 C.ar      1 UNK         0.0000 
     23 C23         5.5642   54.1030   22.5064 C.ar      1 UNK         0.0000 
     24 C24         3.3130   53.7867   27.0398 C.ar      1 UNK         0.0000 
     25 C25         3.8622   54.5821   26.0272 C.ar      1 UNK         0.0000 
     26 C26         5.2324   54.8135   25.9779 C.ar      1 UNK         0.0000 
     27 C27         6.0630   54.2398   26.9327 C.ar      1 UNK         0.0000 
     28 C28         5.5356   53.4281   27.9339 C.ar      1 UNK         0.0000 
     29 C29         4.1622   53.2032   27.9886 C.ar      1 UNK         0.0000 
     30 F30         7.3882   54.4885   26.8898 F         1 UNK         0.0000 
     31 C31         1.5051   55.2265   29.1882 C.2       1 UNK         0.0000 
     32 O32         1.9167   56.1403   28.4819 O.2       1 UNK         0.0000 
     33 O33         1.2591   55.3996   30.4832 O.3       1 UNK         0.0000 
     34 C34         1.4146   56.6838   31.0716 C.3       1 UNK         0.0000 
     35 H35         0.7173   52.7797   32.7999 H         1 UNK         0.0000 
     36 H36         1.2641   51.3734   31.9212 H         1 UNK         0.0000 
     37 H37         2.0634   52.8967   31.6629 H         1 UNK         0.0000 
     38 H38        -0.3898   53.7479   30.9340 H         1 UNK         0.0000 
     39 H39        -0.7566   52.0928   30.7749 H         1 UNK         0.0000 
     40 H40         0.4274   50.4715   24.0548 H         1 UNK         0.0000 
     41 H41         1.5632   54.0699   24.2861 H         1 UNK         0.0000 
     42 H42         2.3560   54.4222   22.1554 H         1 UNK         0.0000 
     43 H43         3.2043   53.5742   20.0672 H         1 UNK         0.0000 
     44 H44         3.9610   52.2457   20.9150 H         1 UNK         0.0000 
     45 H45         4.9709   54.9155   19.2604 H         1 UNK         0.0000 
     46 H46         7.0067   56.2743   19.6992 H         1 UNK         0.0000 
     47 H47         7.2446   54.9039   23.6032 H         1 UNK         0.0000 
     48 H48         5.1959   53.4918   23.3188 H         1 UNK         0.0000 
     49 H49         3.2291   55.0639   25.2972 H         1 UNK         0.0000 
     50 H50         5.6440   55.4566   25.2164 H         1 UNK         0.0000 
     51 H51         6.1921   52.9894   28.6682 H         1 UNK         0.0000 
     52 H52         3.7565   52.5879   28.7783 H         1 UNK         0.0000 
     53 H53         1.5040   56.5905   32.1460 H         1 UNK         0.0000 
     54 H54         2.3040   57.2090   30.7197 H         1 UNK         0.0000 
     55 H55         0.5414   57.2964   30.8552 H         1 UNK         0.0000 
@<TRIPOS>BOND
     1    1    2 1    
     2    1   35 1    
     3    1   36 1    
     4    1   37 1    
     5    2    3 1    
     6    2   38 1    
     7    2   39 1    
     8    3   12 1    
     9    3    4 2    
    10    4    5 1    
    11    4   31 1    
    12    5    6 1    
    13    5    7 1    
    14    5   24 1    
    15    7   11 1    
    16    7    8 1    
    17    8    9 2    
    18    8   13 1    
    19    9   10 1    
    20    9   40 1    
    21   10   11 1    
    22   11   12 2    
    23   13   14 2    
    24   13   41 1    
    25   14   15 1    
    26   14   16 1    
    27   16   17 1    
    28   16   42 1    
    29   17   18 1    
    30   17   43 1    
    31   17   44 1    
    32   18   23 ar   
    33   18   19 ar   
    34   19   20 ar   
    35   19   45 1    
    36   20   21 ar   
    37   20   46 1    
    38   21   22 ar   
    39   22   23 ar   
    40   22   47 1    
    41   23   48 1    
    42   24   29 ar   
    43   24   25 ar   
    44   25   26 ar   
    45   25   49 1    
    46   26   27 ar   
    47   26   50 1    
    48   27   28 ar   
    49   27   30 1    
    50   28   29 ar   
    51   28   51 1    
    52   29   52 1    
    53   31   32 2    
    54   31   33 1    
    55   33   34 1    
    56   34   53 1    
    57   34   54 1    
    58   34   55 1    
@<TRIPOS>SUBSTRUCTURE
     1 UNK         1 GROUP             0       ****    0 ROOT    
