ZINC21911048_433
                    3D
 Schrodinger Suite 2024-2.
 51 53  0  0  1  0            999 V2000
    1.8578   54.2085   23.1837 C   0  0  0  0  0  0
    2.1931   52.8612   22.5214 C   0  0  0  0  0  0
    3.2468   52.8957   21.0298 S   0  0  0  0  0  0
    4.6838   53.7162   21.6312 C   0  0  0  0  0  0
    5.5439   54.5943   20.9385 C   0  0  0  0  0  0
    6.5291   54.9142   21.8404 C   0  0  0  0  0  0
    6.1612   54.3282   23.0278 N   0  0  0  0  0  0
    5.0765   53.5628   22.8800 N   0  0  0  0  0  0
    6.8754   54.4061   24.3070 C   0  0  0  0  0  0
    6.1192   54.6360   25.6251 C   0  0  0  0  0  0
    6.7043   55.2966   26.4821 O   0  0  0  0  0  0
    4.8927   54.0970   25.7857 N   0  0  0  0  0  0
    4.0595   54.1127   26.9230 C   0  0  0  0  0  0
    4.4778   54.4961   28.2085 C   0  0  0  0  0  0
    3.5734   54.4966   29.2650 C   0  0  0  0  0  0
    2.2533   54.1082   29.0523 C   0  0  0  0  0  0
    1.8375   53.6957   27.7893 C   0  0  0  0  0  0
    2.7415   53.6922   26.7301 C   0  0  0  0  0  0
    1.1286   54.1346   30.3618 Cl  0  0  0  0  0  0
    7.6556   55.6709   21.6820 N   0  0  0  0  0  0
    5.4874   55.2287   19.2383 S   0  0  0  0  0  0
    4.1995   54.8466   18.6517 O   0  0  0  0  0  0
    5.9042   56.6350   19.3215 O   0  0  0  0  0  0
    6.7884   54.3620   18.3614 C   0  0  0  0  0  0
    6.4947   53.1843   17.6763 C   0  0  0  0  0  0
    7.5034   52.5060   16.9966 C   0  0  0  0  0  0
    8.8075   53.0043   17.0040 C   0  0  0  0  0  0
    9.0994   54.1888   17.6816 C   0  0  0  0  0  0
    8.0902   54.8722   18.3545 C   0  0  0  0  0  0
    9.9168   52.2397   16.3070 C   0  0  0  0  0  0
    1.1501   54.0751   24.0012 H   0  0  0  0  0  0
    2.7405   54.7022   23.5879 H   0  0  0  0  0  0
    1.3987   54.8963   22.4817 H   0  0  0  0  0  0
    1.2634   52.3687   22.2356 H   0  0  0  0  0  0
    2.6605   52.2004   23.2520 H   0  0  0  0  0  0
    7.5046   55.2831   24.2269 H   0  0  0  0  0  0
    7.5062   53.5238   24.3938 H   0  0  0  0  0  0
    4.5120   53.6159   24.9842 H   0  0  0  0  0  0
    5.4914   54.7956   28.4231 H   0  0  0  0  0  0
    3.9071   54.8033   30.2426 H   0  0  0  0  0  0
    0.8174   53.3773   27.6310 H   0  0  0  0  0  0
    2.4073   53.3568   25.7611 H   0  0  0  0  0  0
    7.8589   56.0968   20.7892 H   0  0  0  0  0  0
    8.3928   55.6965   22.3799 H   0  0  0  0  0  0
    5.4919   52.7774   17.6805 H   0  0  0  0  0  0
    7.2674   51.5847   16.4841 H   0  0  0  0  0  0
   10.1075   54.5775   17.6949 H   0  0  0  0  0  0
    8.3263   55.7937   18.8647 H   0  0  0  0  0  0
    9.6686   51.1822   16.2047 H   0  0  0  0  0  0
   10.1115   52.6589   15.3192 H   0  0  0  0  0  0
   10.8387   52.2888   16.8895 H   0  0  0  0  0  0
  1  2  1  0  0  0
  1 31  1  0  0  0
  1 32  1  0  0  0
  1 33  1  0  0  0
  2  3  1  0  0  0
  2 34  1  0  0  0
  2 35  1  0  0  0
  3  4  1  0  0  0
  4  8  2  0  0  0
  4  5  1  0  0  0
  5  6  2  0  0  0
  5 21  1  0  0  0
  6  7  1  0  0  0
  6 20  1  0  0  0
  7  8  1  0  0  0
  7  9  1  0  0  0
  9 10  1  0  0  0
  9 36  1  0  0  0
  9 37  1  0  0  0
 10 11  2  0  0  0
 10 12  1  0  0  0
 12 13  1  0  0  0
 12 38  1  0  0  0
 13 18  2  0  0  0
 13 14  1  0  0  0
 14 15  2  0  0  0
 14 39  1  0  0  0
 15 16  1  0  0  0
 15 40  1  0  0  0
 16 17  2  0  0  0
 16 19  1  0  0  0
 17 18  1  0  0  0
 17 41  1  0  0  0
 18 42  1  0  0  0
 20 43  1  0  0  0
 20 44  1  0  0  0
 21 22  2  0  0  0
 21 23  2  0  0  0
 21 24  1  0  0  0
 24 29  2  0  0  0
 24 25  1  0  0  0
 25 26  2  0  0  0
 25 45  1  0  0  0
 26 27  1  0  0  0
 26 46  1  0  0  0
 27 28  2  0  0  0
 27 30  1  0  0  0
 28 29  1  0  0  0
 28 47  1  0  0  0
 29 48  1  0  0  0
 30 49  1  0  0  0
 30 50  1  0  0  0
 30 51  1  0  0  0
M  END
> <i_i_glide_confnum>
20

> <i_i_glide_lignum>
434

> <i_i_glide_posenum>
18

> <i_i_glide_rotatable_bonds>
8

> <i_m_Source_File_Index>
2720

> <b_m_subgroup_collapsed>
0

> <r_i_docking_score>
-7.11149

> <r_i_glide_ecoul>
-3.86399

> <r_i_glide_eff_state_penalty>
0

> <r_i_glide_einternal>
4.27428

> <r_i_glide_emodel>
-71.4991

> <r_i_glide_energy>
-52.4693

> <r_i_glide_erotb>
0.559541

> <r_i_glide_esite>
0

> <r_i_glide_evdw>
-48.6053

> <r_i_glide_gscore>
-7.11149

> <r_i_glide_hbond>
-0.608

> <r_i_glide_ligand_efficiency>
-0.23705

> <r_i_glide_ligand_efficiency_ln>
-1.61581

> <r_i_glide_ligand_efficiency_sa>
-0.736568

> <r_i_glide_lipo>
-2.81833

> <r_i_glide_metal>
0

> <r_i_glide_rewards>
-1.23483

> <s_i_glide_gridfile>
wee1_glide-grid

> <s_m_Source_File>
wee1_decoys_glide_SP.sdf

> <s_m_Source_Path>
/Users/zhangxujun/Desktop

> <s_m_entry_id>
2995

> <s_m_entry_name>
wee1_decoys_glide_SP.2720

> <s_m_subgroup_title>
wee1_decoys_glide_SP

> <s_m_subgroupid>
wee1_decoys_glide_SP


$$$$
