ZINC39836469_4145
                    3D
 Schrodinger Suite 2024-2.
 69 72  0  0  1  0            999 V2000
    6.5072   52.5437   13.2811 C   0  0  0  0  0  0
    6.2551   52.9864   14.7103 C   0  0  0  0  0  0
    7.3303   53.2728   15.5510 C   0  0  0  0  0  0
    7.1006   53.6913   16.8597 C   0  0  0  0  0  0
    5.7890   53.8304   17.3382 C   0  0  0  0  0  0
    4.7168   53.5446   16.4849 C   0  0  0  0  0  0
    4.9475   53.1231   15.1775 C   0  0  0  0  0  0
    5.4919   54.2303   18.7275 C   0  0  0  0  0  0
    6.3889   54.6201   19.6648 C   0  0  0  0  0  0
    6.0576   54.9202   21.0384 C   0  0  0  0  0  0
    6.7062   55.7445   21.6803 O   0  0  0  0  0  0
    5.0460   54.1760   21.5293 N   0  0  0  0  0  0
    4.5709   54.0927   22.8302 C   0  0  0  0  0  0
    3.3134   53.5929   23.2133 C   0  0  0  0  0  0
    3.0875   53.7635   24.6051 C   0  0  0  0  0  0
    4.2502   54.1341   25.2902 C   0  0  0  0  0  0
    5.5561   54.4967   24.2134 S   0  0  0  0  0  0
    4.4249   54.1341   26.8018 C   0  0  0  0  0  0
    3.0442   54.0870   27.5282 C   0  0  1  0  0  0
    2.5880   55.0751   27.4453 H   0  0  0  0  0  0
    2.1049   53.0874   26.8176 C   0  0  0  0  0  0
    1.7973   53.4307   25.3569 C   0  0  0  0  0  0
    3.1640   53.7720   29.0713 C   0  0  0  0  0  0
    3.5294   52.2921   29.3719 C   0  0  0  0  0  0
    1.8316   54.1034   29.7945 C   0  0  0  0  0  0
    4.2640   54.6441   29.7068 C   0  0  0  0  0  0
    2.3000   53.0858   22.3069 C   0  0  0  0  0  0
    1.1046   53.2969   22.5024 O   0  0  0  0  0  0
    2.7520   52.3548   21.2704 N   0  0  0  0  0  0
    1.8907   51.7663   20.2469 C   0  0  1  0  0  0
    1.3096   52.5326   19.7239 H   0  0  0  0  0  0
    2.7591   51.0526   19.1889 C   0  0  0  0  0  0
    1.8519   50.2181   18.2758 C   0  0  0  0  0  0
    0.5355   49.5338   19.4161 S   0  0  0  0  0  0
    0.8554   48.1589   19.8259 O   0  0  0  0  0  0
   -0.7832   49.8611   18.8626 O   0  0  0  0  0  0
    0.9423   50.6953   20.8228 C   0  0  0  0  0  0
    5.6757   52.8174   12.6300 H   0  0  0  0  0  0
    7.3936   53.0342   12.8775 H   0  0  0  0  0  0
    6.6551   51.4639   13.2322 H   0  0  0  0  0  0
    8.3444   53.1660   15.1965 H   0  0  0  0  0  0
    7.9509   53.8899   17.4928 H   0  0  0  0  0  0
    3.6973   53.6339   16.8308 H   0  0  0  0  0  0
    4.1080   52.9000   14.5350 H   0  0  0  0  0  0
    4.4439   54.1686   18.9954 H   0  0  0  0  0  0
    7.4348   54.7323   19.4304 H   0  0  0  0  0  0
    4.4758   53.7132   20.8375 H   0  0  0  0  0  0
    5.0253   53.2630   27.0675 H   0  0  0  0  0  0
    4.9878   55.0183   27.1031 H   0  0  0  0  0  0
    2.5341   52.0966   26.8820 H   0  0  0  0  0  0
    1.1502   53.0101   27.3357 H   0  0  0  0  0  0
    1.1058   54.2657   25.2794 H   0  0  0  0  0  0
    1.2783   52.5802   24.9140 H   0  0  0  0  0  0
    4.4539   51.9930   28.8819 H   0  0  0  0  0  0
    3.6763   52.1272   30.4404 H   0  0  0  0  0  0
    2.7487   51.6022   29.0580 H   0  0  0  0  0  0
    1.5351   55.1406   29.6295 H   0  0  0  0  0  0
    1.0092   53.4722   29.4605 H   0  0  0  0  0  0
    1.9039   53.9499   30.8741 H   0  0  0  0  0  0
    4.0703   55.6966   29.5243 H   0  0  0  0  0  0
    4.3084   54.4954   30.7830 H   0  0  0  0  0  0
    5.2615   54.4227   29.3251 H   0  0  0  0  0  0
    3.7221   52.0812   21.2514 H   0  0  0  0  0  0
    3.4890   50.4023   19.6770 H   0  0  0  0  0  0
    3.3557   51.7631   18.6145 H   0  0  0  0  0  0
    2.3042   49.4223   17.6829 H   0  0  0  0  0  0
    1.3558   50.8930   17.5805 H   0  0  0  0  0  0
    0.0751   51.0017   21.4084 H   0  0  0  0  0  0
    1.5492   50.0698   21.4804 H   0  0  0  0  0  0
  1  2  1  0  0  0
  1 38  1  0  0  0
  1 39  1  0  0  0
  1 40  1  0  0  0
  2  7  2  0  0  0
  2  3  1  0  0  0
  3  4  2  0  0  0
  3 41  1  0  0  0
  4  5  1  0  0  0
  4 42  1  0  0  0
  5  6  2  0  0  0
  5  8  1  0  0  0
  6  7  1  0  0  0
  6 43  1  0  0  0
  7 44  1  0  0  0
  8  9  2  0  0  0
  8 45  1  0  0  0
  9 10  1  0  0  0
  9 46  1  0  0  0
 10 11  2  0  0  0
 10 12  1  0  0  0
 12 13  1  0  0  0
 12 47  1  0  0  0
 13 17  1  0  0  0
 13 14  2  0  0  0
 14 15  1  0  0  0
 14 27  1  0  0  0
 15 22  1  0  0  0
 15 16  2  0  0  0
 16 17  1  0  0  0
 16 18  1  0  0  0
 18 19  1  0  0  0
 18 48  1  0  0  0
 18 49  1  0  0  0
 19 20  1  0  0  0
 19 21  1  0  0  0
 19 23  1  0  0  0
 21 22  1  0  0  0
 21 50  1  0  0  0
 21 51  1  0  0  0
 22 52  1  0  0  0
 22 53  1  0  0  0
 23 24  1  0  0  0
 23 25  1  0  0  0
 23 26  1  0  0  0
 24 54  1  0  0  0
 24 55  1  0  0  0
 24 56  1  0  0  0
 25 57  1  0  0  0
 25 58  1  0  0  0
 25 59  1  0  0  0
 26 60  1  0  0  0
 26 61  1  0  0  0
 26 62  1  0  0  0
 27 28  2  0  0  0
 27 29  1  0  0  0
 29 30  1  0  0  0
 29 63  1  0  0  0
 30 31  1  0  0  0
 30 37  1  0  0  0
 30 32  1  0  0  0
 32 33  1  0  0  0
 32 64  1  0  0  0
 32 65  1  0  0  0
 33 34  1  0  0  0
 33 66  1  0  0  0
 33 67  1  0  0  0
 34 35  2  0  0  0
 34 36  2  0  0  0
 34 37  1  0  0  0
 37 68  1  0  0  0
 37 69  1  0  0  0
M  END
> <i_i_glide_confnum>
153

> <i_i_glide_lignum>
4146

> <i_i_glide_posenum>
59

> <i_i_glide_rotatable_bonds>
8

> <i_m_Source_File_Index>
2500

> <b_m_subgroup_collapsed>
0

> <r_i_docking_score>
-4.91013

> <r_i_glide_ecoul>
-3.37168

> <r_i_glide_eff_state_penalty>
0

> <r_i_glide_einternal>
7.01448

> <r_i_glide_emodel>
-56.3994

> <r_i_glide_energy>
-43.3604

> <r_i_glide_erotb>
0.542056

> <r_i_glide_esite>
-0.02852

> <r_i_glide_evdw>
-39.9888

> <r_i_glide_gscore>
-4.91013

> <r_i_glide_hbond>
0

> <r_i_glide_ligand_efficiency>
-0.140289

> <r_i_glide_ligand_efficiency_ln>
-1.07788

> <r_i_glide_ligand_efficiency_sa>
-0.458896

> <r_i_glide_lipo>
-2.51826

> <r_i_glide_metal>
0

> <r_i_glide_rewards>
-0.400216

> <s_i_glide_gridfile>
wee1_glide-grid

> <s_m_Source_File>
wee1_decoys_glide_SP.sdf

> <s_m_Source_Path>
/Users/zhangxujun/Desktop

> <s_m_entry_id>
2775

> <s_m_entry_name>
wee1_decoys_glide_SP.2500

> <s_m_subgroup_title>
wee1_decoys_glide_SP

> <s_m_subgroupid>
wee1_decoys_glide_SP


$$$$
