@<TRIPOS>MOLECULE
ZINC59017780_4303
51   52    1
SMALL
USER_CHARGES


@<TRIPOS>ATOM
      1 C1          1.4013   53.1934   26.5726 C.3       1 UNK         0.0000 
      2 C2          2.8592   53.4989   26.8714 C.ar      1 UNK         0.0000 
      3 C3          3.7080   53.8948   25.8315 C.ar      1 UNK         0.0000 
      4 C4          5.0707   54.1248   26.0602 C.ar      1 UNK         0.0000 
      5 C5          5.5778   53.9822   27.3636 C.ar      1 UNK         0.0000 
      6 C6          4.7203   53.6160   28.4035 C.ar      1 UNK         0.0000 
      7 C7          3.3728   53.3635   28.1667 C.ar      1 UNK         0.0000 
      8 Br8         2.2839   52.8081   29.6310 Br        1 UNK         0.0000 
      9 C9          7.0528   54.1713   27.6794 C.3       1 UNK         0.0000 
     10 S10         6.1649   54.5657   24.7190 S.3       1 UNK         0.0000 
     11 C11         5.4133   54.1821   23.0909 C.3       1 UNK         0.0000 
     12 C12         6.0623   54.8967   21.8944 C.2       1 UNK         0.0000 
     13 O13         7.1617   55.4377   22.0042 O.2       1 UNK         0.0000 
     14 N14         5.3390   54.8935   20.7549 N.am      1 UNK         0.0000 
     15 C15         5.6658   55.5087   19.5252 C.ar      1 UNK         0.0000 
     16 C16         6.3044   56.7600   19.4903 C.ar      1 UNK         0.0000 
     17 C17         6.5336   57.4155   18.2823 C.ar      1 UNK         0.0000 
     18 C18         6.1241   56.8321   17.0873 C.ar      1 UNK         0.0000 
     19 C19         5.4892   55.5923   17.1003 C.ar      1 UNK         0.0000 
     20 C20         5.2529   54.9212   18.3115 C.ar      1 UNK         0.0000 
     21 N21         4.6265   53.6594   18.3026 N.am      1 UNK         0.0000 
     22 C22         3.4705   53.3687   17.6771 C.2       1 UNK         0.0000 
     23 O23         2.8047   54.1703   17.0187 O.2       1 UNK         0.0000 
     24 N24         3.1044   52.0967   17.9061 N.am      1 UNK         0.0000 
     25 C25         1.7592   51.5274   17.7762 C.3       1 UNK         0.0000 
     26 C26         0.7149   52.2167   18.6801 C.3       1 UNK         0.0000 
     27 C27         1.2905   51.4040   16.3141 C.3       1 UNK         0.0000 
     28 H28         1.1052   53.5190   25.5739 H         1 UNK         0.0000 
     29 H29         1.2148   52.1232   26.6656 H         1 UNK         0.0000 
     30 H30         0.7514   53.6984   27.2860 H         1 UNK         0.0000 
     31 H31         3.2922   53.9935   24.8438 H         1 UNK         0.0000 
     32 H32         5.1039   53.4963   29.4031 H         1 UNK         0.0000 
     33 H33         7.3949   55.1475   27.3350 H         1 UNK         0.0000 
     34 H34         7.2675   54.0966   28.7463 H         1 UNK         0.0000 
     35 H35         7.6270   53.4058   27.1608 H         1 UNK         0.0000 
     36 H36         5.4757   53.1043   22.9327 H         1 UNK         0.0000 
     37 H37         4.3614   54.4628   23.1021 H         1 UNK         0.0000 
     38 H38         4.6006   54.2083   20.7005 H         1 UNK         0.0000 
     39 H39         6.5881   57.2551   20.4044 H         1 UNK         0.0000 
     40 H40         7.0108   58.3849   18.2708 H         1 UNK         0.0000 
     41 H41         6.2965   57.3439   16.1510 H         1 UNK         0.0000 
     42 H42         5.1802   55.1529   16.1626 H         1 UNK         0.0000 
     43 H43         4.8637   53.0381   19.0592 H         1 UNK         0.0000 
     44 H44         3.8449   51.4220   18.0822 H         1 UNK         0.0000 
     45 H45         1.8595   50.5057   18.1478 H         1 UNK         0.0000 
     46 H46        -0.2707   51.7682   18.5442 H         1 UNK         0.0000 
     47 H47         0.9708   52.1142   19.7357 H         1 UNK         0.0000 
     48 H48         0.6113   53.2782   18.4446 H         1 UNK         0.0000 
     49 H49         0.2896   50.9749   16.2634 H         1 UNK         0.0000 
     50 H50         1.2383   52.3746   15.8200 H         1 UNK         0.0000 
     51 H51         1.9473   50.7480   15.7411 H         1 UNK         0.0000 
@<TRIPOS>BOND
     1    1    2 1    
     2    1   28 1    
     3    1   29 1    
     4    1   30 1    
     5    2    7 ar   
     6    2    3 ar   
     7    3    4 ar   
     8    3   31 1    
     9    4    5 ar   
    10    4   10 1    
    11    5    6 ar   
    12    5    9 1    
    13    6    7 ar   
    14    6   32 1    
    15    7    8 1    
    16    9   33 1    
    17    9   34 1    
    18    9   35 1    
    19   10   11 1    
    20   11   12 1    
    21   11   36 1    
    22   11   37 1    
    23   12   13 2    
    24   12   14 am   BACKBONE|DICT|INTERRES
    25   14   15 1    
    26   14   38 1    
    27   15   20 ar   
    28   15   16 ar   
    29   16   17 ar   
    30   16   39 1    
    31   17   18 ar   
    32   17   40 1    
    33   18   19 ar   
    34   18   41 1    
    35   19   20 ar   
    36   19   42 1    
    37   20   21 1    
    38   21   22 am   BACKBONE|DICT|INTERRES
    39   21   43 1    
    40   22   23 2    
    41   22   24 am   BACKBONE|DICT|INTERRES
    42   24   25 1    
    43   24   44 1    
    44   25   26 1    
    45   25   27 1    
    46   25   45 1    
    47   26   46 1    
    48   26   47 1    
    49   26   48 1    
    50   27   49 1    
    51   27   50 1    
    52   27   51 1    
@<TRIPOS>SUBSTRUCTURE
     1 UNK         1 GROUP             0       ****    0 ROOT    
