@<TRIPOS>MOLECULE
ZINC38547650_2924
54   57    1
SMALL
USER_CHARGES


@<TRIPOS>ATOM
      1 C1         -0.7865   48.2607   21.4896 C.3       1 UNK         0.0000 
      2 C2         -1.0155   48.1384   22.9842 C.ar      1 UNK         0.0000 
      3 C3         -1.8855   47.1661   23.4929 C.ar      1 UNK         0.0000 
      4 C4         -2.0678   47.0668   24.8746 C.ar      1 UNK         0.0000 
      5 N5         -1.4089   47.9180   25.6817 N.pl3     1 UNK         0.0000 
      6 C6         -0.5748   48.8775   25.2504 C.ar      1 UNK         0.0000 
      7 C7         -0.3455   48.9881   23.8719 C.ar      1 UNK         0.0000 
      8 N8         -0.0499   49.7678   26.2292 N.pl3     1 UNK         0.0000 
      9 C9          0.3268   51.1508   25.8908 C.3       1 UNK         0.0000 
     10 H10         1.0568   51.0023   25.0951 H         1 UNK         0.0000 
     11 C11         1.1001   51.9154   26.9761 C.ar      1 UNK         0.0000 
     12 C12         0.9599   51.6392   28.3425 C.ar      1 UNK         0.0000 
     13 C13         1.7492   52.3072   29.2780 C.ar      1 UNK         0.0000 
     14 C14         2.6837   53.2470   28.8455 C.ar      1 UNK         0.0000 
     15 C15         2.8045   53.5582   27.4983 C.ar      1 UNK         0.0000 
     16 C16         2.0118   52.8966   26.5723 C.ar      1 UNK         0.0000 
     17 Br17        3.8465   54.0968   30.0817 Br        1 UNK         0.0000 
     18 C18        -0.8708   51.9366   25.3538 C.2       1 UNK         0.0000 
     19 C19        -2.0948   52.1605   26.0459 C.2       1 UNK         0.0000 
     20 C20        -3.0346   52.8730   25.2805 C.2       1 UNK         0.0000 
     21 S21        -2.4408   53.1603   23.6817 S.3       1 UNK         0.0000 
     22 C22        -0.9336   52.4258   24.0507 C.2       1 UNK         0.0000 
     23 N23         0.0050   52.2844   23.0446 N.am      1 UNK         0.0000 
     24 C24         1.1044   53.0564   22.9392 C.2       1 UNK         0.0000 
     25 O25         1.2892   54.0972   23.5725 O.2       1 UNK         0.0000 
     26 C26         2.0844   52.5750   21.9986 C.2       1 UNK         0.0000 
     27 C27         3.3475   53.0659   21.6813 C.2       1 UNK         0.0000 
     28 C28         3.8823   52.2195   20.7075 C.2       1 UNK         0.0000 
     29 C29         2.9295   51.2440   20.4726 C.2       1 UNK         0.0000 
     30 O30         1.8400   51.4541   21.2583 O.3       1 UNK         0.0000 
     31 C31        -4.4235   53.3616   25.6343 C.3       1 UNK         0.0000 
     32 C32        -2.3820   51.6504   27.4493 C.3       1 UNK         0.0000 
     33 H33        -0.8952   47.2941   20.9962 H         1 UNK         0.0000 
     34 H34        -1.4958   48.9620   21.0486 H         1 UNK         0.0000 
     35 H35         0.2260   48.6077   21.2762 H         1 UNK         0.0000 
     36 H36        -2.4144   46.5027   22.8242 H         1 UNK         0.0000 
     37 H37        -2.7249   46.3675   25.3709 H         1 UNK         0.0000 
     38 H38         0.3429   49.7233   23.4900 H         1 UNK         0.0000 
     39 H39        -0.2254   49.5461   27.2026 H         1 UNK         0.0000 
     40 H40         0.2558   50.8967   28.6873 H         1 UNK         0.0000 
     41 H41         1.6486   52.0831   30.3297 H         1 UNK         0.0000 
     42 H42         3.5325   54.2845   27.1677 H         1 UNK         0.0000 
     43 H43         2.1649   53.1073   25.5306 H         1 UNK         0.0000 
     44 H44        -0.1129   51.5319   22.3834 H         1 UNK         0.0000 
     45 H45         3.8179   53.9435   22.1011 H         1 UNK         0.0000 
     46 H46         4.8420   52.3073   20.2175 H         1 UNK         0.0000 
     47 H47         2.8938   50.3957   19.8027 H         1 UNK         0.0000 
     48 H48        -4.6882   53.2030   26.6779 H         1 UNK         0.0000 
     49 H49        -4.5220   54.4316   25.4507 H         1 UNK         0.0000 
     50 H50        -5.1858   52.8635   25.0345 H         1 UNK         0.0000 
     51 H51        -2.2045   50.5784   27.5260 H         1 UNK         0.0000 
     52 H52        -1.7213   52.0967   28.1887 H         1 UNK         0.0000 
     53 H53        -3.4074   51.7986   27.7814 H         1 UNK         0.0000 
     54 H54        -1.5569   47.8666   26.6919 H         1 UNK         0.0000 
@<TRIPOS>BOND
     1    1    2 1    
     2    1   33 1    
     3    1   34 1    
     4    1   35 1    
     5    2    7 ar   
     6    2    3 ar   
     7    3    4 ar   
     8    3   36 1    
     9    4    5 ar   
    10    4   37 1    
    11    5    6 ar   
    12    5   54 1    
    13    6    7 ar   
    14    6    8 1    
    15    7   38 1    
    16    8    9 1    
    17    8   39 1    
    18    9   10 1    
    19    9   11 1    
    20    9   18 1    
    21   11   16 ar   
    22   11   12 ar   
    23   12   13 ar   
    24   12   40 1    
    25   13   14 ar   
    26   13   41 1    
    27   14   15 ar   
    28   14   17 1    
    29   15   16 ar   
    30   15   42 1    
    31   16   43 1    
    32   18   22 2    
    33   18   19 1    
    34   19   20 2    
    35   19   32 1    
    36   20   21 1    
    37   20   31 1    
    38   21   22 1    
    39   22   23 am   BACKBONE|DICT|INTERRES
    40   23   24 am   BACKBONE|DICT|INTERRES
    41   23   44 1    
    42   24   25 2    
    43   24   26 1    
    44   26   30 1    
    45   26   27 2    
    46   27   28 1    
    47   27   45 1    
    48   28   29 2    
    49   28   46 1    
    50   29   30 1    
    51   29   47 1    
    52   31   48 1    
    53   31   49 1    
    54   31   50 1    
    55   32   51 1    
    56   32   52 1    
    57   32   53 1    
@<TRIPOS>SUBSTRUCTURE
     1 UNK         1 GROUP             0       ****    0 ROOT    
