@<TRIPOS>MOLECULE
ZINC12821172_13
54   56    1
SMALL
USER_CHARGES


@<TRIPOS>ATOM
      1 C1         -4.6414   50.2039   31.6715 C.3       1 UNK         0.0000 
      2 C2         -4.9634   49.2600   30.5012 C.3       1 UNK         0.0000 
      3 N3         -4.0956   49.4691   29.3436 N.am      1 UNK         0.0000 
      4 C4         -4.1758   50.4984   28.4859 C.2       1 UNK         0.0000 
      5 O5         -5.1187   51.2967   28.4802 O.2       1 UNK         0.0000 
      6 N6         -3.0858   50.5463   27.6860 N.am      1 UNK         0.0000 
      7 C7         -2.7627   51.5206   26.7976 C.2       1 UNK         0.0000 
      8 O8         -3.4995   52.4581   26.4806 O.2       1 UNK         0.0000 
      9 C9         -1.3438   51.4883   26.1953 C.3       1 UNK         0.0000 
     10 H10        -1.3833   52.1597   25.3382 H         1 UNK         0.0000 
     11 C11        -0.9333   50.0922   25.6738 C.3       1 UNK         0.0000 
     12 S12        -0.1749   52.1860   27.4135 S.3       1 UNK         0.0000 
     13 C13         1.1861   52.8957   26.4187 C.ar      1 UNK         0.0000 
     14 N14         1.0724   52.8193   25.1382 N.2       1 UNK         0.0000 
     15 C15         2.0942   53.2732   24.3794 C.ar      1 UNK         0.0000 
     16 C16         3.2804   53.7884   24.8577 C.ar      1 UNK         0.0000 
     17 C17         4.1998   54.1000   23.8258 C.2       1 UNK         0.0000 
     18 C18         3.6560   53.8580   22.5518 C.2       1 UNK         0.0000 
     19 S19         2.0392   53.2237   22.6626 S.3       1 UNK         0.0000 
     20 C20         4.2763   54.0517   21.1857 C.3       1 UNK         0.0000 
     21 C21         5.6215   54.5870   24.0565 C.3       1 UNK         0.0000 
     22 C22         3.4486   53.9206   26.3077 C.ar      1 UNK         0.0000 
     23 O23         4.4736   54.3550   26.8358 O.2       1 UNK         0.0000 
     24 N24         2.3095   53.5013   27.0137 N.pl3     1 UNK         0.0000 
     25 C25         2.2972   53.6404   28.5153 C.3       1 UNK         0.0000 
     26 C26         2.8375   52.3954   29.2390 C.3       1 UNK         0.0000 
     27 C27         4.2949   52.7339   29.5505 C.3       1 UNK         0.0000 
     28 C28         4.3045   54.2519   29.8123 C.3       1 UNK         0.0000 
     29 C29         3.0174   54.8286   29.1931 C.3       1 UNK         0.0000 
     30 H30        -5.2712   49.9880   32.5341 H         1 UNK         0.0000 
     31 H31        -4.8067   51.2495   31.4072 H         1 UNK         0.0000 
     32 H32        -3.6062   50.0967   31.9963 H         1 UNK         0.0000 
     33 H33        -4.8356   48.2266   30.8268 H         1 UNK         0.0000 
     34 H34        -6.0105   49.3608   30.2116 H         1 UNK         0.0000 
     35 H35        -3.2495   48.9012   29.3333 H         1 UNK         0.0000 
     36 H36        -2.3944   49.8177   27.8407 H         1 UNK         0.0000 
     37 H37        -1.6746   49.6848   24.9863 H         1 UNK         0.0000 
     38 H38         0.0123   50.1397   25.1336 H         1 UNK         0.0000 
     39 H39        -0.7974   49.3734   26.4811 H         1 UNK         0.0000 
     40 H40         5.1379   54.7204   21.2023 H         1 UNK         0.0000 
     41 H41         4.6097   53.1019   20.7611 H         1 UNK         0.0000 
     42 H42         3.5650   54.4838   20.4790 H         1 UNK         0.0000 
     43 H43         6.2487   54.5751   23.1638 H         1 UNK         0.0000 
     44 H44         5.6380   55.5902   24.4801 H         1 UNK         0.0000 
     45 H45         6.1320   53.9588   24.7869 H         1 UNK         0.0000 
     46 H46         1.2498   53.7858   28.7783 H         1 UNK         0.0000 
     47 H47         2.2919   52.2663   30.1750 H         1 UNK         0.0000 
     48 H48         2.7046   51.4697   28.6773 H         1 UNK         0.0000 
     49 H49         4.6841   52.1589   30.3921 H         1 UNK         0.0000 
     50 H50         4.9186   52.4987   28.6843 H         1 UNK         0.0000 
     51 H51         4.3057   54.4499   30.8798 H         1 UNK         0.0000 
     52 H52         5.1979   54.7230   29.4001 H         1 UNK         0.0000 
     53 H53         3.1648   55.6945   28.5460 H         1 UNK         0.0000 
     54 H54         2.3924   55.1900   30.0120 H         1 UNK         0.0000 
@<TRIPOS>BOND
     1    1    2 1    
     2    1   30 1    
     3    1   31 1    
     4    1   32 1    
     5    2    3 1    
     6    2   33 1    
     7    2   34 1    
     8    3    4 am   BACKBONE|DICT|INTERRES
     9    3   35 1    
    10    4    5 2    
    11    4    6 am   BACKBONE|DICT|INTERRES
    12    6    7 am   BACKBONE|DICT|INTERRES
    13    6   36 1    
    14    7    8 2    
    15    7    9 1    
    16    9   10 1    
    17    9   11 1    
    18    9   12 1    
    19   11   37 1    
    20   11   38 1    
    21   11   39 1    
    22   12   13 1    
    23   13   24 ar   
    24   13   14 ar   
    25   14   15 ar   
    26   15   19 1    
    27   15   16 ar   
    28   16   17 1    
    29   16   22 ar   
    30   17   18 2    
    31   17   21 1    
    32   18   19 1    
    33   18   20 1    
    34   20   40 1    
    35   20   41 1    
    36   20   42 1    
    37   21   43 1    
    38   21   44 1    
    39   21   45 1    
    40   22   23 2    
    41   22   24 ar   
    42   24   25 1    
    43   25   29 1    
    44   25   26 1    
    45   25   46 1    
    46   26   27 1    
    47   26   47 1    
    48   26   48 1    
    49   27   28 1    
    50   27   49 1    
    51   27   50 1    
    52   28   29 1    
    53   28   51 1    
    54   28   52 1    
    55   29   53 1    
    56   29   54 1    
@<TRIPOS>SUBSTRUCTURE
     1 UNK         1 GROUP             0       ****    0 ROOT    
