@<TRIPOS>MOLECULE
ZINC35955598_4137
75   78    1
SMALL
USER_CHARGES


@<TRIPOS>ATOM
      1 C1          3.0243   57.8295   16.2146 C.3       1 UNK         0.0000 
      2 C2          4.4848   57.5933   16.6444 C.3       1 UNK         0.0000 
      3 C3          4.7958   56.1842   17.2300 C.3       1 UNK         0.0000 
      4 H4          4.0989   56.0417   18.0577 H         1 UNK         0.0000 
      5 C5          6.2247   56.1539   17.7976 C.ar      1 UNK         0.0000 
      6 C6          7.3374   56.0779   16.9501 C.ar      1 UNK         0.0000 
      7 C7          8.6186   56.0001   17.4877 C.ar      1 UNK         0.0000 
      8 C8          8.7856   56.0001   18.8693 C.ar      1 UNK         0.0000 
      9 C9          7.6912   56.0969   19.7223 C.ar      1 UNK         0.0000 
     10 C10         6.4121   56.1982   19.1854 C.ar      1 UNK         0.0000 
     11 C11         4.5331   54.9940   16.2531 C.2       1 UNK         0.0000 
     12 O12         4.4208   55.2324   15.0489 O.2       1 UNK         0.0000 
     13 N13         4.3329   53.7422   16.7500 N.am      1 UNK         0.0000 
     14 C14         3.8410   52.6365   15.9083 C.3       1 UNK         0.0000 
     15 C15         2.4868   52.1997   16.5165 C.3       1 UNK         0.0000 
     16 C16         2.5842   51.8099   18.0107 C.3       1 UNK         0.0000 
     17 C17         3.3641   52.8893   18.8036 C.3       1 UNK         0.0000 
     18 H18         2.7283   53.7734   18.8825 H         1 UNK         0.0000 
     19 C19         4.6761   53.3285   18.1191 C.3       1 UNK         0.0000 
     20 C20         3.6758   52.4096   20.2320 C.2       1 UNK         0.0000 
     21 O21         4.6189   51.6563   20.4816 O.2       1 UNK         0.0000 
     22 N22         2.8722   52.8833   21.1875 N.am      1 UNK         0.0000 
     23 C23         2.9491   52.5235   22.6028 C.3       1 UNK         0.0000 
     24 H24         4.0150   52.4969   22.8373 H         1 UNK         0.0000 
     25 C25         2.3044   51.1372   22.9314 C.3       1 UNK         0.0000 
     26 C26         0.7676   51.1282   22.8449 C.3       1 UNK         0.0000 
     27 C27         0.1637   52.2702   23.6841 C.3       1 UNK         0.0000 
     28 C28         0.8134   53.6051   23.2812 C.3       1 UNK         0.0000 
     29 C29         2.3339   53.6504   23.4713 C.3       1 UNK         0.0000 
     30 H30         2.6652   54.6108   23.0624 H         1 UNK         0.0000 
     31 N31         2.7479   53.6179   24.8708 N.am      1 UNK         0.0000 
     32 C32         3.8239   54.2573   25.3660 C.2       1 UNK         0.0000 
     33 O33         4.5992   54.8965   24.6546 O.2       1 UNK         0.0000 
     34 C34         3.9970   54.1939   26.8670 C.ar      1 UNK         0.0000 
     35 C35         2.8621   54.0243   27.6846 C.ar      1 UNK         0.0000 
     36 C36         2.9696   53.9896   29.0708 C.ar      1 UNK         0.0000 
     37 C37         4.2134   54.1484   29.6662 C.ar      1 UNK         0.0000 
     38 C38         5.3437   54.3459   28.8768 C.ar      1 UNK         0.0000 
     39 C39         5.2603   54.3524   27.4856 C.ar      1 UNK         0.0000 
     40 C40         6.5694   54.5134   26.7126 C.3       1 UNK         0.0000 
     41 H41         2.8722   58.8747   15.9428 H         1 UNK         0.0000 
     42 H42         2.7538   57.2256   15.3483 H         1 UNK         0.0000 
     43 H43         2.3248   57.5951   17.0139 H         1 UNK         0.0000 
     44 H44         4.7321   58.3499   17.3907 H         1 UNK         0.0000 
     45 H45         5.1379   57.8017   15.7954 H         1 UNK         0.0000 
     46 H46         7.2087   56.0598   15.8768 H         1 UNK         0.0000 
     47 H47         9.4784   55.9288   16.8379 H         1 UNK         0.0000 
     48 H48         9.7811   55.9276   19.2814 H         1 UNK         0.0000 
     49 H49         7.8387   56.0938   20.7925 H         1 UNK         0.0000 
     50 H50         5.5640   56.2693   19.8497 H         1 UNK         0.0000 
     51 H51         3.7750   52.8918   14.8487 H         1 UNK         0.0000 
     52 H52         4.5633   51.8192   15.9735 H         1 UNK         0.0000 
     53 H53         1.7567   53.0001   16.3847 H         1 UNK         0.0000 
     54 H54         2.0997   51.3530   15.9480 H         1 UNK         0.0000 
     55 H55         1.5655   51.6964   18.3841 H         1 UNK         0.0000 
     56 H56         3.1048   50.8529   18.0312 H         1 UNK         0.0000 
     57 H57         5.3739   52.4967   18.0379 H         1 UNK         0.0000 
     58 H58         5.2019   54.0799   18.6941 H         1 UNK         0.0000 
     59 H59         2.1097   53.4834   20.9037 H         1 UNK         0.0000 
     60 H60         2.7189   50.3661   22.2802 H         1 UNK         0.0000 
     61 H61         2.5627   50.8292   23.9407 H         1 UNK         0.0000 
     62 H62         0.4618   51.2281   21.8027 H         1 UNK         0.0000 
     63 H63         0.3796   50.1667   23.1818 H         1 UNK         0.0000 
     64 H64        -0.9149   52.3165   23.5277 H         1 UNK         0.0000 
     65 H65         0.3129   52.0796   24.7475 H         1 UNK         0.0000 
     66 H66         0.7044   53.6970   22.2052 H         1 UNK         0.0000 
     67 H67         0.3265   54.4611   23.7487 H         1 UNK         0.0000 
     68 H68         2.2652   52.9665   25.4701 H         1 UNK         0.0000 
     69 H69         1.8743   53.9220   27.2585 H         1 UNK         0.0000 
     70 H70         2.0891   53.8451   29.6797 H         1 UNK         0.0000 
     71 H71         4.3047   54.1183   30.7397 H         1 UNK         0.0000 
     72 H72         6.3031   54.4966   29.3467 H         1 UNK         0.0000 
     73 H73         7.4445   54.4033   27.3540 H         1 UNK         0.0000 
     74 H74         6.6511   53.7484   25.9395 H         1 UNK         0.0000 
     75 H75         6.6115   55.4919   26.2312 H         1 UNK         0.0000 
@<TRIPOS>BOND
     1    1    2 1    
     2    1   41 1    
     3    1   42 1    
     4    1   43 1    
     5    2    3 1    
     6    2   44 1    
     7    2   45 1    
     8    3    4 1    
     9    3    5 1    
    10    3   11 1    
    11    5   10 ar   
    12    5    6 ar   
    13    6    7 ar   
    14    6   46 1    
    15    7    8 ar   
    16    7   47 1    
    17    8    9 ar   
    18    8   48 1    
    19    9   10 ar   
    20    9   49 1    
    21   10   50 1    
    22   11   12 2    
    23   11   13 am   BACKBONE|DICT|INTERRES
    24   13   19 1    
    25   13   14 1    
    26   14   15 1    
    27   14   51 1    
    28   14   52 1    
    29   15   16 1    
    30   15   53 1    
    31   15   54 1    
    32   16   17 1    
    33   16   55 1    
    34   16   56 1    
    35   17   18 1    
    36   17   19 1    
    37   17   20 1    
    38   19   57 1    
    39   19   58 1    
    40   20   21 2    
    41   20   22 am   BACKBONE|DICT|INTERRES
    42   22   23 1    
    43   22   59 1    
    44   23   24 1    
    45   23   29 1    
    46   23   25 1    
    47   25   26 1    
    48   25   60 1    
    49   25   61 1    
    50   26   27 1    
    51   26   62 1    
    52   26   63 1    
    53   27   28 1    
    54   27   64 1    
    55   27   65 1    
    56   28   29 1    
    57   28   66 1    
    58   28   67 1    
    59   29   30 1    
    60   29   31 1    
    61   31   32 am   BACKBONE|DICT|INTERRES
    62   31   68 1    
    63   32   33 2    
    64   32   34 1    
    65   34   39 ar   
    66   34   35 ar   
    67   35   36 ar   
    68   35   69 1    
    69   36   37 ar   
    70   36   70 1    
    71   37   38 ar   
    72   37   71 1    
    73   38   39 ar   
    74   38   72 1    
    75   39   40 1    
    76   40   73 1    
    77   40   74 1    
    78   40   75 1    
@<TRIPOS>SUBSTRUCTURE
     1 UNK         1 GROUP             0       ****    0 ROOT    
