@<TRIPOS>MOLECULE
ZINC40288122_3584
54   57    1
SMALL
USER_CHARGES


@<TRIPOS>ATOM
      1 C1          3.1768   52.5905   18.8656 C.3       1 UNK         0.0000 
      2 C2          3.9217   52.0044   20.0768 C.3       1 UNK         0.0000 
      3 C3          5.3868   52.4691   20.1374 C.3       1 UNK         0.0000 
      4 C4          3.1918   52.2870   21.3865 C.ar      1 UNK         0.0000 
      5 C5          3.1522   53.5886   21.8973 C.ar      1 UNK         0.0000 
      6 C6          2.4781   53.8533   23.0802 C.ar      1 UNK         0.0000 
      7 C7          1.8404   52.8210   23.7715 C.ar      1 UNK         0.0000 
      8 C8          1.9012   51.5134   23.2739 C.ar      1 UNK         0.0000 
      9 C9          2.5689   51.2482   22.0817 C.ar      1 UNK         0.0000 
     10 C10         1.0464   53.1517   25.0403 C.3       1 UNK         0.0000 
     11 H11         0.7016   54.1601   24.8232 H         1 UNK         0.0000 
     12 C12        -0.1736   52.2392   25.3374 C.2       1 UNK         0.0000 
     13 C13        -0.2457   51.4972   26.4771 C.2       1 UNK         0.0000 
     14 C14        -1.3948   50.5279   26.7755 C.3       1 UNK         0.0000 
     15 C15        -2.7135   50.9507   26.0680 C.3       1 UNK         0.0000 
     16 C16        -2.3940   51.1771   24.5678 C.3       1 UNK         0.0000 
     17 C17        -1.2534   52.1785   24.3223 C.2       1 UNK         0.0000 
     18 O18        -1.2667   52.8966   23.3268 O.2       1 UNK         0.0000 
     19 C19        -3.7053   49.7702   26.1603 C.3       1 UNK         0.0000 
     20 C20        -3.2891   52.2498   26.6868 C.3       1 UNK         0.0000 
     21 N21         0.6790   51.6191   27.5038 N.pl3     1 UNK         0.0000 
     22 C22         1.7353   52.5047   27.4022 C.ar      1 UNK         0.0000 
     23 N23         1.8990   53.2352   26.2387 N.pl3     1 UNK         0.0000 
     24 N24         2.9326   54.0917   26.3360 N.2       1 UNK         0.0000 
     25 C25         3.4475   53.8828   27.5216 C.ar      1 UNK         0.0000 
     26 C26         2.7689   52.8887   28.2490 C.ar      1 UNK         0.0000 
     27 C27         2.9948   52.4635   29.6002 C.2       1 UNK         0.0000 
     28 O28         2.0921   52.0978   30.3434 O.2       1 UNK         0.0000 
     29 N29         4.2647   52.4963   29.9901 N.am      1 UNK         0.0000 
     30 H30         2.1481   52.2292   18.8190 H         1 UNK         0.0000 
     31 H31         3.6656   52.3011   17.9328 H         1 UNK         0.0000 
     32 H32         3.1431   53.6817   18.9013 H         1 UNK         0.0000 
     33 H33         3.9360   50.9182   19.9439 H         1 UNK         0.0000 
     34 H34         5.8705   52.0889   21.0372 H         1 UNK         0.0000 
     35 H35         5.9536   52.1056   19.2817 H         1 UNK         0.0000 
     36 H36         5.4728   53.5548   20.1449 H         1 UNK         0.0000 
     37 H37         3.6200   54.4011   21.3619 H         1 UNK         0.0000 
     38 H38         2.4370   54.8697   23.4471 H         1 UNK         0.0000 
     39 H39         1.4261   50.7000   23.8012 H         1 UNK         0.0000 
     40 H40         2.6058   50.2355   21.7078 H         1 UNK         0.0000 
     41 H41        -1.0558   49.5335   26.4807 H         1 UNK         0.0000 
     42 H42        -1.6240   50.4983   27.8423 H         1 UNK         0.0000 
     43 H43        -2.0481   50.2397   24.1343 H         1 UNK         0.0000 
     44 H44        -3.2706   51.4804   23.9967 H         1 UNK         0.0000 
     45 H45        -4.6479   49.9993   25.6637 H         1 UNK         0.0000 
     46 H46        -3.3065   48.8638   25.7037 H         1 UNK         0.0000 
     47 H47        -3.9339   49.5301   27.2004 H         1 UNK         0.0000 
     48 H48        -4.1900   52.5671   26.1612 H         1 UNK         0.0000 
     49 H49        -3.5619   52.0942   27.7306 H         1 UNK         0.0000 
     50 H50        -2.5844   53.0815   26.6516 H         1 UNK         0.0000 
     51 H51         0.5663   51.0675   28.3409 H         1 UNK         0.0000 
     52 H52         4.2990   54.4546   27.8637 H         1 UNK         0.0000 
     53 H53         4.9871   52.7246   29.3255 H         1 UNK         0.0000 
     54 H54         4.5033   52.2272   30.9320 H         1 UNK         0.0000 
@<TRIPOS>BOND
     1    1    2 1    
     2    1   30 1    
     3    1   31 1    
     4    1   32 1    
     5    2    3 1    
     6    2    4 1    
     7    2   33 1    
     8    3   34 1    
     9    3   35 1    
    10    3   36 1    
    11    4    9 ar   
    12    4    5 ar   
    13    5    6 ar   
    14    5   37 1    
    15    6    7 ar   
    16    6   38 1    
    17    7    8 ar   
    18    7   10 1    
    19    8    9 ar   
    20    8   39 1    
    21    9   40 1    
    22   10   11 1    
    23   10   23 1    
    24   10   12 1    
    25   12   17 1    
    26   12   13 2    
    27   13   14 1    
    28   13   21 1    
    29   14   15 1    
    30   14   41 1    
    31   14   42 1    
    32   15   16 1    
    33   15   19 1    
    34   15   20 1    
    35   16   17 1    
    36   16   43 1    
    37   16   44 1    
    38   17   18 2    
    39   19   45 1    
    40   19   46 1    
    41   19   47 1    
    42   20   48 1    
    43   20   49 1    
    44   20   50 1    
    45   21   22 1    
    46   21   51 1    
    47   22   26 ar   
    48   22   23 ar   
    49   23   24 ar   
    50   24   25 ar   
    51   25   26 ar   
    52   25   52 1    
    53   26   27 1    
    54   27   28 2    
    55   27   29 am   BACKBONE|DICT|INTERRES
    56   29   53 1    
    57   29   54 1    
@<TRIPOS>SUBSTRUCTURE
     1 UNK         1 GROUP             0       ****    0 ROOT    
