@<TRIPOS>MOLECULE
ZINC14911495_5142
48   50    1
SMALL
USER_CHARGES


@<TRIPOS>ATOM
      1 C1         13.5386   60.7182   18.7294 C.3       1 UNK         0.0000 
      2 C2         12.2663   59.9165   18.6413 C.2       1 UNK         0.0000 
      3 C3         11.9716   58.5736   18.6232 C.2       1 UNK         0.0000 
      4 C4         10.5857   58.4970   18.5291 C.2       1 UNK         0.0000 
      5 N5         10.0476   59.7029   18.4820 N.2       1 UNK         0.0000 
      6 O6         11.1046   60.6111   18.5631 O.3       1 UNK         0.0000 
      7 N7          9.9035   57.2928   18.4898 N.am      1 UNK         0.0000 
      8 C8          8.5643   57.1032   18.4540 C.2       1 UNK         0.0000 
      9 O9          7.7446   58.0223   18.4818 O.2       1 UNK         0.0000 
     10 C10         8.0429   55.6503   18.3380 C.3       1 UNK         0.0000 
     11 H11         7.6020   55.6151   17.3408 H         1 UNK         0.0000 
     12 C12         9.1289   54.5494   18.3694 C.3       1 UNK         0.0000 
     13 S13         6.6303   55.2958   19.4450 S.3       1 UNK         0.0000 
     14 C14         7.2760   55.4274   21.1522 C.3       1 UNK         0.0000 
     15 C15         6.3052   54.8967   22.2265 C.2       1 UNK         0.0000 
     16 O16         5.2331   54.3839   21.8995 O.2       1 UNK         0.0000 
     17 N17         6.7045   55.0393   23.5110 N.am      1 UNK         0.0000 
     18 C18         5.9638   54.7138   24.6424 C.2       1 UNK         0.0000 
     19 N19         4.7258   54.2991   24.6929 N.2       1 UNK         0.0000 
     20 C20         4.2673   54.0968   25.9202 C.2       1 UNK         0.0000 
     21 C21         5.1974   54.4169   26.9407 C.2       1 UNK         0.0000 
     22 S22         6.6974   54.8966   26.1818 S.3       1 UNK         0.0000 
     23 C23         5.1070   54.3959   28.4513 C.3       1 UNK         0.0000 
     24 C24         2.8611   53.5477   26.0587 C.ar      1 UNK         0.0000 
     25 C25         2.0205   53.4611   24.9334 C.ar      1 UNK         0.0000 
     26 C26         0.7523   52.8964   25.0264 C.ar      1 UNK         0.0000 
     27 C27         0.2979   52.4242   26.2536 C.ar      1 UNK         0.0000 
     28 C28         1.1072   52.5012   27.3813 C.ar      1 UNK         0.0000 
     29 C29         2.3804   53.0558   27.2816 C.ar      1 UNK         0.0000 
     30 Br30       -1.4510   51.6888   26.3963 Br        1 UNK         0.0000 
     31 H31        14.4178   60.0749   18.7616 H         1 UNK         0.0000 
     32 H32        13.5580   61.3409   19.6237 H         1 UNK         0.0000 
     33 H33        13.6531   61.3786   17.8697 H         1 UNK         0.0000 
     34 H34        12.6675   57.7492   18.6784 H         1 UNK         0.0000 
     35 H35        10.4878   56.4722   18.5513 H         1 UNK         0.0000 
     36 H36         9.8935   54.7059   17.6072 H         1 UNK         0.0000 
     37 H37         9.6305   54.4970   19.3335 H         1 UNK         0.0000 
     38 H38         8.6904   53.5717   18.1699 H         1 UNK         0.0000 
     39 H39         8.2228   54.8967   21.2247 H         1 UNK         0.0000 
     40 H40         7.4895   56.4761   21.3539 H         1 UNK         0.0000 
     41 H41         7.6509   55.3604   23.6760 H         1 UNK         0.0000 
     42 H42         4.1724   54.8242   28.8124 H         1 UNK         0.0000 
     43 H43         5.1929   53.3834   28.8454 H         1 UNK         0.0000 
     44 H44         5.9044   54.9768   28.9145 H         1 UNK         0.0000 
     45 H45         2.3452   53.8184   23.9665 H         1 UNK         0.0000 
     46 H46         0.1213   52.8329   24.1522 H         1 UNK         0.0000 
     47 H47         0.7519   52.1200   28.3277 H         1 UNK         0.0000 
     48 H48         2.9882   53.0578   28.1681 H         1 UNK         0.0000 
@<TRIPOS>BOND
     1    1    2 1    
     2    1   31 1    
     3    1   32 1    
     4    1   33 1    
     5    2    6 1    
     6    2    3 2    
     7    3    4 1    
     8    3   34 1    
     9    4    5 2    
    10    4    7 1    
    11    5    6 1    
    12    7    8 am   BACKBONE|DICT|INTERRES
    13    7   35 1    
    14    8    9 2    
    15    8   10 1    
    16   10   11 1    
    17   10   12 1    
    18   10   13 1    
    19   12   36 1    
    20   12   37 1    
    21   12   38 1    
    22   13   14 1    
    23   14   15 1    
    24   14   39 1    
    25   14   40 1    
    26   15   16 2    
    27   15   17 am   BACKBONE|DICT|INTERRES
    28   17   18 am   BACKBONE|DICT|INTERRES
    29   17   41 1    
    30   18   22 1    
    31   18   19 2    
    32   19   20 1    
    33   20   21 2    
    34   20   24 1    
    35   21   22 1    
    36   21   23 1    
    37   23   42 1    
    38   23   43 1    
    39   23   44 1    
    40   24   29 ar   
    41   24   25 ar   
    42   25   26 ar   
    43   25   45 1    
    44   26   27 ar   
    45   26   46 1    
    46   27   28 ar   
    47   27   30 1    
    48   28   29 ar   
    49   28   47 1    
    50   29   48 1    
@<TRIPOS>SUBSTRUCTURE
     1 UNK         1 GROUP             0       ****    0 ROOT    
