@<TRIPOS>MOLECULE
ZINC09781164_1235
59   63    1
SMALL
USER_CHARGES


@<TRIPOS>ATOM
      1 C1          8.9543   55.3628   19.2815 C.3       1 UNK         0.0000 
      2 C2          8.3824   56.6159   18.6261 C.ar      1 UNK         0.0000 
      3 C3          9.2855   57.5574   18.1212 C.ar      1 UNK         0.0000 
      4 C4          8.8297   58.6924   17.4541 C.ar      1 UNK         0.0000 
      5 C5          7.4632   58.8927   17.2774 C.ar      1 UNK         0.0000 
      6 C6          6.5475   57.9674   17.7780 C.ar      1 UNK         0.0000 
      7 C7          6.9945   56.8331   18.4625 C.ar      1 UNK         0.0000 
      8 N8          6.0261   55.9155   18.9008 N.am      1 UNK         0.0000 
      9 C9          5.9039   55.4572   20.1624 C.2       1 UNK         0.0000 
     10 O10         6.4484   56.0249   21.1124 O.2       1 UNK         0.0000 
     11 C11         5.0869   54.2555   20.3325 C.2       1 UNK         0.0000 
     12 C12         5.1121   53.1865   19.4705 C.2       1 UNK         0.0000 
     13 N13         4.3039   52.0977   19.7166 N.pl3     1 UNK         0.0000 
     14 C14         3.4298   52.0343   20.7194 C.ar      1 UNK         0.0000 
     15 N15         2.6900   50.9964   21.0754 N.2       1 UNK         0.0000 
     16 C16         2.0220   51.4118   22.0816 C.ar      1 UNK         0.0000 
     17 N17         2.3481   52.7474   22.4196 N.pl3     1 UNK         0.0000 
     18 N18         3.2881   53.0815   21.5016 N.pl3     1 UNK         0.0000 
     19 C19         4.2222   54.2108   21.6365 C.3       1 UNK         0.0000 
     20 H20         3.6009   55.1040   21.6912 H         1 UNK         0.0000 
     21 C21         4.9872   54.1157   22.9738 C.ar      1 UNK         0.0000 
     22 C22         4.3796   54.4967   24.1763 C.ar      1 UNK         0.0000 
     23 C23         5.1322   54.4932   25.3523 C.ar      1 UNK         0.0000 
     24 C24         6.4692   54.0982   25.3076 C.ar      1 UNK         0.0000 
     25 C25         7.0023   53.7087   24.0776 C.ar      1 UNK         0.0000 
     26 N26         6.2791   53.6951   22.9322 N.ar      1 UNK         0.0000 
     27 S27         0.8196   50.4585   23.0335 S.3       1 UNK         0.0000 
     28 C28        -0.0958   51.7440   23.9537 C.3       1 UNK         0.0000 
     29 C29         0.4034   51.9105   25.3834 C.ar      1 UNK         0.0000 
     30 C30        -0.1191   51.1080   26.4012 C.ar      1 UNK         0.0000 
     31 C31         0.2943   51.2963   27.7165 C.ar      1 UNK         0.0000 
     32 C32         1.2392   52.2745   28.0148 C.ar      1 UNK         0.0000 
     33 C33         1.7687   53.0759   27.0063 C.ar      1 UNK         0.0000 
     34 C34         1.3449   52.8965   25.6917 C.ar      1 UNK         0.0000 
     35 C35         5.9486   52.9376   18.2137 C.3       1 UNK         0.0000 
     36 H36         9.1064   55.5197   20.3498 H         1 UNK         0.0000 
     37 H37         8.3165   54.4926   19.1392 H         1 UNK         0.0000 
     38 H38         9.9053   55.0897   18.8317 H         1 UNK         0.0000 
     39 H39        10.3489   57.4025   18.2395 H         1 UNK         0.0000 
     40 H40         9.5366   59.4087   17.0618 H         1 UNK         0.0000 
     41 H41         7.1041   59.7630   16.7491 H         1 UNK         0.0000 
     42 H42         5.4914   58.1451   17.6312 H         1 UNK         0.0000 
     43 H43         5.3475   55.6103   18.2209 H         1 UNK         0.0000 
     44 H44         3.3604   54.8488   24.1911 H         1 UNK         0.0000 
     45 H45         4.6890   54.8032   26.2870 H         1 UNK         0.0000 
     46 H46         7.0698   54.0791   26.2053 H         1 UNK         0.0000 
     47 H47         8.0261   53.3773   23.9905 H         1 UNK         0.0000 
     48 H48        -0.1071   52.6990   23.4302 H         1 UNK         0.0000 
     49 H49        -1.1429   51.4397   23.9876 H         1 UNK         0.0000 
     50 H50        -0.8507   50.3417   26.1844 H         1 UNK         0.0000 
     51 H51        -0.1205   50.6793   28.5008 H         1 UNK         0.0000 
     52 H52         1.5596   52.4134   29.0368 H         1 UNK         0.0000 
     53 H53         2.4977   53.8362   27.2441 H         1 UNK         0.0000 
     54 H54         1.7407   53.5334   24.9198 H         1 UNK         0.0000 
     55 H55         6.7038   52.1884   18.4436 H         1 UNK         0.0000 
     56 H56         5.3406   52.5005   17.4142 H         1 UNK         0.0000 
     57 H57         6.4687   53.7943   17.7971 H         1 UNK         0.0000 
     58 H58         4.4458   51.2786   19.1205 H         1 UNK         0.0000 
     59 H59         1.6625   53.4675   22.5770 H         1 UNK         0.0000 
@<TRIPOS>BOND
     1    1    2 1    
     2    1   36 1    
     3    1   37 1    
     4    1   38 1    
     5    2    7 ar   
     6    2    3 ar   
     7    3    4 ar   
     8    3   39 1    
     9    4    5 ar   
    10    4   40 1    
    11    5    6 ar   
    12    5   41 1    
    13    6    7 ar   
    14    6   42 1    
    15    7    8 1    
    16    8    9 am   BACKBONE|DICT|INTERRES
    17    8   43 1    
    18    9   10 2    
    19    9   11 1    
    20   11   19 1    
    21   11   12 2    
    22   12   13 1    
    23   12   35 1    
    24   13   14 2    
    25   13   58 1    
    26   14   18 ar   
    27   14   15 ar   
    28   15   16 ar   
    29   16   17 ar   
    30   16   27 1    
    31   17   18 1    
    32   17   59 1    
    33   18   19 1    
    34   19   20 1    
    35   19   21 1    
    36   21   26 ar   
    37   21   22 ar   
    38   22   23 ar   
    39   22   44 1    
    40   23   24 ar   
    41   23   45 1    
    42   24   25 ar   
    43   24   46 1    
    44   25   26 ar   
    45   25   47 1    
    46   27   28 1    
    47   28   29 1    
    48   28   48 1    
    49   28   49 1    
    50   29   34 ar   
    51   29   30 ar   
    52   30   31 ar   
    53   30   50 1    
    54   31   32 ar   
    55   31   51 1    
    56   32   33 ar   
    57   32   52 1    
    58   33   34 ar   
    59   33   53 1    
    60   34   54 1    
    61   35   55 1    
    62   35   56 1    
    63   35   57 1    
@<TRIPOS>SUBSTRUCTURE
     1 UNK         1 GROUP             0       ****    0 ROOT    
