@<TRIPOS>MOLECULE
ZINC39445833_1237
67   71    1
SMALL
USER_CHARGES


@<TRIPOS>ATOM
      1 C1          8.7524   51.6746   16.0145 C.ar      1 UNK         0.0000 
      2 C2          9.9291   50.9946   16.3203 C.ar      1 UNK         0.0000 
      3 C3         10.4970   50.1293   15.3886 C.ar      1 UNK         0.0000 
      4 C4          9.9045   49.9475   14.1421 C.ar      1 UNK         0.0000 
      5 C5          8.7246   50.6197   13.8382 C.ar      1 UNK         0.0000 
      6 C6          8.1357   51.4863   14.7723 C.ar      1 UNK         0.0000 
      7 C7          6.8497   52.1246   14.4328 C.2       1 UNK         0.0000 
      8 N8          5.8931   51.5313   13.8440 N.2       1 UNK         0.0000 
      9 N9          4.9226   52.3118   13.5965 N.2       1 UNK         0.0000 
     10 C10         5.1717   53.4809   13.9992 C.2       1 UNK         0.0000 
     11 C11         6.5133   53.5885   14.6663 C.3       1 UNK         0.0000 
     12 H12         7.1675   54.2079   14.0496 H         1 UNK         0.0000 
     13 C13         6.4754   54.1762   16.1025 C.3       1 UNK         0.0000 
     14 N14         5.6552   53.3045   17.0781 N.4       1 UNK         0.0000 
     15 C15         5.1737   54.0222   18.3563 C.3       1 UNK         0.0000 
     16 C16         4.4164   52.9667   19.1636 C.3       1 UNK         0.0000 
     17 C17         4.0040   53.4425   20.5627 C.3       1 UNK         0.0000 
     18 N18         5.1047   53.9881   21.3789 N.pl3     1 UNK         0.0000 
     19 C19         5.9739   54.9285   20.6376 C.3       1 UNK         0.0000 
     20 C20         6.3660   54.4878   19.2078 C.3       1 UNK         0.0000 
     21 C21         4.9667   54.0971   22.7635 C.ar      1 UNK         0.0000 
     22 C22         6.0942   54.2098   23.5867 C.ar      1 UNK         0.0000 
     23 C23         5.9616   54.3160   24.9699 C.ar      1 UNK         0.0000 
     24 C24         4.6963   54.3040   25.5736 C.ar      1 UNK         0.0000 
     25 C25         3.5658   54.1897   24.7502 C.ar      1 UNK         0.0000 
     26 C26         3.7017   54.0962   23.3700 C.ar      1 UNK         0.0000 
     27 C27         4.5797   54.4236   27.0813 C.2       1 UNK         0.0000 
     28 O28         5.5873   54.4969   27.7866 O.2       1 UNK         0.0000 
     29 N29         3.3345   54.4972   27.5898 N.am      1 UNK         0.0000 
     30 C30         2.9970   54.7971   28.9814 C.3       1 UNK         0.0000 
     31 C31         1.9701   55.9360   29.0772 C.3       1 UNK         0.0000 
     32 C32         1.2650   55.7041   30.4104 C.3       1 UNK         0.0000 
     33 C33         1.1362   54.1781   30.4842 C.3       1 UNK         0.0000 
     34 C34         2.3347   53.6070   29.7037 C.3       1 UNK         0.0000 
     35 Cl35       11.9396   49.2702   15.7864 Cl        1 UNK         0.0000 
     36 H36         8.3268   52.3052   16.7754 H         1 UNK         0.0000 
     37 H37        10.4006   51.1302   17.2816 H         1 UNK         0.0000 
     38 H38        10.3559   49.2853   13.4161 H         1 UNK         0.0000 
     39 H39         8.2706   50.4532   12.8720 H         1 UNK         0.0000 
     40 H40         4.4791   54.3069   13.8628 H         1 UNK         0.0000 
     41 H41         5.9844   55.1525   16.1068 H         1 UNK         0.0000 
     42 H42         7.4627   54.2993   16.5482 H         1 UNK         0.0000 
     43 H43         6.2002   52.4985   17.3561 H         1 UNK         0.0000 
     44 H44         4.4698   54.8289   18.1377 H         1 UNK         0.0000 
     45 H45         5.0495   52.0968   19.3068 H         1 UNK         0.0000 
     46 H46         3.5657   52.5795   18.6015 H         1 UNK         0.0000 
     47 H47         3.5759   52.5851   21.0826 H         1 UNK         0.0000 
     48 H48         3.2156   54.1833   20.4910 H         1 UNK         0.0000 
     49 H49         5.5042   55.9122   20.6128 H         1 UNK         0.0000 
     50 H50         6.9032   55.0649   21.1896 H         1 UNK         0.0000 
     51 H51         6.9056   55.2844   18.6946 H         1 UNK         0.0000 
     52 H52         7.1092   53.6962   19.2814 H         1 UNK         0.0000 
     53 H53         7.0881   54.2007   23.1650 H         1 UNK         0.0000 
     54 H54         6.8569   54.3950   25.5702 H         1 UNK         0.0000 
     55 H55         2.5643   54.1767   25.1549 H         1 UNK         0.0000 
     56 H56         2.8022   54.0261   22.7762 H         1 UNK         0.0000 
     57 H57         2.5554   54.3066   26.9803 H         1 UNK         0.0000 
     58 H58         3.8509   55.1139   29.5887 H         1 UNK         0.0000 
     59 H59         1.2439   55.8685   28.2644 H         1 UNK         0.0000 
     60 H60         2.4269   56.9203   28.9956 H         1 UNK         0.0000 
     61 H61         0.3046   56.2114   30.4780 H         1 UNK         0.0000 
     62 H62         1.8734   56.0971   31.2248 H         1 UNK         0.0000 
     63 H63         0.2029   53.8661   30.0127 H         1 UNK         0.0000 
     64 H64         1.1021   53.8155   31.5130 H         1 UNK         0.0000 
     65 H65         3.0495   53.0956   30.3477 H         1 UNK         0.0000 
     66 H66         1.9691   52.8612   28.9956 H         1 UNK         0.0000 
     67 H67         4.8487   52.9086   16.6142 H         1 UNK         0.0000 
@<TRIPOS>BOND
     1    1    6 ar   
     2    1    2 ar   
     3    1   36 1    
     4    2    3 ar   
     5    2   37 1    
     6    3    4 ar   
     7    3   35 1    
     8    4    5 ar   
     9    4   38 1    
    10    5    6 ar   
    11    5   39 1    
    12    6    7 1    
    13    7   11 1    
    14    7    8 2    
    15    8    9 1    
    16    9   10 2    
    17   10   11 1    
    18   10   40 1    
    19   11   12 1    
    20   11   13 1    
    21   13   14 1    
    22   13   41 1    
    23   13   42 1    
    24   14   15 1    
    25   14   43 1    
    26   14   67 1    
    27   15   20 1    
    28   15   16 1    
    29   15   44 1    
    30   16   17 1    
    31   16   45 1    
    32   16   46 1    
    33   17   18 1    
    34   17   47 1    
    35   17   48 1    
    36   18   19 1    
    37   18   21 1    
    38   19   20 1    
    39   19   49 1    
    40   19   50 1    
    41   20   51 1    
    42   20   52 1    
    43   21   26 ar   
    44   21   22 ar   
    45   22   23 ar   
    46   22   53 1    
    47   23   24 ar   
    48   23   54 1    
    49   24   25 ar   
    50   24   27 1    
    51   25   26 ar   
    52   25   55 1    
    53   26   56 1    
    54   27   28 2    
    55   27   29 am   BACKBONE|DICT|INTERRES
    56   29   30 1    
    57   29   57 1    
    58   30   34 1    
    59   30   31 1    
    60   30   58 1    
    61   31   32 1    
    62   31   59 1    
    63   31   60 1    
    64   32   33 1    
    65   32   61 1    
    66   32   62 1    
    67   33   34 1    
    68   33   63 1    
    69   33   64 1    
    70   34   65 1    
    71   34   66 1    
@<TRIPOS>SUBSTRUCTURE
     1 UNK         1 GROUP             0       ****    0 ROOT    
