@<TRIPOS>MOLECULE
ZINC14468144_5140
67   71    1
SMALL
USER_CHARGES


@<TRIPOS>ATOM
      1 C1          6.2307   53.2962   23.0765 C.3       1 UNK         0.0000 
      2 C2          5.9495   54.4970   22.1658 C.2       1 UNK         0.0000 
      3 O3          6.7055   55.4669   22.1961 O.2       1 UNK         0.0000 
      4 O4          4.8830   54.4237   21.3139 O.3       1 UNK         0.0000 
      5 C5          3.9680   53.3960   21.3646 C.ar      1 UNK         0.0000 
      6 C6          3.9273   52.5061   20.2863 C.ar      1 UNK         0.0000 
      7 C7          3.0387   51.4342   20.2840 C.ar      1 UNK         0.0000 
      8 C8          2.1667   51.2491   21.3580 C.ar      1 UNK         0.0000 
      9 C9          2.1872   52.1545   22.4229 C.ar      1 UNK         0.0000 
     10 C10         3.0875   53.2304   22.4500 C.ar      1 UNK         0.0000 
     11 O11         3.1658   54.1215   23.5054 O.3       1 UNK         0.0000 
     12 C12         2.4721   53.8234   24.7148 C.3       1 UNK         0.0000 
     13 C13         1.1884   50.0809   21.3714 C.3       1 UNK         0.0000 
     14 H14         1.5651   49.3449   20.6595 H         1 UNK         0.0000 
     15 C15        -0.2328   50.5242   20.9457 C.3       1 UNK         0.0000 
     16 H16        -0.5619   51.2567   21.6907 H         1 UNK         0.0000 
     17 C17        -0.4801   51.1739   19.5873 C.3       1 UNK         0.0000 
     18 C18        -1.9635   50.8847   19.4040 C.2       1 UNK         0.0000 
     19 C19        -2.3765   49.9130   20.2445 C.2       1 UNK         0.0000 
     20 C20        -1.1779   49.3335   20.9684 C.3       1 UNK         0.0000 
     21 H21        -0.7796   48.5029   20.3796 H         1 UNK         0.0000 
     22 C22        -1.2622   48.8371   22.4053 C.ar      1 UNK         0.0000 
     23 C23        -2.4211   48.2890   22.9686 C.ar      1 UNK         0.0000 
     24 C24        -2.4219   47.8156   24.2841 C.ar      1 UNK         0.0000 
     25 C25        -1.2635   47.8996   25.0571 C.ar      1 UNK         0.0000 
     26 C26        -0.0994   48.4335   24.5113 C.ar      1 UNK         0.0000 
     27 C27        -0.0878   48.8787   23.1911 C.ar      1 UNK         0.0000 
     28 N28         1.1180   49.4107   22.6854 N.pl3     1 UNK         0.0000 
     29 S29        -3.8922   47.0961   24.9987 S.o2      1 UNK         0.0000 
     30 O30        -5.0230   47.4334   24.1274 O.2       1 UNK         0.0000 
     31 O31        -3.5616   45.6973   25.2909 O.2       1 UNK         0.0000 
     32 N32        -4.0896   47.9324   26.5288 N.pl3     1 UNK         0.0000 
     33 C33        -4.5075   49.3467   26.4747 C.3       1 UNK         0.0000 
     34 C34        -6.0257   49.3605   26.7609 C.3       1 UNK         0.0000 
     35 C35        -6.5460   50.8124   26.7838 C.3       1 UNK         0.0000 
     36 C36        -5.7674   51.6706   27.8111 C.3       1 UNK         0.0000 
     37 C37        -4.2343   51.5810   27.6153 C.3       1 UNK         0.0000 
     38 C38        -3.7439   50.1214   27.5633 C.3       1 UNK         0.0000 
     39 H39         5.5603   53.3019   23.9355 H         1 UNK         0.0000 
     40 H40         7.2558   53.3345   23.4477 H         1 UNK         0.0000 
     41 H41         6.0988   52.3644   22.5289 H         1 UNK         0.0000 
     42 H42         4.5986   52.6312   19.4493 H         1 UNK         0.0000 
     43 H43         3.0404   50.7505   19.4462 H         1 UNK         0.0000 
     44 H44         1.4949   52.0003   23.2374 H         1 UNK         0.0000 
     45 H45         2.7995   54.4974   25.5016 H         1 UNK         0.0000 
     46 H46         1.3947   53.9502   24.5926 H         1 UNK         0.0000 
     47 H47         2.6775   52.8125   25.0655 H         1 UNK         0.0000 
     48 H48        -0.2649   52.2440   19.6248 H         1 UNK         0.0000 
     49 H49         0.1386   50.7459   18.7960 H         1 UNK         0.0000 
     50 H50        -2.5761   51.4203   18.6926 H         1 UNK         0.0000 
     51 H51        -3.3715   49.4924   20.3105 H         1 UNK         0.0000 
     52 H52        -3.3220   48.2195   22.3733 H         1 UNK         0.0000 
     53 H53        -1.2556   47.5503   26.0816 H         1 UNK         0.0000 
     54 H54         0.7912   48.4859   25.1204 H         1 UNK         0.0000 
     55 H55         1.9995   49.2475   23.1533 H         1 UNK         0.0000 
     56 H56        -3.3054   47.7746   27.1763 H         1 UNK         0.0000 
     57 H57        -4.3954   49.7700   25.4732 H         1 UNK         0.0000 
     58 H58        -6.5652   48.7745   26.0141 H         1 UNK         0.0000 
     59 H59        -6.2321   48.8876   27.7259 H         1 UNK         0.0000 
     60 H60        -6.4482   51.2524   25.7897 H         1 UNK         0.0000 
     61 H61        -7.6114   50.8220   27.0206 H         1 UNK         0.0000 
     62 H62        -6.0955   52.7104   27.7470 H         1 UNK         0.0000 
     63 H63        -6.0194   51.3314   28.8168 H         1 UNK         0.0000 
     64 H64        -3.9528   52.0975   26.6957 H         1 UNK         0.0000 
     65 H65        -3.7219   52.0960   28.4279 H         1 UNK         0.0000 
     66 H66        -3.8837   49.6552   28.5424 H         1 UNK         0.0000 
     67 H67        -2.6714   50.0958   27.3638 H         1 UNK         0.0000 
@<TRIPOS>BOND
     1    1    2 1    
     2    1   39 1    
     3    1   40 1    
     4    1   41 1    
     5    2    3 2    
     6    2    4 1    
     7    4    5 1    
     8    5   10 ar   
     9    5    6 ar   
    10    6    7 ar   
    11    6   42 1    
    12    7    8 ar   
    13    7   43 1    
    14    8    9 ar   
    15    8   13 1    
    16    9   10 ar   
    17    9   44 1    
    18   10   11 1    
    19   11   12 1    
    20   12   45 1    
    21   12   46 1    
    22   12   47 1    
    23   13   14 1    
    24   13   28 1    
    25   13   15 1    
    26   15   16 1    
    27   15   20 1    
    28   15   17 1    
    29   17   18 1    
    30   17   48 1    
    31   17   49 1    
    32   18   19 2    
    33   18   50 1    
    34   19   20 1    
    35   19   51 1    
    36   20   21 1    
    37   20   22 1    
    38   22   27 ar   
    39   22   23 ar   
    40   23   24 ar   
    41   23   52 1    
    42   24   25 ar   
    43   24   29 1    
    44   25   26 ar   
    45   25   53 1    
    46   26   27 ar   
    47   26   54 1    
    48   27   28 1    
    49   28   55 1    
    50   29   30 2    
    51   29   31 2    
    52   29   32 1    
    53   32   33 1    
    54   32   56 1    
    55   33   38 1    
    56   33   34 1    
    57   33   57 1    
    58   34   35 1    
    59   34   58 1    
    60   34   59 1    
    61   35   36 1    
    62   35   60 1    
    63   35   61 1    
    64   36   37 1    
    65   36   62 1    
    66   36   63 1    
    67   37   38 1    
    68   37   64 1    
    69   37   65 1    
    70   38   66 1    
    71   38   67 1    
@<TRIPOS>SUBSTRUCTURE
     1 UNK         1 GROUP             0       ****    0 ROOT    
