@<TRIPOS>MOLECULE
ZINC39592228_4956
53   56    1
SMALL
USER_CHARGES


@<TRIPOS>ATOM
      1 C1          2.3040   47.7769   18.1191 C.3       1 UNK         0.0000 
      2 C2          1.1008   47.6144   19.0281 C.ar      1 UNK         0.0000 
      3 C3          0.3175   46.4608   18.9715 C.ar      1 UNK         0.0000 
      4 C4         -0.7713   46.3220   19.8309 C.ar      1 UNK         0.0000 
      5 C5         -1.0856   47.3334   20.7485 C.ar      1 UNK         0.0000 
      6 C6         -0.3161   48.5030   20.7616 C.ar      1 UNK         0.0000 
      7 C7          0.7758   48.6403   19.9125 C.ar      1 UNK         0.0000 
      8 C8         -2.2133   47.1903   21.6951 C.2       1 UNK         0.0000 
      9 C9         -2.9570   48.1795   22.1947 C.2       1 UNK         0.0000 
     10 C10        -3.8515   47.4936   23.1824 C.3       1 UNK         0.0000 
     11 H11        -4.8898   47.5412   22.8496 H         1 UNK         0.0000 
     12 N12        -3.4291   46.1160   23.1069 N.2       1 UNK         0.0000 
     13 N13        -2.4957   45.9894   22.2499 N.2       1 UNK         0.0000 
     14 C14        -3.7575   48.0695   24.6272 C.3       1 UNK         0.0000 
     15 H15        -4.4708   47.5444   25.2679 H         1 UNK         0.0000 
     16 N16        -4.1570   49.4563   24.6153 N.2       1 UNK         0.0000 
     17 N17        -3.3380   50.1683   25.2606 N.2       1 UNK         0.0000 
     18 C18        -2.3007   49.3464   25.8119 C.3       1 UNK         0.0000 
     19 H19        -2.4956   49.2997   26.8817 H         1 UNK         0.0000 
     20 N20        -2.4406   48.0258   25.2390 N.3       1 UNK         0.0000 
     21 N21        -2.0955   46.8968   26.0816 N.3       1 UNK         0.0000 
     22 S22        -0.6527   50.0815   25.5947 S.3       1 UNK         0.0000 
     23 C23        -0.6235   51.2458   26.9935 C.3       1 UNK         0.0000 
     24 C24         0.7827   51.7618   27.2949 C.2       1 UNK         0.0000 
     25 O25         1.4020   51.3017   28.2542 O.2       1 UNK         0.0000 
     26 N26         1.2669   52.6979   26.4495 N.am      1 UNK         0.0000 
     27 C27         2.5371   53.3136   26.4617 C.ar      1 UNK         0.0000 
     28 C28         3.2520   53.5173   27.6549 C.ar      1 UNK         0.0000 
     29 C29         4.5197   54.0972   27.6382 C.ar      1 UNK         0.0000 
     30 C30         5.0840   54.4974   26.4319 C.ar      1 UNK         0.0000 
     31 C31         4.3761   54.3285   25.2442 C.ar      1 UNK         0.0000 
     32 C32         3.1002   53.7397   25.2377 C.ar      1 UNK         0.0000 
     33 C33         2.3632   53.5584   23.9005 C.3       1 UNK         0.0000 
     34 F34         1.2083   54.2272   23.9279 F         1 UNK         0.0000 
     35 F35         3.0730   54.0060   22.8597 F         1 UNK         0.0000 
     36 F36         2.0905   52.2681   23.6886 F         1 UNK         0.0000 
     37 Cl37        6.6577   55.2094   26.4053 Cl        1 UNK         0.0000 
     38 H38         3.2317   47.6965   18.6857 H         1 UNK         0.0000 
     39 H39         2.3157   47.0601   17.2978 H         1 UNK         0.0000 
     40 H40         2.3040   48.7745   17.6786 H         1 UNK         0.0000 
     41 H41         0.5577   45.6709   18.2761 H         1 UNK         0.0000 
     42 H42        -1.3656   45.4211   19.7901 H         1 UNK         0.0000 
     43 H43        -0.5420   49.2988   21.4549 H         1 UNK         0.0000 
     44 H44         1.3761   49.5397   19.9513 H         1 UNK         0.0000 
     45 H45        -2.9336   49.2407   21.9935 H         1 UNK         0.0000 
     46 H46        -1.0814   46.8586   26.1054 H         1 UNK         0.0000 
     47 H47        -2.3721   47.1511   27.0284 H         1 UNK         0.0000 
     48 H48        -1.3064   52.0719   26.8040 H         1 UNK         0.0000 
     49 H49        -0.9962   50.7303   27.8784 H         1 UNK         0.0000 
     50 H50         0.7095   52.8825   25.6300 H         1 UNK         0.0000 
     51 H51         2.8374   53.2300   28.6094 H         1 UNK         0.0000 
     52 H52         5.0612   54.2365   28.5608 H         1 UNK         0.0000 
     53 H53         4.8351   54.6500   24.3199 H         1 UNK         0.0000 
@<TRIPOS>BOND
     1    1    2 1    
     2    1   38 1    
     3    1   39 1    
     4    1   40 1    
     5    2    7 ar   
     6    2    3 ar   
     7    3    4 ar   
     8    3   41 1    
     9    4    5 ar   
    10    4   42 1    
    11    5    6 ar   
    12    5    8 1    
    13    6    7 ar   
    14    6   43 1    
    15    7   44 1    
    16    8   13 1    
    17    8    9 2    
    18    9   10 1    
    19    9   45 1    
    20   10   11 1    
    21   10   12 1    
    22   10   14 1    
    23   12   13 2    
    24   14   15 1    
    25   14   20 1    
    26   14   16 1    
    27   16   17 2    
    28   17   18 1    
    29   18   19 1    
    30   18   20 1    
    31   18   22 1    
    32   20   21 1    
    33   21   46 1    
    34   21   47 1    
    35   22   23 1    
    36   23   24 1    
    37   23   48 1    
    38   23   49 1    
    39   24   25 2    
    40   24   26 am   BACKBONE|DICT|INTERRES
    41   26   27 1    
    42   26   50 1    
    43   27   32 ar   
    44   27   28 ar   
    45   28   29 ar   
    46   28   51 1    
    47   29   30 ar   
    48   29   52 1    
    49   30   31 ar   
    50   30   37 1    
    51   31   32 ar   
    52   31   53 1    
    53   32   33 1    
    54   33   34 1    
    55   33   35 1    
    56   33   36 1    
@<TRIPOS>SUBSTRUCTURE
     1 UNK         1 GROUP             0       ****    0 ROOT    
