@<TRIPOS>MOLECULE
ZINC13415967_5819
52   56    1
SMALL
USER_CHARGES


@<TRIPOS>ATOM
      1 C1          0.6352   54.8258   30.4580 C.3       1 UNK         0.0000 
      2 C2          0.0790   53.4157   30.7290 C.3       1 UNK         0.0000 
      3 C3          0.9267   52.2280   30.2100 C.3       1 UNK         0.0000 
      4 N4          1.5584   52.4645   28.8880 N.pl3     1 UNK         0.0000 
      5 C5          2.9046   52.8269   28.9458 C.ar      1 UNK         0.0000 
      6 O6          3.5877   52.7764   29.9744 O.2       1 UNK         0.0000 
      7 C7          3.3721   53.2968   27.6488 C.ar      1 UNK         0.0000 
      8 C8          4.6526   53.7262   27.2729 C.2       1 UNK         0.0000 
      9 C9          4.7202   54.1231   25.9540 C.2       1 UNK         0.0000 
     10 S10         3.2083   53.9654   25.1200 S.3       1 UNK         0.0000 
     11 C11         2.4866   53.3338   26.5737 C.ar      1 UNK         0.0000 
     12 N12         1.2017   52.8964   26.6172 N.2       1 UNK         0.0000 
     13 C13         0.7619   52.4226   27.7323 C.ar      1 UNK         0.0000 
     14 S14        -0.9138   51.7114   27.7696 S.3       1 UNK         0.0000 
     15 C15        -1.5000   51.7862   26.0416 C.3       1 UNK         0.0000 
     16 C16        -1.0125   50.6396   25.1658 C.ar      1 UNK         0.0000 
     17 C17         0.0608   50.8503   24.3553 C.ar      1 UNK         0.0000 
     18 C18         0.6625   49.8754   23.4675 C.ar      1 UNK         0.0000 
     19 O19         1.6938   50.0718   22.8296 O.2       1 UNK         0.0000 
     20 N20        -0.0048   48.7026   23.4126 N.pl3     1 UNK         0.0000 
     21 H21         0.4070   48.0248   22.7913 H         1 UNK         0.0000 
     22 C22        -1.1264   48.4165   24.1716 C.ar      1 UNK         0.0000 
     23 C23        -1.7097   49.3186   25.0661 C.ar      1 UNK         0.0000 
     24 C24        -2.8784   48.7749   25.6806 C.2       1 UNK         0.0000 
     25 C25        -3.1233   47.4459   25.2376 C.2       1 UNK         0.0000 
     26 S26        -1.9203   46.9000   24.0973 S.3       1 UNK         0.0000 
     27 C27        -4.2130   46.4962   25.5600 C.2       1 UNK         0.0000 
     28 O28        -5.2169   46.9506   26.1502 O.co2     1 UNK         0.0000 
     29 O29        -4.0955   45.2972   25.1909 O.co2     1 UNK         0.0000 
     30 C30        -3.6977   49.4734   26.7543 C.3       1 UNK         0.0000 
     31 C31         6.0973   54.5719   25.5561 C.3       1 UNK         0.0000 
     32 C32         6.7889   54.6739   26.9283 C.3       1 UNK         0.0000 
     33 C33         6.0099   53.7975   27.9189 C.3       1 UNK         0.0000 
     34 H34        -0.0146   55.5876   30.8818 H         1 UNK         0.0000 
     35 H35         1.6257   54.9631   30.8800 H         1 UNK         0.0000 
     36 H36         0.7050   55.0317   29.3890 H         1 UNK         0.0000 
     37 H37        -0.8952   53.3489   30.2518 H         1 UNK         0.0000 
     38 H38        -0.1148   53.2798   31.7958 H         1 UNK         0.0000 
     39 H39         0.2844   51.3503   30.1179 H         1 UNK         0.0000 
     40 H40         1.6558   51.9556   30.9770 H         1 UNK         0.0000 
     41 H41        -2.5877   51.8135   26.0275 H         1 UNK         0.0000 
     42 H42        -1.2059   52.7431   25.6101 H         1 UNK         0.0000 
     43 H43         0.5522   51.8113   24.3715 H         1 UNK         0.0000 
     44 H44        -4.1763   48.7770   27.4399 H         1 UNK         0.0000 
     45 H45        -3.0880   50.0780   27.4186 H         1 UNK         0.0000 
     46 H46        -4.4673   50.1162   26.3313 H         1 UNK         0.0000 
     47 H47         6.1093   55.5350   25.0433 H         1 UNK         0.0000 
     48 H48         6.5926   53.8435   24.9112 H         1 UNK         0.0000 
     49 H49         6.7366   55.7003   27.2815 H         1 UNK         0.0000 
     50 H50         7.8428   54.4064   26.8840 H         1 UNK         0.0000 
     51 H51         6.4684   52.8104   27.9911 H         1 UNK         0.0000 
     52 H52         5.9994   54.2303   28.9195 H         1 UNK         0.0000 
@<TRIPOS>BOND
     1    1    2 1    
     2    1   34 1    
     3    1   35 1    
     4    1   36 1    
     5    2    3 1    
     6    2   37 1    
     7    2   38 1    
     8    3    4 1    
     9    3   39 1    
    10    3   40 1    
    11    4   13 ar   
    12    4    5 ar   
    13    5    6 2    
    14    5    7 ar   
    15    7   11 ar   
    16    7    8 1    
    17    8   33 1    
    18    8    9 2    
    19    9   10 1    
    20    9   31 1    
    21   10   11 1    
    22   11   12 ar   
    23   12   13 ar   
    24   13   14 1    
    25   14   15 1    
    26   15   16 1    
    27   15   41 1    
    28   15   42 1    
    29   16   23 ar   
    30   16   17 ar   
    31   17   18 ar   
    32   17   43 1    
    33   18   19 2    
    34   18   20 ar   
    35   20   21 1    
    36   20   22 ar   
    37   22   26 1    
    38   22   23 ar   
    39   23   24 1    
    40   24   25 2    
    41   24   30 1    
    42   25   26 1    
    43   25   27 1    
    44   27   28 2    
    45   27   29 1    
    46   30   44 1    
    47   30   45 1    
    48   30   46 1    
    49   31   32 1    
    50   31   47 1    
    51   31   48 1    
    52   32   33 1    
    53   32   49 1    
    54   32   50 1    
    55   33   51 1    
    56   33   52 1    
@<TRIPOS>SUBSTRUCTURE
     1 UNK         1 GROUP             0       ****    0 ROOT    
