ZINC39637524_1277
                    3D
 Schrodinger Suite 2024-2.
 70 74  0  0  1  0            999 V2000
   -0.1566   43.8410   16.5684 C   0  0  0  0  0  0
   -0.8407   44.6498   17.6911 C   0  0  1  0  0  0
   -1.6063   45.2718   17.2228 H   0  0  0  0  0  0
   -1.5432   43.7076   18.6982 C   0  0  0  0  0  0
   -2.3412   44.4865   19.7604 C   0  0  0  0  0  0
   -1.4824   45.5497   20.4814 C   0  0  0  0  0  0
   -0.7091   46.4588   19.4843 C   0  0  2  0  0  0
   -1.4700   46.9659   18.8823 H   0  0  0  0  0  0
    0.1205   45.5884   18.4838 C   0  0  2  0  0  0
    0.7370   44.9234   19.0931 H   0  0  0  0  0  0
    1.0994   46.3995   17.5975 C   0  0  0  0  0  0
    0.0392   47.5741   20.0817 N   0  0  0  0  0  0
   -0.4702   48.5983   20.7919 C   0  0  0  0  0  0
   -1.6565   48.6540   21.1155 O   0  0  0  0  0  0
    0.5373   49.6864   21.2662 C   0  0  2  0  0  0
    1.5434   49.2759   21.2004 H   0  0  0  0  0  0
    0.2237   50.2029   22.6938 C   0  0  0  0  0  0
   -0.6666   51.3518   22.4721 N   0  0  0  0  0  0
   -0.7876   51.6886   21.0512 C   0  0  0  0  0  0
    0.4146   50.9793   20.3941 C   0  0  0  0  0  0
    0.2351   50.8482   18.8531 C   0  0  0  0  0  0
    1.4486   50.1563   18.1982 C   0  0  0  0  0  0
    2.7044   51.0060   18.4794 N   0  3  0  0  0  0
    2.9395   51.3244   19.9709 C   0  0  0  0  0  0
    1.6447   51.9312   20.5461 C   0  0  0  0  0  0
   -1.3116   52.0576   23.4320 C   0  0  0  0  0  0
   -2.1759   52.8966   23.1722 O   0  0  0  0  0  0
   -0.9071   51.8544   24.8669 C   0  0  0  0  0  0
   -1.8147   51.3352   25.7920 C   0  0  0  0  0  0
   -1.4608   51.2967   27.1384 C   0  0  0  0  0  0
   -0.2086   51.8135   27.5463 C   0  0  0  0  0  0
    0.2066   51.8278   28.8989 C   0  0  0  0  0  0
    1.4427   52.3685   29.2446 C   0  0  0  0  0  0
    2.2839   52.8970   28.2685 C   0  0  0  0  0  0
    1.9043   52.8965   26.9273 C   0  0  0  0  0  0
    0.6566   52.3471   26.5428 C   0  0  0  0  0  0
    0.3057   52.3574   25.2255 N   0  0  0  0  0  0
    0.6928   43.2697   16.9447 H   0  0  0  0  0  0
   -0.8516   43.1368   16.1093 H   0  0  0  0  0  0
    0.2013   44.4869   15.7668 H   0  0  0  0  0  0
   -2.2166   43.0359   18.1631 H   0  0  0  0  0  0
   -0.8108   43.0495   19.1671 H   0  0  0  0  0  0
   -3.1895   44.9782   19.2811 H   0  0  0  0  0  0
   -2.7689   43.7964   20.4875 H   0  0  0  0  0  0
   -2.1331   46.1425   21.1250 H   0  0  0  0  0  0
   -0.7798   45.0467   21.1439 H   0  0  0  0  0  0
    0.5690   47.1237   16.9773 H   0  0  0  0  0  0
    1.6846   45.7586   16.9385 H   0  0  0  0  0  0
    1.8289   46.9371   18.1987 H   0  0  0  0  0  0
    1.0247   47.5923   19.8696 H   0  0  0  0  0  0
   -0.2030   49.4183   23.3216 H   0  0  0  0  0  0
    1.1536   50.5286   23.1620 H   0  0  0  0  0  0
   -0.8004   52.7541   20.8269 H   0  0  0  0  0  0
   -1.7132   51.2618   20.6613 H   0  0  0  0  0  0
   -0.6633   50.2736   18.6214 H   0  0  0  0  0  0
    0.0609   51.8240   18.3965 H   0  0  0  0  0  0
    1.6668   49.1719   18.6029 H   0  0  0  0  0  0
    1.3685   50.0853   17.1119 H   0  0  0  0  0  0
    3.5428   50.5453   18.1073 H   0  0  0  0  0  0
    3.2510   50.3942   20.4443 H   0  0  0  0  0  0
    3.7775   52.0236   19.9975 H   0  0  0  0  0  0
    1.4485   52.8967   20.0789 H   0  0  0  0  0  0
    1.8214   52.1742   21.5949 H   0  0  0  0  0  0
   -2.7825   50.9682   25.4787 H   0  0  0  0  0  0
   -2.1318   50.8737   27.8737 H   0  0  0  0  0  0
   -0.4451   51.4166   29.6583 H   0  0  0  0  0  0
    1.7494   52.3781   30.2806 H   0  0  0  0  0  0
    3.2397   53.3127   28.5525 H   0  0  0  0  0  0
    2.5608   53.3069   26.1730 H   0  0  0  0  0  0
    2.6332   51.8739   17.9674 H   0  0  0  0  0  0
  1  2  1  0  0  0
  1 38  1  0  0  0
  1 39  1  0  0  0
  1 40  1  0  0  0
  2  3  1  0  0  0
  2  9  1  0  0  0
  2  4  1  0  0  0
  4  5  1  0  0  0
  4 41  1  0  0  0
  4 42  1  0  0  0
  5  6  1  0  0  0
  5 43  1  0  0  0
  5 44  1  0  0  0
  6  7  1  0  0  0
  6 45  1  0  0  0
  6 46  1  0  0  0
  7  8  1  0  0  0
  7  9  1  0  0  0
  7 12  1  0  0  0
  9 10  1  0  0  0
  9 11  1  0  0  0
 11 47  1  0  0  0
 11 48  1  0  0  0
 11 49  1  0  0  0
 12 13  1  0  0  0
 12 50  1  0  0  0
 13 14  2  0  0  0
 13 15  1  0  0  0
 15 16  1  0  0  0
 15 20  1  0  0  0
 15 17  1  0  0  0
 17 18  1  0  0  0
 17 51  1  0  0  0
 17 52  1  0  0  0
 18 19  1  0  0  0
 18 26  1  0  0  0
 19 20  1  0  0  0
 19 53  1  0  0  0
 19 54  1  0  0  0
 20 25  1  0  0  0
 20 21  1  0  0  0
 21 22  1  0  0  0
 21 55  1  0  0  0
 21 56  1  0  0  0
 22 23  1  0  0  0
 22 57  1  0  0  0
 22 58  1  0  0  0
 23 24  1  0  0  0
 23 59  1  0  0  0
 23 70  1  0  0  0
 24 25  1  0  0  0
 24 60  1  0  0  0
 24 61  1  0  0  0
 25 62  1  0  0  0
 25 63  1  0  0  0
 26 27  2  0  0  0
 26 28  1  0  0  0
 28 37  2  0  0  0
 28 29  1  0  0  0
 29 30  2  0  0  0
 29 64  1  0  0  0
 30 31  1  0  0  0
 30 65  1  0  0  0
 31 36  2  0  0  0
 31 32  1  0  0  0
 32 33  2  0  0  0
 32 66  1  0  0  0
 33 34  1  0  0  0
 33 67  1  0  0  0
 34 35  2  0  0  0
 34 68  1  0  0  0
 35 36  1  0  0  0
 35 69  1  0  0  0
 36 37  1  0  0  0
M  CHG  1  23   1
M  END
> <i_i_glide_confnum>
118

> <i_i_glide_lignum>
1278

> <i_i_glide_posenum>
43

> <i_i_glide_rotatable_bonds>
5

> <i_m_Source_File_Index>
234

> <b_m_subgroup_collapsed>
0

> <r_i_docking_score>
-3.34749

> <r_i_glide_ecoul>
-5.01172

> <r_i_glide_eff_state_penalty>
0

> <r_i_glide_einternal>
7.77212

> <r_i_glide_emodel>
-43.7449

> <r_i_glide_energy>
-36.9633

> <r_i_glide_erotb>
0.495734

> <r_i_glide_esite>
-0.103753

> <r_i_glide_evdw>
-31.9515

> <r_i_glide_gscore>
-3.34749

> <r_i_glide_hbond>
-0.355102

> <r_i_glide_ligand_efficiency>
-0.101439

> <r_i_glide_ligand_efficiency_ln>
-0.744465

> <r_i_glide_ligand_efficiency_sa>
-0.32537

> <r_i_glide_lipo>
-0.657633

> <r_i_glide_metal>
0

> <r_i_glide_rewards>
-0.377403

> <s_i_glide_gridfile>
wee1_glide-grid

> <s_m_Source_File>
wee1_decoys_glide_SP.sdf

> <s_m_Source_Path>
/Users/zhangxujun/Desktop

> <s_m_entry_id>
509

> <s_m_entry_name>
wee1_decoys_glide_SP.234

> <s_m_subgroup_title>
wee1_decoys_glide_SP

> <s_m_subgroupid>
wee1_decoys_glide_SP


$$$$
