ZINC63514519_2172
                    3D
 Schrodinger Suite 2024-2.
 54 57  0  0  1  0            999 V2000
    1.1337   52.4968   30.5837 C   0  0  0  0  0  0
   -0.0938   52.0985   30.0581 C   0  0  0  0  0  0
   -0.2450   51.9483   28.6809 C   0  0  0  0  0  0
    0.8347   52.2058   27.8151 C   0  0  0  0  0  0
    2.0645   52.5922   28.3666 C   0  0  0  0  0  0
    2.2170   52.7335   29.7434 C   0  0  0  0  0  0
    0.7031   52.0967   26.3107 C   0  0  0  0  0  0
    1.5376   52.6380   25.5809 O   0  0  0  0  0  0
   -0.3547   51.3952   25.8376 N   0  0  0  0  0  0
   -0.6909   51.2011   24.5153 C   0  0  0  0  0  0
   -1.9262   51.5482   24.0629 C   0  0  0  0  0  0
   -3.0355   52.1233   24.8463 C   0  0  0  0  0  0
   -3.5203   51.5116   26.0090 C   0  0  0  0  0  0
   -4.6021   52.0761   26.6882 C   0  0  0  0  0  0
   -5.1656   53.2507   26.1852 C   0  0  0  0  0  0
   -4.7068   53.8705   25.0685 N   0  0  0  0  0  0
   -3.6636   53.2983   24.4171 C   0  0  0  0  0  0
    0.2856   50.5844   23.6049 C   0  0  0  0  0  0
    1.1588   49.8197   24.0117 O   0  0  0  0  0  0
    0.1867   50.9010   22.2977 N   0  0  0  0  0  0
    1.0250   50.3603   21.2235 C   0  0  0  0  0  0
    2.4741   50.8987   21.1742 C   0  0  0  0  0  0
    2.5956   52.4419   21.1537 C   0  0  1  0  0  0
    1.8505   52.8936   20.4955 H   0  0  0  0  0  0
    2.5995   53.0527   22.5397 C   0  0  0  0  0  0
    3.7715   53.6655   22.7544 C   0  0  0  0  0  0
    4.3125   54.3359   23.9442 C   0  0  0  0  0  0
    5.5397   54.8961   23.9103 C   0  0  0  0  0  0
    6.2810   54.8529   22.6555 C   0  0  0  0  0  0
    5.7838   54.2345   21.5496 C   0  0  0  0  0  0
    4.5394   53.5970   21.5907 C   0  0  0  0  0  0
    3.9172   52.8992   20.6650 N   0  3  0  0  0  0
    1.2438   52.5986   31.6537 H   0  0  0  0  0  0
   -0.9164   51.8877   30.7280 H   0  0  0  0  0  0
   -1.2110   51.6318   28.3122 H   0  0  0  0  0  0
    2.9189   52.7844   27.7298 H   0  0  0  0  0  0
    3.1745   53.0199   30.1507 H   0  0  0  0  0  0
   -1.0921   51.2353   26.5049 H   0  0  0  0  0  0
   -2.1880   51.3825   23.0289 H   0  0  0  0  0  0
   -3.0860   50.5894   26.3722 H   0  0  0  0  0  0
   -4.9933   51.6105   27.5800 H   0  0  0  0  0  0
   -6.0063   53.7143   26.6805 H   0  0  0  0  0  0
   -3.3223   53.8131   23.5329 H   0  0  0  0  0  0
   -0.5437   51.5373   22.0215 H   0  0  0  0  0  0
    1.0312   49.2680   21.2648 H   0  0  0  0  0  0
    0.5228   50.6341   20.2929 H   0  0  0  0  0  0
    3.0477   50.4830   22.0051 H   0  0  0  0  0  0
    2.9411   50.4895   20.2775 H   0  0  0  0  0  0
    1.7787   52.9491   23.2304 H   0  0  0  0  0  0
    3.7565   54.3695   24.8708 H   0  0  0  0  0  0
    5.9554   55.3823   24.7829 H   0  0  0  0  0  0
    7.2416   55.3468   22.5956 H   0  0  0  0  0  0
    6.3458   54.2613   20.6299 H   0  0  0  0  0  0
    4.2749   52.7008   19.7337 H   0  0  0  0  0  0
  1  6  2  0  0  0
  1  2  1  0  0  0
  1 33  1  0  0  0
  2  3  2  0  0  0
  2 34  1  0  0  0
  3  4  1  0  0  0
  3 35  1  0  0  0
  4  5  2  0  0  0
  4  7  1  0  0  0
  5  6  1  0  0  0
  5 36  1  0  0  0
  6 37  1  0  0  0
  7  8  2  0  0  0
  7  9  1  0  0  0
  9 10  1  0  0  0
  9 38  1  0  0  0
 10 11  2  0  0  0
 10 18  1  0  0  0
 11 12  1  0  0  0
 11 39  1  0  0  0
 12 17  2  0  0  0
 12 13  1  0  0  0
 13 14  2  0  0  0
 13 40  1  0  0  0
 14 15  1  0  0  0
 14 41  1  0  0  0
 15 16  2  0  0  0
 15 42  1  0  0  0
 16 17  1  0  0  0
 17 43  1  0  0  0
 18 19  2  0  0  0
 18 20  1  0  0  0
 20 21  1  0  0  0
 20 44  1  0  0  0
 21 22  1  0  0  0
 21 45  1  0  0  0
 21 46  1  0  0  0
 22 23  1  0  0  0
 22 47  1  0  0  0
 22 48  1  0  0  0
 23 24  1  0  0  0
 23 32  1  0  0  0
 23 25  1  0  0  0
 25 26  2  0  0  0
 25 49  1  0  0  0
 26 31  1  0  0  0
 26 27  1  0  0  0
 27 28  2  0  0  0
 27 50  1  0  0  0
 28 29  1  0  0  0
 28 51  1  0  0  0
 29 30  2  0  0  0
 29 52  1  0  0  0
 30 31  1  0  0  0
 30 53  1  0  0  0
 31 32  2  0  0  0
 32 54  1  0  0  0
M  CHG  1  32   1
M  END
> <i_i_glide_confnum>
131

> <i_i_glide_lignum>
2173

> <i_i_glide_posenum>
90

> <i_i_glide_rotatable_bonds>
9

> <i_m_Source_File_Index>
2650

> <b_m_subgroup_collapsed>
0

> <r_i_docking_score>
-3.84693

> <r_i_glide_ecoul>
0.68073

> <r_i_glide_eff_state_penalty>
0

> <r_i_glide_einternal>
6.09759

> <r_i_glide_emodel>
-45.0443

> <r_i_glide_energy>
-36.73

> <r_i_glide_erotb>
0.698471

> <r_i_glide_esite>
-0.0177265

> <r_i_glide_evdw>
-37.4108

> <r_i_glide_gscore>
-3.84693

> <r_i_glide_hbond>
0

> <r_i_glide_ligand_efficiency>
-0.124094

> <r_i_glide_ligand_efficiency_ln>
-0.8676

> <r_i_glide_ligand_efficiency_sa>
-0.389828

> <r_i_glide_lipo>
-1.96388

> <r_i_glide_metal>
0

> <r_i_glide_rewards>
-0.795362

> <s_i_glide_gridfile>
wee1_glide-grid

> <s_m_Source_File>
wee1_decoys_glide_SP.sdf

> <s_m_Source_Path>
/Users/zhangxujun/Desktop

> <s_m_entry_id>
2925

> <s_m_entry_name>
wee1_decoys_glide_SP.2650

> <s_m_subgroup_title>
wee1_decoys_glide_SP

> <s_m_subgroupid>
wee1_decoys_glide_SP


$$$$
