ZINC09252896_717
                    3D
 Schrodinger Suite 2024-2.
 58 62  0  0  1  0            999 V2000
   -1.5308   50.2528   23.6556 C   0  0  0  0  0  0
   -1.3516   49.2936   22.6623 C   0  0  0  0  0  0
   -1.4448   47.9421   22.9812 C   0  0  0  0  0  0
   -1.6983   47.5391   24.2889 C   0  0  0  0  0  0
   -1.8819   48.4957   25.2820 C   0  0  0  0  0  0
   -1.8093   49.8563   24.9687 C   0  0  0  0  0  0
   -2.0362   50.9125   26.0516 C   0  0  0  0  0  0
   -3.4923   50.9634   26.5330 C   0  0  0  0  0  0
   -4.3573   51.9375   26.0173 C   0  0  0  0  0  0
   -5.6680   52.0256   26.4827 C   0  0  0  0  0  0
   -6.1114   51.1511   27.4730 C   0  0  0  0  0  0
   -5.2578   50.1834   27.9953 C   0  0  0  0  0  0
   -3.9524   50.0865   27.5238 C   0  0  0  0  0  0
   -7.3793   51.2465   27.9326 F   0  0  0  0  0  0
   -1.2411   52.0675   28.1810 C   0  0  0  0  0  0
   -0.1687   52.1943   29.2764 C   0  0  0  0  0  0
    1.0914   52.4705   28.5776 N   0  0  0  0  0  0
    1.5044   51.3684   27.7027 C   0  0  0  0  0  0
    0.4538   51.1192   26.5950 C   0  0  0  0  0  0
    1.9511   53.4352   29.0122 C   0  0  0  0  0  0
    1.7880   54.0299   30.0808 O   0  0  0  0  0  0
    3.1527   53.7972   28.1593 C   0  0  0  0  0  0
    4.3668   54.1294   28.7767 C   0  0  0  0  0  0
    5.4728   54.4970   28.0133 C   0  0  0  0  0  0
    5.3808   54.5535   26.6240 C   0  0  0  0  0  0
    4.1885   54.2028   25.9870 C   0  0  0  0  0  0
    3.0772   53.8511   26.7565 C   0  0  0  0  0  0
    4.0771   54.1712   24.5946 N   0  0  0  0  0  0
    5.0298   54.1547   23.6415 C   0  0  0  0  0  0
    4.7351   53.9638   22.4665 O   0  0  0  0  0  0
    6.4868   54.2829   24.1363 C   0  0  0  0  0  0
    6.7043   55.2309   25.6810 S   0  0  0  0  0  0
   -1.2957   47.0127   22.0106 F   0  0  0  0  0  0
   -1.4680   51.2998   23.3959 H   0  0  0  0  0  0
   -1.1480   49.5952   21.6467 H   0  0  0  0  0  0
   -1.7581   46.4909   24.5352 H   0  0  0  0  0  0
   -2.0926   48.1706   26.2899 H   0  0  0  0  0  0
   -1.8386   51.8853   25.5948 H   0  0  0  0  0  0
   -4.0201   52.6256   25.2548 H   0  0  0  0  0  0
   -6.3395   52.7722   26.0832 H   0  0  0  0  0  0
   -5.6048   49.5117   28.7681 H   0  0  0  0  0  0
   -3.2960   49.3363   27.9413 H   0  0  0  0  0  0
   -1.2957   52.9855   27.5947 H   0  0  0  0  0  0
   -2.1954   51.8379   28.6543 H   0  0  0  0  0  0
   -0.0990   51.2752   29.8533 H   0  0  0  0  0  0
   -0.4350   52.9808   29.9842 H   0  0  0  0  0  0
    2.4914   51.5234   27.2827 H   0  0  0  0  0  0
    1.5993   50.4967   28.3343 H   0  0  0  0  0  0
    0.4271   51.9374   25.8738 H   0  0  0  0  0  0
    0.6868   50.1908   26.0702 H   0  0  0  0  0  0
    4.4586   54.1174   29.8535 H   0  0  0  0  0  0
    6.3885   54.7888   28.5055 H   0  0  0  0  0  0
    2.1475   53.6207   26.2561 H   0  0  0  0  0  0
    3.1613   54.0227   24.2009 H   0  0  0  0  0  0
    6.9140   53.2969   24.2816 H   0  0  0  0  0  0
    7.0761   54.7756   23.3635 H   0  0  0  0  0  0
   -0.9627   50.9139   27.1858 N   0  3  0  0  0  0
   -0.9992   50.0219   27.6829 H   0  0  0  0  0  0
  1  6  2  0  0  0
  1  2  1  0  0  0
  1 34  1  0  0  0
  2  3  2  0  0  0
  2 35  1  0  0  0
  3  4  1  0  0  0
  3 33  1  0  0  0
  4  5  2  0  0  0
  4 36  1  0  0  0
  5  6  1  0  0  0
  5 37  1  0  0  0
  6  7  1  0  0  0
  7  8  1  0  0  0
  7 38  1  0  0  0
  7 57  1  0  0  0
  8 13  2  0  0  0
  8  9  1  0  0  0
  9 10  2  0  0  0
  9 39  1  0  0  0
 10 11  1  0  0  0
 10 40  1  0  0  0
 11 12  2  0  0  0
 11 14  1  0  0  0
 12 13  1  0  0  0
 12 41  1  0  0  0
 13 42  1  0  0  0
 15 16  1  0  0  0
 15 43  1  0  0  0
 15 44  1  0  0  0
 15 57  1  0  0  0
 16 17  1  0  0  0
 16 45  1  0  0  0
 16 46  1  0  0  0
 17 18  1  0  0  0
 17 20  1  0  0  0
 18 19  1  0  0  0
 18 47  1  0  0  0
 18 48  1  0  0  0
 19 49  1  0  0  0
 19 50  1  0  0  0
 19 57  1  0  0  0
 20 21  2  0  0  0
 20 22  1  0  0  0
 22 27  2  0  0  0
 22 23  1  0  0  0
 23 24  2  0  0  0
 23 51  1  0  0  0
 24 25  1  0  0  0
 24 52  1  0  0  0
 25 32  1  0  0  0
 25 26  2  0  0  0
 26 27  1  0  0  0
 26 28  1  0  0  0
 27 53  1  0  0  0
 28 29  1  0  0  0
 28 54  1  0  0  0
 29 30  2  0  0  0
 29 31  1  0  0  0
 31 32  1  0  0  0
 31 55  1  0  0  0
 31 56  1  0  0  0
 57 58  1  0  0  0
M  CHG  1  57   1
M  END
> <i_i_glide_confnum>
3

> <i_i_glide_lignum>
718

> <i_i_glide_posenum>
201

> <i_i_glide_rotatable_bonds>
5

> <i_m_Source_File_Index>
2570

> <b_m_subgroup_collapsed>
0

> <r_i_docking_score>
-5.87207

> <r_i_glide_ecoul>
-4.75645

> <r_i_glide_eff_state_penalty>
0

> <r_i_glide_einternal>
3.23096

> <r_i_glide_emodel>
-61.8073

> <r_i_glide_energy>
-45.2223

> <r_i_glide_erotb>
0.439094

> <r_i_glide_esite>
-0.0943319

> <r_i_glide_evdw>
-40.4658

> <r_i_glide_gscore>
-5.87207

> <r_i_glide_hbond>
-0.381174

> <r_i_glide_ligand_efficiency>
-0.172708

> <r_i_glide_ligand_efficiency_ln>
-1.2973

> <r_i_glide_ligand_efficiency_sa>
-0.559507

> <r_i_glide_lipo>
-2.21225

> <r_i_glide_metal>
0

> <r_i_glide_rewards>
-0.886647

> <s_i_glide_gridfile>
wee1_glide-grid

> <s_m_Source_File>
wee1_decoys_glide_SP.sdf

> <s_m_Source_Path>
/Users/zhangxujun/Desktop

> <s_m_entry_id>
2845

> <s_m_entry_name>
wee1_decoys_glide_SP.2570

> <s_m_subgroup_title>
wee1_decoys_glide_SP

> <s_m_subgroupid>
wee1_decoys_glide_SP


$$$$
