@<TRIPOS>MOLECULE
ZINC20784039_1223
61   65    1
SMALL
USER_CHARGES


@<TRIPOS>ATOM
      1 C1          6.1577   54.1335   22.8821 C.ar      1 UNK         0.0000 
      2 C2          6.4325   54.2579   24.2408 C.ar      1 UNK         0.0000 
      3 C3          5.3876   54.3616   25.1643 C.ar      1 UNK         0.0000 
      4 C4          4.0660   54.3733   24.7059 C.ar      1 UNK         0.0000 
      5 C5          3.7955   54.2602   23.3442 C.ar      1 UNK         0.0000 
      6 C6          4.8383   54.0968   22.4244 C.ar      1 UNK         0.0000 
      7 C7          4.5547   53.9686   20.9246 C.3       1 UNK         0.0000 
      8 N8          3.9718   52.6102   20.4634 N.4       1 UNK         0.0000 
      9 C9          2.5126   52.4030   20.9080 C.3       1 UNK         0.0000 
     10 C10         1.8490   51.0769   20.5394 C.ar      1 UNK         0.0000 
     11 C11         1.9659   50.5780   19.2371 C.ar      1 UNK         0.0000 
     12 C12         1.4024   49.3207   18.9070 C.ar      1 UNK         0.0000 
     13 C13         1.4639   48.7688   17.5964 C.ar      1 UNK         0.0000 
     14 C14         0.9368   47.4998   17.3989 C.ar      1 UNK         0.0000 
     15 C15         0.3349   46.7954   18.3994 C.ar      1 UNK         0.0000 
     16 C16         0.1979   47.3013   19.6828 C.ar      1 UNK         0.0000 
     17 C17         0.7499   48.5863   19.9512 C.ar      1 UNK         0.0000 
     18 N18         0.6284   49.0908   21.2046 N.ar      1 UNK         0.0000 
     19 C19         1.1349   50.3188   21.4938 C.ar      1 UNK         0.0000 
     20 N20         0.8652   50.7831   22.7841 N.pl3     1 UNK         0.0000 
     21 C21         0.2241   52.0831   23.0647 C.3       1 UNK         0.0000 
     22 C22        -1.2968   51.9213   23.2979 C.3       1 UNK         0.0000 
     23 C23        -1.5945   50.9091   24.4211 C.3       1 UNK         0.0000 
     24 C24        -0.8351   49.5880   24.1745 C.3       1 UNK         0.0000 
     25 H25        -1.2334   49.2057   23.2322 H         1 UNK         0.0000 
     26 C26         0.6653   49.9103   23.9533 C.3       1 UNK         0.0000 
     27 C27        -1.0581   48.5315   25.2703 C.3       1 UNK         0.0000 
     28 O28        -0.4960   47.2966   24.8817 O.3       1 UNK         0.0000 
     29 O29        -0.1114   45.6081   17.9090 O.3       1 UNK         0.0000 
     30 C30         0.4446   45.5029   16.6261 C.3       1 UNK         0.0000 
     31 O31         0.8793   46.7800   16.2480 O.3       1 UNK         0.0000 
     32 C32         5.7018   54.4789   26.6559 C.3       1 UNK         0.0000 
     33 F33         4.6497   54.8965   27.3613 F         1 UNK         0.0000 
     34 F34         6.0741   53.2971   27.1348 F         1 UNK         0.0000 
     35 F35         6.7044   55.3317   26.8463 F         1 UNK         0.0000 
     36 H36         6.9836   54.0969   22.1907 H         1 UNK         0.0000 
     37 H37         7.4627   54.2753   24.5685 H         1 UNK         0.0000 
     38 H38         3.2424   54.4781   25.3980 H         1 UNK         0.0000 
     39 H39         2.7684   54.3195   23.0160 H         1 UNK         0.0000 
     40 H40         3.8459   54.7267   20.5855 H         1 UNK         0.0000 
     41 H41         5.4663   54.0754   20.3335 H         1 UNK         0.0000 
     42 H42         4.0133   52.5506   19.4534 H         1 UNK         0.0000 
     43 H43         2.6129   52.4545   21.9853 H         1 UNK         0.0000 
     44 H44         1.9566   53.2736   20.5516 H         1 UNK         0.0000 
     45 H45         2.4950   51.1271   18.4696 H         1 UNK         0.0000 
     46 H46         1.9151   49.3252   16.7897 H         1 UNK         0.0000 
     47 H47        -0.3036   46.7517   20.4658 H         1 UNK         0.0000 
     48 H48         0.6907   52.5149   23.9518 H         1 UNK         0.0000 
     49 H49         0.3852   52.7979   22.2610 H         1 UNK         0.0000 
     50 H50        -1.7304   52.8890   23.5528 H         1 UNK         0.0000 
     51 H51        -1.7818   51.6231   22.3676 H         1 UNK         0.0000 
     52 H52        -1.2924   51.3259   25.3839 H         1 UNK         0.0000 
     53 H53        -2.6656   50.7253   24.5146 H         1 UNK         0.0000 
     54 H54         1.2290   48.9887   23.7982 H         1 UNK         0.0000 
     55 H55         1.1041   50.3413   24.8545 H         1 UNK         0.0000 
     56 H56        -0.6025   48.8551   26.2072 H         1 UNK         0.0000 
     57 H57        -2.1209   48.3813   25.4647 H         1 UNK         0.0000 
     58 H58        -0.0639   46.9158   25.6653 H         1 UNK         0.0000 
     59 H59         1.3024   44.8291   16.6560 H         1 UNK         0.0000 
     60 H60        -0.2867   45.1177   15.9152 H         1 UNK         0.0000 
     61 H61         4.5406   51.8546   20.8192 H         1 UNK         0.0000 
@<TRIPOS>BOND
     1    1    6 ar   
     2    1    2 ar   
     3    1   36 1    
     4    2    3 ar   
     5    2   37 1    
     6    3    4 ar   
     7    3   32 1    
     8    4    5 ar   
     9    4   38 1    
    10    5    6 ar   
    11    5   39 1    
    12    6    7 1    
    13    7    8 1    
    14    7   40 1    
    15    7   41 1    
    16    8    9 1    
    17    8   42 1    
    18    8   61 1    
    19    9   10 1    
    20    9   43 1    
    21    9   44 1    
    22   10   19 ar   
    23   10   11 ar   
    24   11   12 ar   
    25   11   45 1    
    26   12   17 ar   
    27   12   13 ar   
    28   13   14 ar   
    29   13   46 1    
    30   14   31 1    
    31   14   15 ar   
    32   15   16 ar   
    33   15   29 1    
    34   16   17 ar   
    35   16   47 1    
    36   17   18 ar   
    37   18   19 ar   
    38   19   20 1    
    39   20   26 1    
    40   20   21 1    
    41   21   22 1    
    42   21   48 1    
    43   21   49 1    
    44   22   23 1    
    45   22   50 1    
    46   22   51 1    
    47   23   24 1    
    48   23   52 1    
    49   23   53 1    
    50   24   25 1    
    51   24   26 1    
    52   24   27 1    
    53   26   54 1    
    54   26   55 1    
    55   27   28 1    
    56   27   56 1    
    57   27   57 1    
    58   28   58 1    
    59   29   30 1    
    60   30   31 1    
    61   30   59 1    
    62   30   60 1    
    63   32   33 1    
    64   32   34 1    
    65   32   35 1    
@<TRIPOS>SUBSTRUCTURE
     1 UNK         1 GROUP             0       ****    0 ROOT    
