@<TRIPOS>MOLECULE
ZINC04199842_5623
60   62    1
SMALL
USER_CHARGES


@<TRIPOS>ATOM
      1 C1         -1.1720   53.0824   23.9331 C.3       1 UNK         0.0000 
      2 C2         -1.1880   52.4954   25.3315 C.2       1 UNK         0.0000 
      3 C3         -0.1897   52.4298   26.3304 C.2       1 UNK         0.0000 
      4 C4         -0.6868   51.8934   27.5716 C.2       1 UNK         0.0000 
      5 C5         -2.0388   51.4951   27.4614 C.2       1 UNK         0.0000 
      6 S6         -2.6727   51.8155   25.8792 S.3       1 UNK         0.0000 
      7 N7         -2.8213   50.8997   28.4671 N.am      1 UNK         0.0000 
      8 C8         -4.0888   50.4207   28.3959 C.2       1 UNK         0.0000 
      9 O9         -4.7789   50.4260   27.3752 O.2       1 UNK         0.0000 
     10 C10        -4.6594   49.7858   29.6947 C.3       1 UNK         0.0000 
     11 H11        -3.7695   49.3910   30.1936 H         1 UNK         0.0000 
     12 C12        -5.5730   48.5525   29.4221 C.3       1 UNK         0.0000 
     13 C13        -6.3560   48.1514   30.6697 C.2       1 UNK         0.0000 
     14 C14        -6.3946   48.8587   31.8165 C.2       1 UNK         0.0000 
     15 C15        -5.6949   50.1971   32.0319 C.3       1 UNK         0.0000 
     16 C16        -5.2635   50.8432   30.6844 C.3       1 UNK         0.0000 
     17 H17        -4.4959   51.5749   30.9121 H         1 UNK         0.0000 
     18 C18        -6.4330   51.6966   30.1044 C.2       1 UNK         0.0000 
     19 O19        -7.2956   51.1447   29.3883 O.co2     1 UNK         0.0000 
     20 C20         0.1053   51.7652   28.8031 C.2       1 UNK         0.0000 
     21 O21         1.2453   51.2967   28.8492 O.2       1 UNK         0.0000 
     22 O22        -0.5222   52.3812   29.8245 O.3       1 UNK         0.0000 
     23 C23         0.1335   52.6167   31.0626 C.3       1 UNK         0.0000 
     24 C24         1.2168   52.9618   26.0804 C.ar      1 UNK         0.0000 
     25 C25         1.8143   52.8492   24.8191 C.ar      1 UNK         0.0000 
     26 C26         3.1046   53.3162   24.5856 C.ar      1 UNK         0.0000 
     27 C27         3.8754   53.8526   25.6286 C.ar      1 UNK         0.0000 
     28 C28         3.2570   54.0297   26.8718 C.ar      1 UNK         0.0000 
     29 C29         1.9452   53.6189   27.0824 C.ar      1 UNK         0.0000 
     30 C30         5.3935   54.1638   25.4768 C.3       1 UNK         0.0000 
     31 C31         6.2084   53.3046   26.4857 C.3       1 UNK         0.0000 
     32 C32         5.6895   55.6129   25.8558 C.3       1 UNK         0.0000 
     33 C33         5.9269   53.9536   24.0327 C.3       1 UNK         0.0000 
     34 H34        -0.9631   52.3234   23.1783 H         1 UNK         0.0000 
     35 H35        -2.1308   53.5331   23.6741 H         1 UNK         0.0000 
     36 H36        -0.4341   53.8756   23.8207 H         1 UNK         0.0000 
     37 H37        -2.3338   50.7178   29.3335 H         1 UNK         0.0000 
     38 H38        -6.3337   48.8009   28.6808 H         1 UNK         0.0000 
     39 H39        -5.0022   47.7263   28.9965 H         1 UNK         0.0000 
     40 H40        -6.9133   47.2261   30.6427 H         1 UNK         0.0000 
     41 H41        -6.9706   48.4483   32.6326 H         1 UNK         0.0000 
     42 H42        -4.8166   50.0256   32.6552 H         1 UNK         0.0000 
     43 H43        -6.3340   50.8669   32.6105 H         1 UNK         0.0000 
     44 H44        -0.4850   53.2657   31.6827 H         1 UNK         0.0000 
     45 H45         0.3041   51.6962   31.6156 H         1 UNK         0.0000 
     46 H46         1.0923   53.1151   30.9140 H         1 UNK         0.0000 
     47 H47         1.3041   52.3521   24.0089 H         1 UNK         0.0000 
     48 H48         3.5174   53.1729   23.5995 H         1 UNK         0.0000 
     49 H49         3.7996   54.4590   27.7000 H         1 UNK         0.0000 
     50 H50         1.5154   53.8092   28.0521 H         1 UNK         0.0000 
     51 H51         7.1139   52.8969   26.0449 H         1 UNK         0.0000 
     52 H52         5.6067   52.4964   26.8816 H         1 UNK         0.0000 
     53 H53         6.5364   53.8492   27.3722 H         1 UNK         0.0000 
     54 H54         5.1045   56.3269   25.2850 H         1 UNK         0.0000 
     55 H55         5.4605   55.6969   26.9158 H         1 UNK         0.0000 
     56 H56         6.7416   55.8716   25.7285 H         1 UNK         0.0000 
     57 H57         5.4193   54.6062   23.3211 H         1 UNK         0.0000 
     58 H58         6.9927   54.1776   23.9626 H         1 UNK         0.0000 
     59 H59         5.7996   52.9302   23.6824 H         1 UNK         0.0000 
     60 O60        -6.4956   52.8912   30.4818 O.co2     1 UNK         0.0000 
@<TRIPOS>BOND
     1    1    2 1    
     2    1   34 1    
     3    1   35 1    
     4    1   36 1    
     5    2    6 1    
     6    2    3 2    
     7    3    4 1    
     8    3   24 1    
     9    4    5 2    
    10    4   20 1    
    11    5    6 1    
    12    5    7 am   BACKBONE|DICT|INTERRES
    13    7    8 am   BACKBONE|DICT|INTERRES
    14    7   37 1    
    15    8    9 2    
    16    8   10 1    
    17   10   11 1    
    18   10   16 1    
    19   10   12 1    
    20   12   13 1    
    21   12   38 1    
    22   12   39 1    
    23   13   14 2    
    24   13   40 1    
    25   14   15 1    
    26   14   41 1    
    27   15   16 1    
    28   15   42 1    
    29   15   43 1    
    30   16   17 1    
    31   16   18 1    
    32   18   19 2    
    33   18   60 1    
    34   20   21 2    
    35   20   22 1    
    36   22   23 1    
    37   23   44 1    
    38   23   45 1    
    39   23   46 1    
    40   24   29 ar   
    41   24   25 ar   
    42   25   26 ar   
    43   25   47 1    
    44   26   27 ar   
    45   26   48 1    
    46   27   28 ar   
    47   27   30 1    
    48   28   29 ar   
    49   28   49 1    
    50   29   50 1    
    51   30   31 1    
    52   30   32 1    
    53   30   33 1    
    54   31   51 1    
    55   31   52 1    
    56   31   53 1    
    57   32   54 1    
    58   32   55 1    
    59   32   56 1    
    60   33   57 1    
    61   33   58 1    
    62   33   59 1    
@<TRIPOS>SUBSTRUCTURE
     1 UNK         1 GROUP             0       ****    0 ROOT    
