@<TRIPOS>MOLECULE
ZINC35729475_3388
58   62    1
SMALL
USER_CHARGES


@<TRIPOS>ATOM
      1 C1          0.5180   46.6334   18.9205 C.3       1 UNK         0.0000 
      2 O2          0.6605   47.4715   20.0633 O.3       1 UNK         0.0000 
      3 C3          1.2734   48.6989   19.9184 C.ar      1 UNK         0.0000 
      4 C4          1.7022   49.2310   18.6963 C.ar      1 UNK         0.0000 
      5 C5          2.3023   50.4838   18.6451 C.ar      1 UNK         0.0000 
      6 C6          2.4977   51.2239   19.8110 C.ar      1 UNK         0.0000 
      7 C7          2.0673   50.7184   21.0522 C.ar      1 UNK         0.0000 
      8 C8          1.4584   49.4489   21.0797 C.ar      1 UNK         0.0000 
      9 O9          2.2404   51.4999   22.1840 O.3       1 UNK         0.0000 
     10 C10         1.8521   50.9802   23.4518 C.3       1 UNK         0.0000 
     11 N11         3.1078   52.4756   19.6609 N.am      1 UNK         0.0000 
     12 C12         4.2929   52.8361   20.1943 C.2       1 UNK         0.0000 
     13 O13         4.9268   52.1102   20.9670 O.2       1 UNK         0.0000 
     14 N14         4.7239   54.0775   19.8365 N.am      1 UNK         0.0000 
     15 C15         4.2201   54.8679   18.7004 C.3       1 UNK         0.0000 
     16 C16         5.3590   55.7925   18.3036 C.3       1 UNK         0.0000 
     17 C17         6.0413   56.0565   19.6296 C.3       1 UNK         0.0000 
     18 C18         5.9471   54.7150   20.3747 C.3       1 UNK         0.0000 
     19 H19         6.7710   54.0970   20.0280 H         1 UNK         0.0000 
     20 C20         6.0811   54.8991   21.9058 C.2       1 UNK         0.0000 
     21 O21         7.1051   55.4408   22.3135 O.2       1 UNK         0.0000 
     22 N22         5.0661   54.4928   22.6933 N.am      1 UNK         0.0000 
     23 C23         5.0483   54.4736   24.0796 C.2       1 UNK         0.0000 
     24 N24         6.0555   54.6450   24.9107 N.2       1 UNK         0.0000 
     25 N25         5.6886   54.4155   26.2330 N.2       1 UNK         0.0000 
     26 C26         4.4192   54.0987   26.3664 C.2       1 UNK         0.0000 
     27 S27         3.5457   54.0973   24.8574 S.3       1 UNK         0.0000 
     28 C28         3.7673   53.6730   27.6441 C.ar      1 UNK         0.0000 
     29 C29         2.4080   53.9595   27.8945 C.ar      1 UNK         0.0000 
     30 C30         1.7780   53.5315   29.0716 C.ar      1 UNK         0.0000 
     31 C31         2.5355   52.8002   29.9761 C.ar      1 UNK         0.0000 
     32 C32         3.8457   52.4986   29.7373 C.ar      1 UNK         0.0000 
     33 C33         4.5001   52.9284   28.5872 C.ar      1 UNK         0.0000 
     34 O34         4.3042   51.6976   30.7372 O.3       1 UNK         0.0000 
     35 C35         3.3423   51.7961   31.7454 C.3       1 UNK         0.0000 
     36 O36         2.1533   52.2407   31.1528 O.3       1 UNK         0.0000 
     37 H37         0.0460   45.6961   19.2181 H         1 UNK         0.0000 
     38 H38        -0.1152   47.0967   18.1610 H         1 UNK         0.0000 
     39 H39         1.4877   46.3901   18.4814 H         1 UNK         0.0000 
     40 H40         1.6026   48.6819   17.7727 H         1 UNK         0.0000 
     41 H41         2.6566   50.8586   17.6934 H         1 UNK         0.0000 
     42 H42         1.1151   49.0216   22.0076 H         1 UNK         0.0000 
     43 H43         2.0949   51.6964   24.2351 H         1 UNK         0.0000 
     44 H44         0.7782   50.8052   23.4977 H         1 UNK         0.0000 
     45 H45         2.3730   50.0497   23.6791 H         1 UNK         0.0000 
     46 H46         2.6805   53.1082   19.0007 H         1 UNK         0.0000 
     47 H47         3.3748   55.4656   19.0212 H         1 UNK         0.0000 
     48 H48         3.9033   54.2534   17.8554 H         1 UNK         0.0000 
     49 H49         5.0267   56.6992   17.7961 H         1 UNK         0.0000 
     50 H50         6.0436   55.2631   17.6399 H         1 UNK         0.0000 
     51 H51         5.5058   56.8388   20.1724 H         1 UNK         0.0000 
     52 H52         7.0697   56.3938   19.4997 H         1 UNK         0.0000 
     53 H53         4.2616   54.0954   22.2343 H         1 UNK         0.0000 
     54 H54         1.8268   54.4991   27.1645 H         1 UNK         0.0000 
     55 H55         0.7344   53.7465   29.2466 H         1 UNK         0.0000 
     56 H56         5.5313   52.6621   28.4026 H         1 UNK         0.0000 
     57 H57         3.1987   50.8945   32.3287 H         1 UNK         0.0000 
     58 H58         3.7050   52.4972   32.4812 H         1 UNK         0.0000 
@<TRIPOS>BOND
     1    1    2 1    
     2    1   37 1    
     3    1   38 1    
     4    1   39 1    
     5    2    3 1    
     6    3    8 ar   
     7    3    4 ar   
     8    4    5 ar   
     9    4   40 1    
    10    5    6 ar   
    11    5   41 1    
    12    6    7 ar   
    13    6   11 1    
    14    7    8 ar   
    15    7    9 1    
    16    8   42 1    
    17    9   10 1    
    18   10   43 1    
    19   10   44 1    
    20   10   45 1    
    21   11   12 am   BACKBONE|DICT|INTERRES
    22   11   46 1    
    23   12   13 2    
    24   12   14 am   BACKBONE|DICT|INTERRES
    25   14   18 1    
    26   14   15 1    
    27   15   16 1    
    28   15   47 1    
    29   15   48 1    
    30   16   17 1    
    31   16   49 1    
    32   16   50 1    
    33   17   18 1    
    34   17   51 1    
    35   17   52 1    
    36   18   19 1    
    37   18   20 1    
    38   20   21 2    
    39   20   22 am   BACKBONE|DICT|INTERRES
    40   22   23 am   BACKBONE|DICT|INTERRES
    41   22   53 1    
    42   23   27 1    
    43   23   24 2    
    44   24   25 1    
    45   25   26 2    
    46   26   27 1    
    47   26   28 1    
    48   28   33 ar   
    49   28   29 ar   
    50   29   30 ar   
    51   29   54 1    
    52   30   31 ar   
    53   30   55 1    
    54   31   36 1    
    55   31   32 ar   
    56   32   33 ar   
    57   32   34 1    
    58   33   56 1    
    59   34   35 1    
    60   35   36 1    
    61   35   57 1    
    62   35   58 1    
@<TRIPOS>SUBSTRUCTURE
     1 UNK         1 GROUP             0       ****    0 ROOT    
