ZINC63480056_5569
                    3D
 Schrodinger Suite 2024-2.
 63 69  0  0  1  0            999 V2000
    7.7222   55.8060   18.6429 C   0  0  0  0  0  0
    7.6295   55.4807   20.1340 C   0  0  0  0  0  0
    8.6118   55.6988   20.8408 O   0  0  0  0  0  0
    6.3503   54.9079   20.6662 C   0  0  0  0  0  0
    6.2372   54.6536   22.0416 C   0  0  0  0  0  0
    5.0725   54.0962   22.5570 C   0  0  0  0  0  0
    3.9792   53.8205   21.7215 C   0  0  0  0  0  0
    4.1172   54.0366   20.3448 C   0  0  0  0  0  0
    5.2873   54.5711   19.8196 C   0  0  0  0  0  0
    2.7260   53.4068   22.2719 N   0  0  0  0  0  0
    2.1995   53.9684   23.3940 C   0  0  0  0  0  0
    2.7004   54.8615   24.0821 O   0  0  0  0  0  0
    0.8177   53.3809   23.6639 C   0  0  2  0  0  0
    0.1064   54.2082   23.6759 H   0  0  0  0  0  0
    0.6654   52.5612   24.9663 C   0  0  1  0  0  0
   -0.3698   52.6933   25.2874 H   0  0  0  0  0  0
    0.8141   51.1749   24.5685 N   0  0  0  0  0  0
    0.2217   51.0467   23.2401 C   0  0  2  0  0  0
    0.5935   52.4091   22.5396 C   0  0  2  0  0  0
   -0.2202   52.7502   21.8978 H   0  0  0  0  0  0
    1.8820   52.4955   21.7078 C   0  0  0  0  0  0
    2.0556   51.8645   20.6651 O   0  0  0  0  0  0
   -1.2591   50.7449   23.2364 C   0  0  0  0  0  0
   -2.3607   51.4865   23.6772 C   0  0  0  0  0  0
   -3.6479   50.9569   23.5428 C   0  0  0  0  0  0
   -3.8357   49.6998   22.9640 C   0  0  0  0  0  0
   -2.7373   48.9637   22.5106 C   0  0  0  0  0  0
   -1.4588   49.5069   22.6548 C   0  0  0  0  0  0
   -0.2396   48.9652   22.2922 N   0  0  0  0  0  0
    0.8077   49.7468   22.6096 C   0  0  0  0  0  0
    1.9935   49.4670   22.4438 O   0  0  0  0  0  0
    1.5590   52.9509   26.1603 C   0  0  0  0  0  0
    0.9831   52.6843   27.5327 C   0  0  0  0  0  0
    0.9731   53.4910   28.6049 C   0  0  0  0  0  0
    1.5337   54.8416   28.7880 C   0  0  0  0  0  0
    1.4014   55.4852   29.9591 C   0  0  0  0  0  0
    0.6984   54.7965   31.0288 C   0  0  0  0  0  0
    0.1896   53.5448   30.8849 C   0  0  0  0  0  0
    0.2999   52.8764   29.6605 C   0  0  0  0  0  0
   -0.1486   51.6971   29.3000 N   0  3  0  0  0  0
    0.2342   51.4180   27.9030 C   0  0  0  0  0  0
    6.9494   56.5217   18.3622 H   0  0  0  0  0  0
    7.5760   54.9013   18.0512 H   0  0  0  0  0  0
    8.6968   56.2283   18.4003 H   0  0  0  0  0  0
    7.0533   54.8741   22.7182 H   0  0  0  0  0  0
    5.0158   53.9223   23.6226 H   0  0  0  0  0  0
    3.2982   53.8364   19.6671 H   0  0  0  0  0  0
    5.3397   54.7243   18.7499 H   0  0  0  0  0  0
    0.3511   50.5464   25.2121 H   0  0  0  0  0  0
   -2.2408   52.4651   24.1213 H   0  0  0  0  0  0
   -4.5017   51.5227   23.8875 H   0  0  0  0  0  0
   -4.8335   49.2932   22.8652 H   0  0  0  0  0  0
   -2.8887   47.9917   22.0649 H   0  0  0  0  0  0
   -0.1223   48.0681   21.8529 H   0  0  0  0  0  0
    2.5444   52.4969   26.0755 H   0  0  0  0  0  0
    1.7322   54.0236   26.1354 H   0  0  0  0  0  0
    2.0636   55.3533   27.9981 H   0  0  0  0  0  0
    1.8044   56.4773   30.1088 H   0  0  0  0  0  0
    0.6305   55.2866   31.9904 H   0  0  0  0  0  0
   -0.3031   53.0718   31.7227 H   0  0  0  0  0  0
   -0.6827   51.2487   27.3311 H   0  0  0  0  0  0
    0.8481   50.5172   27.8872 H   0  0  0  0  0  0
   -0.6829   51.0553   29.8848 H   0  0  0  0  0  0
  1  2  1  0  0  0
  1 42  1  0  0  0
  1 43  1  0  0  0
  1 44  1  0  0  0
  2  3  2  0  0  0
  2  4  1  0  0  0
  4  9  2  0  0  0
  4  5  1  0  0  0
  5  6  2  0  0  0
  5 45  1  0  0  0
  6  7  1  0  0  0
  6 46  1  0  0  0
  7  8  2  0  0  0
  7 10  1  0  0  0
  8  9  1  0  0  0
  8 47  1  0  0  0
  9 48  1  0  0  0
 10 21  1  0  0  0
 10 11  1  0  0  0
 11 12  2  0  0  0
 11 13  1  0  0  0
 13 14  1  0  0  0
 13 19  1  0  0  0
 13 15  1  0  0  0
 15 16  1  0  0  0
 15 17  1  0  0  0
 15 32  1  0  0  0
 17 18  1  0  0  0
 17 49  1  0  0  0
 18 30  1  0  0  0
 18 19  1  0  0  0
 18 23  1  0  0  0
 19 20  1  0  0  0
 19 21  1  0  0  0
 21 22  2  0  0  0
 23 28  2  0  0  0
 23 24  1  0  0  0
 24 25  2  0  0  0
 24 50  1  0  0  0
 25 26  1  0  0  0
 25 51  1  0  0  0
 26 27  2  0  0  0
 26 52  1  0  0  0
 27 28  1  0  0  0
 27 53  1  0  0  0
 28 29  1  0  0  0
 29 30  1  0  0  0
 29 54  1  0  0  0
 30 31  2  0  0  0
 32 33  1  0  0  0
 32 55  1  0  0  0
 32 56  1  0  0  0
 33 41  1  0  0  0
 33 34  2  0  0  0
 34 39  1  0  0  0
 34 35  1  0  0  0
 35 36  2  0  0  0
 35 57  1  0  0  0
 36 37  1  0  0  0
 36 58  1  0  0  0
 37 38  2  0  0  0
 37 59  1  0  0  0
 38 39  1  0  0  0
 38 60  1  0  0  0
 39 40  2  0  0  0
 40 41  1  0  0  0
 40 63  1  0  0  0
 41 61  1  0  0  0
 41 62  1  0  0  0
M  CHG  1  40   1
M  END
> <i_i_glide_confnum>
22

> <i_i_glide_lignum>
5570

> <i_i_glide_posenum>
286

> <i_i_glide_rotatable_bonds>
4

> <i_m_Source_File_Index>
5153

> <b_m_subgroup_collapsed>
0

> <r_i_docking_score>
-5.60858

> <r_i_glide_ecoul>
-1.02367

> <r_i_glide_eff_state_penalty>
0

> <r_i_glide_einternal>
6.24689

> <r_i_glide_emodel>
-60.3957

> <r_i_glide_energy>
-46.2251

> <r_i_glide_erotb>
0.240095

> <r_i_glide_esite>
-0.0280868

> <r_i_glide_evdw>
-45.2015

> <r_i_glide_gscore>
-5.60858

> <r_i_glide_hbond>
0

> <r_i_glide_ligand_efficiency>
-0.147594

> <r_i_glide_ligand_efficiency_ln>
-1.20938

> <r_i_glide_ligand_efficiency_sa>
-0.496208

> <r_i_glide_lipo>
-2.77025

> <r_i_glide_metal>
0

> <r_i_glide_rewards>
-0.636716

> <s_i_glide_gridfile>
wee1_glide-grid

> <s_m_Source_File>
wee1_decoys_glide_SP.sdf

> <s_m_Source_Path>
/Users/zhangxujun/Desktop

> <s_m_entry_id>
5428

> <s_m_entry_name>
wee1_decoys_glide_SP.5153

> <s_m_subgroup_title>
wee1_decoys_glide_SP

> <s_m_subgroupid>
wee1_decoys_glide_SP


$$$$
