@<TRIPOS>MOLECULE
ZINC15945400_4307
47   50    1
SMALL
USER_CHARGES


@<TRIPOS>ATOM
      1 C1          0.5428   47.1708   17.8042 C.3       1 UNK         0.0000 
      2 C2          1.6663   48.1923   18.0462 C.3       1 UNK         0.0000 
      3 C3          1.4092   49.1903   19.2032 C.3       1 UNK         0.0000 
      4 H4          0.4738   49.7056   18.9758 H         1 UNK         0.0000 
      5 C5          1.3269   48.4966   20.5790 C.3       1 UNK         0.0000 
      6 C6          0.8880   49.4404   21.7215 C.3       1 UNK         0.0000 
      7 C7          1.6175   50.7796   21.6075 C.2       1 UNK         0.0000 
      8 C8          2.3582   51.1235   20.4609 C.2       1 UNK         0.0000 
      9 S9          3.1060   52.6789   20.5898 S.3       1 UNK         0.0000 
     10 C10         2.3643   52.9166   22.1295 C.2       1 UNK         0.0000 
     11 C11         1.6679   51.7965   22.5870 C.2       1 UNK         0.0000 
     12 C12         1.1101   51.9038   23.9351 C.2       1 UNK         0.0000 
     13 N13         1.3077   52.8660   24.7443 N.2       1 UNK         0.0000 
     14 C14         2.1504   53.9862   24.2879 C.3       1 UNK         0.0000 
     15 H15         1.5843   54.8964   24.4824 H         1 UNK         0.0000 
     16 N16         2.4514   54.0959   22.8428 N.pl3     1 UNK         0.0000 
     17 C17         3.3897   54.0958   25.1991 C.ar      1 UNK         0.0000 
     18 C18         4.6825   54.0970   24.6617 C.ar      1 UNK         0.0000 
     19 C19         5.8207   54.1687   25.4738 C.ar      1 UNK         0.0000 
     20 C20         5.6558   54.3101   26.8590 C.ar      1 UNK         0.0000 
     21 C21         4.3705   54.3172   27.4141 C.ar      1 UNK         0.0000 
     22 C22         3.2510   54.1973   26.5881 C.ar      1 UNK         0.0000 
     23 I23         4.0813   54.4964   29.4809 I         1 UNK         0.0000 
     24 O24         6.7613   54.4148   27.6698 O.3       1 UNK         0.0000 
     25 O25         7.1043   54.0987   24.9661 O.3       1 UNK         0.0000 
     26 C26         7.3103   53.6970   23.6112 C.3       1 UNK         0.0000 
     27 O27         0.3027   50.9284   24.4497 O.3       1 UNK         0.0000 
     28 C28         2.5452   50.2349   19.2399 C.3       1 UNK         0.0000 
     29 H29         0.7442   46.5865   16.9060 H         1 UNK         0.0000 
     30 H30        -0.4189   47.6658   17.6670 H         1 UNK         0.0000 
     31 H31         0.4464   46.4663   18.6296 H         1 UNK         0.0000 
     32 H32         2.6051   47.6617   18.2155 H         1 UNK         0.0000 
     33 H33         1.8173   48.7539   17.1223 H         1 UNK         0.0000 
     34 H34         0.6017   47.6903   20.5167 H         1 UNK         0.0000 
     35 H35         2.2763   48.0075   20.8066 H         1 UNK         0.0000 
     36 H36        -0.1890   49.6061   21.6707 H         1 UNK         0.0000 
     37 H37         1.0873   48.9574   22.6782 H         1 UNK         0.0000 
     38 H38         3.1070   54.8246   22.6050 H         1 UNK         0.0000 
     39 H39         4.8077   54.0168   23.5952 H         1 UNK         0.0000 
     40 H40         2.2631   54.1897   27.0265 H         1 UNK         0.0000 
     41 H41         6.5902   54.8160   28.5275 H         1 UNK         0.0000 
     42 H42         8.3174   53.2964   23.5049 H         1 UNK         0.0000 
     43 H43         6.6447   52.8974   23.2816 H         1 UNK         0.0000 
     44 H44         7.2024   54.5460   22.9356 H         1 UNK         0.0000 
     45 H45         0.6423   50.0684   24.2022 H         1 UNK         0.0000 
     46 H46         3.5045   49.7247   19.3031 H         1 UNK         0.0000 
     47 H47         2.5716   50.8204   18.3195 H         1 UNK         0.0000 
@<TRIPOS>BOND
     1    1    2 1    
     2    1   29 1    
     3    1   30 1    
     4    1   31 1    
     5    2    3 1    
     6    2   32 1    
     7    2   33 1    
     8    3    4 1    
     9    3   28 1    
    10    3    5 1    
    11    5    6 1    
    12    5   34 1    
    13    5   35 1    
    14    6    7 1    
    15    6   36 1    
    16    6   37 1    
    17    7   11 1    
    18    7    8 2    
    19    8    9 1    
    20    8   28 1    
    21    9   10 1    
    22   10   16 1    
    23   10   11 2    
    24   11   12 1    
    25   12   13 2    
    26   12   27 1    
    27   13   14 1    
    28   14   15 1    
    29   14   16 1    
    30   14   17 1    
    31   16   38 1    
    32   17   22 ar   
    33   17   18 ar   
    34   18   19 ar   
    35   18   39 1    
    36   19   20 ar   
    37   19   25 1    
    38   20   21 ar   
    39   20   24 1    
    40   21   22 ar   
    41   21   23 1    
    42   22   40 1    
    43   24   41 1    
    44   25   26 1    
    45   26   42 1    
    46   26   43 1    
    47   26   44 1    
    48   27   45 1    
    49   28   46 1    
    50   28   47 1    
@<TRIPOS>SUBSTRUCTURE
     1 UNK         1 GROUP             0       ****    0 ROOT    
