ZINC65301190_5372
                    3D
 Schrodinger Suite 2024-2.
 72 76  0  0  1  0            999 V2000
    0.7643   45.7219   17.4412 C   0  0  0  0  0  0
    0.8149   46.9038   18.3980 C   0  0  0  0  0  0
    1.9045   47.7757   18.3398 C   0  0  0  0  0  0
    1.9926   48.8642   19.2039 C   0  0  0  0  0  0
    0.9810   49.1118   20.1313 C   0  0  0  0  0  0
   -0.1151   48.2353   20.1963 C   0  0  0  0  0  0
   -0.2049   47.1349   19.3361 C   0  0  0  0  0  0
   -1.4094   46.2098   19.4402 C   0  0  0  0  0  0
    1.1609   50.2103   20.9903 N   0  0  0  0  0  0
    0.2219   50.9065   21.6692 C   0  0  0  0  0  0
   -0.9925   50.7436   21.5388 O   0  0  0  0  0  0
    0.7141   51.9914   22.6519 C   0  0  0  0  0  0
    1.7357   51.3879   23.6363 C   0  0  0  0  0  0
    2.1380   52.5037   24.6167 C   0  0  0  0  0  0
    2.8543   53.6101   23.9552 N   0  0  0  0  0  0
    2.0225   54.1836   22.8784 C   0  0  0  0  0  0
    1.4282   53.1296   21.8969 C   0  0  0  0  0  0
    4.1929   53.9323   24.2363 C   0  0  0  0  0  0
    5.2250   53.9742   23.2448 C   0  0  0  0  0  0
    6.5502   54.2027   23.6160 C   0  0  0  0  0  0
    6.8819   54.3815   24.8921 N   0  3  0  0  0  0
    5.9700   54.3560   25.8773 C   0  0  0  0  0  0
    4.5875   54.1528   25.6029 C   0  0  0  0  0  0
    3.8973   54.2420   26.8718 C   0  0  0  0  0  0
    4.6330   54.4032   27.9442 N   0  0  0  0  0  0
    6.3032   54.4958   27.5834 S   0  0  0  0  0  0
    2.4169   54.1722   27.1801 C   0  0  0  0  0  0
    4.9988   53.6027   21.8001 C   0  0  0  0  0  0
    4.6009   52.4599   21.5708 O   0  0  0  0  0  0
    5.2405   54.5199   20.8160 N   0  0  0  0  0  0
    4.9150   54.1877   19.4133 C   0  0  0  0  0  0
    6.2420   53.9349   18.6711 C   0  0  0  0  0  0
    7.1988   55.1442   18.7635 C   0  0  0  0  0  0
    7.3858   55.5753   20.2366 C   0  0  0  0  0  0
    6.0384   55.7605   20.9749 C   0  0  0  0  0  0
    8.5395   54.8997   18.0489 C   0  0  0  0  0  0
    1.6537   45.6626   16.8116 H   0  0  0  0  0  0
    0.6837   44.7884   17.9961 H   0  0  0  0  0  0
   -0.1084   45.7992   16.7930 H   0  0  0  0  0  0
    2.7008   47.6190   17.6251 H   0  0  0  0  0  0
    2.8548   49.5138   19.1324 H   0  0  0  0  0  0
   -0.8946   48.3898   20.9274 H   0  0  0  0  0  0
   -2.1321   46.5502   20.1827 H   0  0  0  0  0  0
   -1.0933   45.2004   19.7062 H   0  0  0  0  0  0
   -1.9238   46.1530   18.4805 H   0  0  0  0  0  0
    2.1110   50.5399   21.0676 H   0  0  0  0  0  0
   -0.1635   52.3351   23.2040 H   0  0  0  0  0  0
    1.2917   50.5920   24.2374 H   0  0  0  0  0  0
    2.6472   51.0502   23.1405 H   0  0  0  0  0  0
    1.2242   52.9096   25.0504 H   0  0  0  0  0  0
    2.7038   52.0968   25.4469 H   0  0  0  0  0  0
    1.2153   54.7585   23.3372 H   0  0  0  0  0  0
    2.6151   54.8970   22.3080 H   0  0  0  0  0  0
    2.2370   52.7832   21.2583 H   0  0  0  0  0  0
    0.7049   53.6591   21.2827 H   0  0  0  0  0  0
    7.3911   54.1929   22.9343 H   0  0  0  0  0  0
    2.1075   53.1646   27.4478 H   0  0  0  0  0  0
    2.1347   54.8164   28.0115 H   0  0  0  0  0  0
    1.8023   54.4967   26.3518 H   0  0  0  0  0  0
    4.1868   53.3805   19.3170 H   0  0  0  0  0  0
    4.4117   55.0553   18.9850 H   0  0  0  0  0  0
    6.7041   53.0318   19.0640 H   0  0  0  0  0  0
    6.0454   53.6955   17.6246 H   0  0  0  0  0  0
    6.6866   55.9713   18.2668 H   0  0  0  0  0  0
    7.9717   56.4956   20.2765 H   0  0  0  0  0  0
    8.0003   54.8553   20.7712 H   0  0  0  0  0  0
    5.5042   56.5690   20.4801 H   0  0  0  0  0  0
    6.1556   56.0962   22.0036 H   0  0  0  0  0  0
    9.0990   54.0892   18.5157 H   0  0  0  0  0  0
    8.3856   54.6334   17.0036 H   0  0  0  0  0  0
    9.1692   55.7900   18.0698 H   0  0  0  0  0  0
    7.8632   54.4962   25.1002 H   0  0  0  0  0  0
  1  2  1  0  0  0
  1 37  1  0  0  0
  1 38  1  0  0  0
  1 39  1  0  0  0
  2  7  2  0  0  0
  2  3  1  0  0  0
  3  4  2  0  0  0
  3 40  1  0  0  0
  4  5  1  0  0  0
  4 41  1  0  0  0
  5  6  2  0  0  0
  5  9  1  0  0  0
  6  7  1  0  0  0
  6 42  1  0  0  0
  7  8  1  0  0  0
  8 43  1  0  0  0
  8 44  1  0  0  0
  8 45  1  0  0  0
  9 10  1  0  0  0
  9 46  1  0  0  0
 10 11  2  0  0  0
 10 12  1  0  0  0
 12 17  1  0  0  0
 12 13  1  0  0  0
 12 47  1  0  0  0
 13 14  1  0  0  0
 13 48  1  0  0  0
 13 49  1  0  0  0
 14 15  1  0  0  0
 14 50  1  0  0  0
 14 51  1  0  0  0
 15 16  1  0  0  0
 15 18  1  0  0  0
 16 17  1  0  0  0
 16 52  1  0  0  0
 16 53  1  0  0  0
 17 54  1  0  0  0
 17 55  1  0  0  0
 18 23  2  0  0  0
 18 19  1  0  0  0
 19 20  2  0  0  0
 19 28  1  0  0  0
 20 21  1  0  0  0
 20 56  1  0  0  0
 21 22  2  0  0  0
 21 72  1  0  0  0
 22 26  1  0  0  0
 22 23  1  0  0  0
 23 24  1  0  0  0
 24 25  2  0  0  0
 24 27  1  0  0  0
 25 26  1  0  0  0
 27 57  1  0  0  0
 27 58  1  0  0  0
 27 59  1  0  0  0
 28 29  2  0  0  0
 28 30  1  0  0  0
 30 35  1  0  0  0
 30 31  1  0  0  0
 31 32  1  0  0  0
 31 60  1  0  0  0
 31 61  1  0  0  0
 32 33  1  0  0  0
 32 62  1  0  0  0
 32 63  1  0  0  0
 33 34  1  0  0  0
 33 36  1  0  0  0
 33 64  1  0  0  0
 34 35  1  0  0  0
 34 65  1  0  0  0
 34 66  1  0  0  0
 35 67  1  0  0  0
 35 68  1  0  0  0
 36 69  1  0  0  0
 36 70  1  0  0  0
 36 71  1  0  0  0
M  CHG  1  21   1
M  END
> <i_i_glide_confnum>
259

> <i_i_glide_lignum>
5373

> <i_i_glide_posenum>
95

> <i_i_glide_rotatable_bonds>
6

> <i_m_Source_File_Index>
625

> <b_m_subgroup_collapsed>
0

> <r_i_docking_score>
-5.54879

> <r_i_glide_ecoul>
-1.61768

> <r_i_glide_eff_state_penalty>
0

> <r_i_glide_einternal>
7.83104

> <r_i_glide_emodel>
-55.8766

> <r_i_glide_energy>
-44.6001

> <r_i_glide_erotb>
0.478209

> <r_i_glide_esite>
0

> <r_i_glide_evdw>
-42.9824

> <r_i_glide_gscore>
-5.54879

> <r_i_glide_hbond>
0

> <r_i_glide_ligand_efficiency>
-0.154133

> <r_i_glide_ligand_efficiency_ln>
-1.2106

> <r_i_glide_ligand_efficiency_sa>
-0.508936

> <r_i_glide_lipo>
-2.92487

> <r_i_glide_metal>
0

> <r_i_glide_rewards>
-0.710353

> <s_i_glide_gridfile>
wee1_glide-grid

> <s_m_Source_File>
wee1_decoys_glide_SP.sdf

> <s_m_Source_Path>
/Users/zhangxujun/Desktop

> <s_m_entry_id>
900

> <s_m_entry_name>
wee1_decoys_glide_SP.625

> <s_m_subgroup_title>
wee1_decoys_glide_SP

> <s_m_subgroupid>
wee1_decoys_glide_SP


$$$$
