@<TRIPOS>MOLECULE
ZINC13621509_5294
51   53    1
SMALL
USER_CHARGES


@<TRIPOS>ATOM
      1 C1          2.1732   52.7590   25.7504 C.3       1 UNK         0.0000 
      2 N2          2.7236   53.7892   26.6409 N.am      1 UNK         0.0000 
      3 C3          4.0062   54.2884   26.2607 C.ar      1 UNK         0.0000 
      4 C4          4.2893   54.4966   24.8982 C.ar      1 UNK         0.0000 
      5 C5          5.5561   54.8929   24.4885 C.ar      1 UNK         0.0000 
      6 C6          6.5536   55.0957   25.4316 C.ar      1 UNK         0.0000 
      7 C7          6.3025   54.8960   26.7885 C.ar      1 UNK         0.0000 
      8 C8          5.0337   54.4963   27.2012 C.ar      1 UNK         0.0000 
      9 C9          2.0877   54.1972   27.7939 C.2       1 UNK         0.0000 
     10 O10         2.4659   55.1943   28.4226 O.2       1 UNK         0.0000 
     11 C11         0.9672   53.3779   28.4346 C.ar      1 UNK         0.0000 
     12 C12         0.9114   53.3180   29.8381 C.ar      1 UNK         0.0000 
     13 C13        -0.0026   52.4967   30.4954 C.ar      1 UNK         0.0000 
     14 C14        -0.8727   51.6970   29.7599 C.ar      1 UNK         0.0000 
     15 C15        -0.8936   51.7930   28.3694 C.ar      1 UNK         0.0000 
     16 C16        -0.0084   52.6592   27.7176 C.ar      1 UNK         0.0000 
     17 N17        -1.7154   50.8967   27.6810 N.pl3     1 UNK         0.0000 
     18 C18        -2.5818   51.0325   26.6365 C.2       1 UNK         0.0000 
     19 S19        -2.9648   52.4934   25.8803 S.2       1 UNK         0.0000 
     20 N20        -3.0888   49.7940   26.3528 N.am      1 UNK         0.0000 
     21 C21        -3.9901   49.3268   25.4589 C.2       1 UNK         0.0000 
     22 O22        -4.4437   49.9523   24.4969 O.2       1 UNK         0.0000 
     23 C23        -4.3800   47.8802   25.6786 C.ar      1 UNK         0.0000 
     24 C24        -4.5069   47.0429   24.5611 C.ar      1 UNK         0.0000 
     25 C25        -4.8084   45.6913   24.7105 C.ar      1 UNK         0.0000 
     26 C26        -5.0101   45.1606   25.9808 C.ar      1 UNK         0.0000 
     27 C27        -4.8976   45.9787   27.1002 C.ar      1 UNK         0.0000 
     28 C28        -4.5846   47.3445   26.9701 C.ar      1 UNK         0.0000 
     29 O29        -4.4958   48.1934   28.0610 O.3       1 UNK         0.0000 
     30 C30        -4.4829   47.6635   29.3817 C.3       1 UNK         0.0000 
     31 Br31       -4.9114   44.5631   23.1815 Br        1 UNK         0.0000 
     32 H32         1.9035   51.8619   26.3101 H         1 UNK         0.0000 
     33 H33         1.3130   53.1420   25.2017 H         1 UNK         0.0000 
     34 H34         2.8907   52.4230   25.0025 H         1 UNK         0.0000 
     35 H35         3.5310   54.3527   24.1437 H         1 UNK         0.0000 
     36 H36         5.7689   55.0361   23.4398 H         1 UNK         0.0000 
     37 H37         7.5232   55.4086   25.0846 H         1 UNK         0.0000 
     38 H38         7.0842   55.0454   27.5199 H         1 UNK         0.0000 
     39 H39         4.8672   54.3206   28.2553 H         1 UNK         0.0000 
     40 H40         1.6074   53.8814   30.4408 H         1 UNK         0.0000 
     41 H41        -0.0090   52.4421   31.5746 H         1 UNK         0.0000 
     42 H42        -1.5296   51.0113   30.2793 H         1 UNK         0.0000 
     43 H43        -0.0834   52.7143   26.6473 H         1 UNK         0.0000 
     44 H44        -1.6756   49.9638   28.0830 H         1 UNK         0.0000 
     45 H45        -2.8038   49.0850   27.0210 H         1 UNK         0.0000 
     46 H46        -4.3530   47.4316   23.5634 H         1 UNK         0.0000 
     47 H47        -5.2504   44.1152   26.1035 H         1 UNK         0.0000 
     48 H48        -5.0585   45.5334   28.0686 H         1 UNK         0.0000 
     49 H49        -4.2904   48.4753   30.0856 H         1 UNK         0.0000 
     50 H50        -5.4439   47.2205   29.6440 H         1 UNK         0.0000 
     51 H51        -3.6923   46.9225   29.5137 H         1 UNK         0.0000 
@<TRIPOS>BOND
     1    1    2 1    
     2    1   32 1    
     3    1   33 1    
     4    1   34 1    
     5    2    3 1    
     6    2    9 am   BACKBONE|DICT|INTERRES
     7    3    8 ar   
     8    3    4 ar   
     9    4    5 ar   
    10    4   35 1    
    11    5    6 ar   
    12    5   36 1    
    13    6    7 ar   
    14    6   37 1    
    15    7    8 ar   
    16    7   38 1    
    17    8   39 1    
    18    9   10 2    
    19    9   11 1    
    20   11   16 ar   
    21   11   12 ar   
    22   12   13 ar   
    23   12   40 1    
    24   13   14 ar   
    25   13   41 1    
    26   14   15 ar   
    27   14   42 1    
    28   15   16 ar   
    29   15   17 1    
    30   16   43 1    
    31   17   18 1    
    32   17   44 1    
    33   18   19 2    
    34   18   20 am   BACKBONE|DICT|INTERRES
    35   20   21 am   BACKBONE|DICT|INTERRES
    36   20   45 1    
    37   21   22 2    
    38   21   23 1    
    39   23   28 ar   
    40   23   24 ar   
    41   24   25 ar   
    42   24   46 1    
    43   25   26 ar   
    44   25   31 1    
    45   26   27 ar   
    46   26   47 1    
    47   27   28 ar   
    48   27   48 1    
    49   28   29 1    
    50   29   30 1    
    51   30   49 1    
    52   30   50 1    
    53   30   51 1    
@<TRIPOS>SUBSTRUCTURE
     1 UNK         1 GROUP             0       ****    0 ROOT    
