@<TRIPOS>MOLECULE
ZINC64735021_149
53   56    1
SMALL
USER_CHARGES


@<TRIPOS>ATOM
      1 C1          0.9094   53.7697   29.2403 C.3       1 UNK         0.0000 
      2 C2          2.4164   53.9624   29.0722 C.2       1 UNK         0.0000 
      3 O3          3.1048   54.0952   30.0816 O.2       1 UNK         0.0000 
      4 C4          2.9733   54.0428   27.6891 C.ar      1 UNK         0.0000 
      5 C5          2.2125   53.6632   26.5781 C.ar      1 UNK         0.0000 
      6 C6          2.7633   53.6969   25.3024 C.ar      1 UNK         0.0000 
      7 C7          4.0893   54.1130   25.1227 C.ar      1 UNK         0.0000 
      8 C8          4.8524   54.4928   26.2267 C.ar      1 UNK         0.0000 
      9 C9          4.2980   54.4609   27.5026 C.ar      1 UNK         0.0000 
     10 N10         4.7499   54.0974   23.8850 N.am      1 UNK         0.0000 
     11 C11         4.2063   54.0745   22.6502 C.2       1 UNK         0.0000 
     12 O12         3.0116   54.2270   22.3977 O.2       1 UNK         0.0000 
     13 C13         5.1848   53.7260   21.5075 C.3       1 UNK         0.0000 
     14 H14         6.1819   53.7120   21.9494 H         1 UNK         0.0000 
     15 C15         4.9677   52.2925   20.9296 C.3       1 UNK         0.0000 
     16 C16         3.6026   52.0515   20.2860 C.2       1 UNK         0.0000 
     17 C17         2.5607   51.2972   20.6887 C.2       1 UNK         0.0000 
     18 C18         2.3573   50.4970   21.9062 C.2       1 UNK         0.0000 
     19 C19         1.2213   49.7982   22.0992 C.2       1 UNK         0.0000 
     20 C20         0.2014   49.8568   21.0625 C.2       1 UNK         0.0000 
     21 C21         0.3721   50.5862   19.9285 C.2       1 UNK         0.0000 
     22 C22         1.5527   51.3103   19.7199 C.2       1 UNK         0.0000 
     23 N23         1.9103   52.0444   18.6948 N.pl3     1 UNK         0.0000 
     24 C24         3.2479   52.6089   18.9207 C.3       1 UNK         0.0000 
     25 N25         5.1630   54.7552   20.4671 N.am      1 UNK         0.0000 
     26 C26         6.1707   55.5950   20.1648 C.2       1 UNK         0.0000 
     27 O27         7.2472   55.6178   20.7657 O.2       1 UNK         0.0000 
     28 C28         5.9120   56.5054   19.0761 C.2       1 UNK         0.0000 
     29 C29         6.6762   57.6240   18.7318 C.2       1 UNK         0.0000 
     30 C30         6.1866   58.3090   17.6165 C.2       1 UNK         0.0000 
     31 C31         5.0762   57.6946   17.0582 C.2       1 UNK         0.0000 
     32 S32         4.6285   56.2537   17.9115 S.3       1 UNK         0.0000 
     33 H33         0.3670   54.4970   28.6353 H         1 UNK         0.0000 
     34 H34         0.6154   53.9054   30.2803 H         1 UNK         0.0000 
     35 H35         0.6151   52.7710   28.9149 H         1 UNK         0.0000 
     36 H36         1.1934   53.3159   26.6797 H         1 UNK         0.0000 
     37 H37         2.1525   53.3658   24.4767 H         1 UNK         0.0000 
     38 H38         5.8799   54.8021   26.1092 H         1 UNK         0.0000 
     39 H39         4.9153   54.7496   28.3432 H         1 UNK         0.0000 
     40 H40         5.7576   54.0834   23.9400 H         1 UNK         0.0000 
     41 H41         5.7224   52.0837   20.1684 H         1 UNK         0.0000 
     42 H42         5.1196   51.5493   21.7124 H         1 UNK         0.0000 
     43 H43         3.1044   50.4377   22.6792 H         1 UNK         0.0000 
     44 H44         1.0767   49.2109   22.9951 H         1 UNK         0.0000 
     45 H45        -0.7168   49.3025   21.2009 H         1 UNK         0.0000 
     46 H46        -0.4164   50.5888   19.1904 H         1 UNK         0.0000 
     47 H47         3.1542   53.6951   18.8864 H         1 UNK         0.0000 
     48 H48         3.9035   52.2604   18.1224 H         1 UNK         0.0000 
     49 H49         4.2737   54.8889   20.0119 H         1 UNK         0.0000 
     50 H50         7.5492   57.9478   19.2787 H         1 UNK         0.0000 
     51 H51         6.6212   59.2232   17.2327 H         1 UNK         0.0000 
     52 H52         4.5108   58.0194   16.1953 H         1 UNK         0.0000 
     53 H53         1.3582   52.2021   17.8563 H         1 UNK         0.0000 
@<TRIPOS>BOND
     1    1    2 1    
     2    1   33 1    
     3    1   34 1    
     4    1   35 1    
     5    2    3 2    
     6    2    4 1    
     7    4    9 ar   
     8    4    5 ar   
     9    5    6 ar   
    10    5   36 1    
    11    6    7 ar   
    12    6   37 1    
    13    7    8 ar   
    14    7   10 1    
    15    8    9 ar   
    16    8   38 1    
    17    9   39 1    
    18   10   11 am   BACKBONE|DICT|INTERRES
    19   10   40 1    
    20   11   12 2    
    21   11   13 1    
    22   13   14 1    
    23   13   15 1    
    24   13   25 1    
    25   15   16 1    
    26   15   41 1    
    27   15   42 1    
    28   16   24 1    
    29   16   17 2    
    30   17   22 1    
    31   17   18 1    
    32   18   19 2    
    33   18   43 1    
    34   19   20 1    
    35   19   44 1    
    36   20   21 2    
    37   20   45 1    
    38   21   22 1    
    39   21   46 1    
    40   22   23 2    
    41   23   24 1    
    42   23   53 1    
    43   24   47 1    
    44   24   48 1    
    45   25   26 am   BACKBONE|DICT|INTERRES
    46   25   49 1    
    47   26   27 2    
    48   26   28 1    
    49   28   32 1    
    50   28   29 2    
    51   29   30 1    
    52   29   50 1    
    53   30   31 2    
    54   30   51 1    
    55   31   32 1    
    56   31   52 1    
@<TRIPOS>SUBSTRUCTURE
     1 UNK         1 GROUP             0       ****    0 ROOT    
