@<TRIPOS>MOLECULE
ZINC20829096_2968
60   63    1
SMALL
USER_CHARGES


@<TRIPOS>ATOM
      1 C1          3.8394   52.4603   30.3740 C.3       1 UNK         0.0000 
      2 C2          2.9727   52.6247   29.1387 C.ar      1 UNK         0.0000 
      3 C3          1.6792   52.0981   29.1010 C.ar      1 UNK         0.0000 
      4 C4          0.9049   52.2298   27.9500 C.ar      1 UNK         0.0000 
      5 C5          1.4147   52.8959   26.8342 C.ar      1 UNK         0.0000 
      6 C6          2.7063   53.4349   26.8620 C.ar      1 UNK         0.0000 
      7 C7          3.4770   53.2960   28.0214 C.ar      1 UNK         0.0000 
      8 N8          3.2802   54.1352   25.7880 N.pl3     1 UNK         0.0000 
      9 C9          2.5491   54.4931   24.5711 C.3       1 UNK         0.0000 
     10 C10         2.4466   53.3962   23.5414 C.ar      1 UNK         0.0000 
     11 N11         1.4373   52.5706   23.4427 N.2       1 UNK         0.0000 
     12 N12         1.6951   51.7536   22.3537 N.2       1 UNK         0.0000 
     13 C13         2.8454   52.1214   21.8383 C.ar      1 UNK         0.0000 
     14 N14         3.3782   53.1795   22.5457 N.pl3     1 UNK         0.0000 
     15 C15         4.5551   53.9127   22.2695 C.ar      1 UNK         0.0000 
     16 C16         5.5396   54.0489   23.2548 C.ar      1 UNK         0.0000 
     17 C17         6.7047   54.7566   22.9728 C.ar      1 UNK         0.0000 
     18 C18         6.8843   55.3221   21.7118 C.ar      1 UNK         0.0000 
     19 C19         5.9046   55.1924   20.7278 C.ar      1 UNK         0.0000 
     20 C20         4.7367   54.4867   21.0062 C.ar      1 UNK         0.0000 
     21 S21         3.6604   51.3461   20.4813 S.3       1 UNK         0.0000 
     22 C22         2.5145   50.0174   20.0160 C.3       1 UNK         0.0000 
     23 C23         1.8561   50.2285   18.6451 C.3       1 UNK         0.0000 
     24 C24         1.1462   48.9625   18.1776 C.2       1 UNK         0.0000 
     25 O25        -0.0379   48.8052   18.4734 O.2       1 UNK         0.0000 
     26 N26         1.9043   48.0866   17.4869 N.am      1 UNK         0.0000 
     27 C27         1.5741   46.7758   17.1038 C.ar      1 UNK         0.0000 
     28 C28         2.3452   46.2094   16.0868 C.ar      1 UNK         0.0000 
     29 C29         2.1086   44.9003   15.6796 C.ar      1 UNK         0.0000 
     30 C30         1.1100   44.1379   16.2977 C.ar      1 UNK         0.0000 
     31 C31         0.3379   44.7049   17.3145 C.ar      1 UNK         0.0000 
     32 C32         0.5674   46.0152   17.7182 C.ar      1 UNK         0.0000 
     33 C33         0.8538   42.6873   15.8890 C.3       1 UNK         0.0000 
     34 F34         1.7046   42.2636   14.9507 F         1 UNK         0.0000 
     35 F35        -0.3883   42.5685   15.4145 F         1 UNK         0.0000 
     36 F36         0.9806   41.8921   16.9554 F         1 UNK         0.0000 
     37 H37         3.3906   51.7885   31.1066 H         1 UNK         0.0000 
     38 H38         4.8055   52.0448   30.0866 H         1 UNK         0.0000 
     39 H39         4.0227   53.4274   30.8412 H         1 UNK         0.0000 
     40 H40         1.2704   51.5831   29.9572 H         1 UNK         0.0000 
     41 H41        -0.0920   51.8119   27.9225 H         1 UNK         0.0000 
     42 H42         0.7935   52.9848   25.9565 H         1 UNK         0.0000 
     43 H43         4.4780   53.7012   28.0555 H         1 UNK         0.0000 
     44 H44         4.0532   54.7352   26.0333 H         1 UNK         0.0000 
     45 H45         3.1033   55.2969   24.1033 H         1 UNK         0.0000 
     46 H46         1.5604   54.8883   24.7965 H         1 UNK         0.0000 
     47 H47         5.4171   53.5928   24.2274 H         1 UNK         0.0000 
     48 H48         7.4755   54.8549   23.7247 H         1 UNK         0.0000 
     49 H49         7.7970   55.8582   21.4962 H         1 UNK         0.0000 
     50 H50         6.0549   55.6285   19.7509 H         1 UNK         0.0000 
     51 H51         3.9789   54.3841   20.2412 H         1 UNK         0.0000 
     52 H52         1.7519   49.8492   20.7756 H         1 UNK         0.0000 
     53 H53         3.1043   49.1012   19.9961 H         1 UNK         0.0000 
     54 H54         2.6330   50.4976   17.9261 H         1 UNK         0.0000 
     55 H55         1.2151   51.1108   18.6420 H         1 UNK         0.0000 
     56 H56         2.8155   48.4396   17.1688 H         1 UNK         0.0000 
     57 H57         3.1308   46.7862   15.6173 H         1 UNK         0.0000 
     58 H58         2.7045   44.4853   14.8824 H         1 UNK         0.0000 
     59 H59        -0.4377   44.1275   17.7968 H         1 UNK         0.0000 
     60 H60        -0.0281   46.4086   18.5263 H         1 UNK         0.0000 
@<TRIPOS>BOND
     1    1    2 1    
     2    1   37 1    
     3    1   38 1    
     4    1   39 1    
     5    2    7 ar   
     6    2    3 ar   
     7    3    4 ar   
     8    3   40 1    
     9    4    5 ar   
    10    4   41 1    
    11    5    6 ar   
    12    5   42 1    
    13    6    7 ar   
    14    6    8 1    
    15    7   43 1    
    16    8    9 1    
    17    8   44 1    
    18    9   10 1    
    19    9   45 1    
    20    9   46 1    
    21   10   14 ar   
    22   10   11 ar   
    23   11   12 ar   
    24   12   13 ar   
    25   13   14 ar   
    26   13   21 1    
    27   14   15 1    
    28   15   20 ar   
    29   15   16 ar   
    30   16   17 ar   
    31   16   47 1    
    32   17   18 ar   
    33   17   48 1    
    34   18   19 ar   
    35   18   49 1    
    36   19   20 ar   
    37   19   50 1    
    38   20   51 1    
    39   21   22 1    
    40   22   23 1    
    41   22   52 1    
    42   22   53 1    
    43   23   24 1    
    44   23   54 1    
    45   23   55 1    
    46   24   25 2    
    47   24   26 am   BACKBONE|DICT|INTERRES
    48   26   27 1    
    49   26   56 1    
    50   27   32 ar   
    51   27   28 ar   
    52   28   29 ar   
    53   28   57 1    
    54   29   30 ar   
    55   29   58 1    
    56   30   31 ar   
    57   30   33 1    
    58   31   32 ar   
    59   31   59 1    
    60   32   60 1    
    61   33   34 1    
    62   33   35 1    
    63   33   36 1    
@<TRIPOS>SUBSTRUCTURE
     1 UNK         1 GROUP             0       ****    0 ROOT    
