ZINC67181471_1721
                    3D
 Schrodinger Suite 2024-2.
 33 35  0  0  1  0            999 V2000
    4.1008   53.2582   20.0208 C   0  0  0  0  0  0
    5.1722   54.2670   20.3846 C   0  0  0  0  0  0
    5.9649   54.9204   19.4268 C   0  0  0  0  0  0
    6.9815   55.6975   19.9592 C   0  0  0  0  0  0
    7.0145   55.6184   21.6819 S   0  0  0  0  0  0
    5.6048   54.5924   21.6846 C   0  0  0  0  0  0
    5.1311   54.0858   22.9462 C   0  0  0  0  0  0
    5.9215   53.6982   23.8073 O   0  0  0  0  0  0
    3.7804   54.0740   23.0528 N   0  0  0  0  0  0
    3.1033   53.5432   24.1730 N   0  0  0  0  0  0
    3.1814   54.0966   25.4091 C   0  0  0  0  0  0
    3.9045   55.0588   25.6816 O   0  0  0  0  0  0
    2.3044   53.4800   26.4890 C   0  0  0  0  0  0
    1.3379   52.4977   26.1922 C   0  0  0  0  0  0
    0.5080   51.9265   27.1626 C   0  0  0  0  0  0
    0.6620   52.3913   28.4683 C   0  0  0  0  0  0
    1.6151   53.3815   28.8104 C   0  0  0  0  0  0
    2.4417   53.9233   27.8165 C   0  0  0  0  0  0
    1.5713   53.6698   30.1507 N   0  0  0  0  0  0
    0.6304   52.8893   30.6211 C   0  0  0  0  0  0
    0.0441   52.0966   29.6632 N   0  0  0  0  0  0
   -0.6920   51.4287   29.8556 H   0  0  0  0  0  0
    3.1043   53.6965   20.0286 H   0  0  0  0  0  0
    4.2673   52.8189   19.0352 H   0  0  0  0  0  0
    4.0868   52.4143   20.7107 H   0  0  0  0  0  0
    5.8124   54.8030   18.3635 H   0  0  0  0  0  0
    7.7253   56.2689   19.4228 H   0  0  0  0  0  0
    3.1711   54.5770   22.4236 H   0  0  0  0  0  0
    2.8709   52.5701   24.0421 H   0  0  0  0  0  0
    1.2063   52.1484   25.1784 H   0  0  0  0  0  0
   -0.2176   51.1651   26.9114 H   0  0  0  0  0  0
    3.1689   54.6791   28.0778 H   0  0  0  0  0  0
    0.3031   52.8218   31.6513 H   0  0  0  0  0  0
  1  2  1  0  0  0
  1 23  1  0  0  0
  1 24  1  0  0  0
  1 25  1  0  0  0
  2  6  2  0  0  0
  2  3  1  0  0  0
  3  4  2  0  0  0
  3 26  1  0  0  0
  4  5  1  0  0  0
  4 27  1  0  0  0
  5  6  1  0  0  0
  6  7  1  0  0  0
  7  8  2  0  0  0
  7  9  1  0  0  0
  9 10  1  0  0  0
  9 28  1  0  0  0
 10 11  1  0  0  0
 10 29  1  0  0  0
 11 12  2  0  0  0
 11 13  1  0  0  0
 13 18  2  0  0  0
 13 14  1  0  0  0
 14 15  2  0  0  0
 14 30  1  0  0  0
 15 16  1  0  0  0
 15 31  1  0  0  0
 16 21  1  0  0  0
 16 17  2  0  0  0
 17 18  1  0  0  0
 17 19  1  0  0  0
 18 32  1  0  0  0
 19 20  2  0  0  0
 20 21  1  0  0  0
 20 33  1  0  0  0
 21 22  1  0  0  0
M  END
> <i_i_glide_confnum>
7

> <i_i_glide_lignum>
1722

> <i_i_glide_posenum>
395

> <i_i_glide_rotatable_bonds>
5

> <i_m_Source_File_Index>
4003

> <b_m_subgroup_collapsed>
0

> <r_i_docking_score>
-5.22355

> <r_i_glide_ecoul>
-4.68426

> <r_i_glide_eff_state_penalty>
0

> <r_i_glide_einternal>
3.46207

> <r_i_glide_emodel>
-54.6784

> <r_i_glide_energy>
-41.1156

> <r_i_glide_erotb>
0.815065

> <r_i_glide_esite>
-0.0377241

> <r_i_glide_evdw>
-36.4313

> <r_i_glide_gscore>
-5.22355

> <r_i_glide_hbond>
-0.0568136

> <r_i_glide_ligand_efficiency>
-0.24874

> <r_i_glide_ligand_efficiency_ln>
-1.29151

> <r_i_glide_ligand_efficiency_sa>
-0.686256

> <r_i_glide_lipo>
-1.42754

> <r_i_glide_metal>
0

> <r_i_glide_rewards>
-1.99232

> <s_i_glide_gridfile>
wee1_glide-grid

> <s_m_Source_File>
wee1_decoys_glide_SP.sdf

> <s_m_Source_Path>
/Users/zhangxujun/Desktop

> <s_m_entry_id>
4278

> <s_m_entry_name>
wee1_decoys_glide_SP.4003

> <s_m_subgroup_title>
wee1_decoys_glide_SP

> <s_m_subgroupid>
wee1_decoys_glide_SP


$$$$
