@<TRIPOS>MOLECULE
ZINC39656082_5540
67   71    1
SMALL
USER_CHARGES


@<TRIPOS>ATOM
      1 C1          5.8423   54.4966   28.7425 C.3       1 UNK         0.0000 
      2 C2          4.5751   54.0120   28.0748 C.ar      1 UNK         0.0000 
      3 C3          3.5162   53.5166   28.8378 C.ar      1 UNK         0.0000 
      4 C4          2.3154   53.1050   28.2544 C.ar      1 UNK         0.0000 
      5 C5          2.2217   53.2138   26.8616 C.ar      1 UNK         0.0000 
      6 N6          1.2049   52.8971   25.9942 N.pl3     1 UNK         0.0000 
      7 C7          1.5860   53.1779   24.7054 C.ar      1 UNK         0.0000 
      8 C8          2.8742   53.6837   24.6859 C.ar      1 UNK         0.0000 
      9 C9          3.2911   53.7094   26.0593 C.ar      1 UNK         0.0000 
     10 C10         4.4750   54.1057   26.6906 C.ar      1 UNK         0.0000 
     11 C11         3.7468   54.1149   23.5168 C.3       1 UNK         0.0000 
     12 C12         3.0646   54.1227   22.1356 C.3       1 UNK         0.0000 
     13 N13         2.5919   52.8105   21.7084 N.am      1 UNK         0.0000 
     14 C14         3.3769   51.8131   21.2753 C.2       1 UNK         0.0000 
     15 O15         4.5918   51.9271   21.1188 O.2       1 UNK         0.0000 
     16 C16         2.6793   50.4762   20.9440 C.3       1 UNK         0.0000 
     17 H17         3.5020   49.7642   20.9094 H         1 UNK         0.0000 
     18 C18         1.7141   50.0005   22.0378 C.3       1 UNK         0.0000 
     19 N19         0.3820   50.2955   21.4943 N.am      1 UNK         0.0000 
     20 C20         0.4385   50.6707   20.0762 C.3       1 UNK         0.0000 
     21 C21         1.8922   50.4314   19.6018 C.3       1 UNK         0.0000 
     22 C22         2.0587   49.0046   19.0007 C.3       1 UNK         0.0000 
     23 C23         1.1570   48.7591   17.7723 C.3       1 UNK         0.0000 
     24 N24         1.5045   49.8292   16.7181 N.4       1 UNK         0.0000 
     25 C25         1.4244   51.2833   17.2293 C.3       1 UNK         0.0000 
     26 C26         2.3337   51.4053   18.4700 C.3       1 UNK         0.0000 
     27 C27        -0.7846   50.4234   22.1842 C.2       1 UNK         0.0000 
     28 O28        -1.8523   50.6708   21.6172 O.2       1 UNK         0.0000 
     29 C29        -0.7485   50.3438   23.6355 C.2       1 UNK         0.0000 
     30 C30         0.0040   49.4290   24.3822 C.2       1 UNK         0.0000 
     31 S31        -0.0958   49.6958   26.0815 S.3       1 UNK         0.0000 
     32 C32        -1.3154   50.8925   25.8364 C.2       1 UNK         0.0000 
     33 C33        -1.5844   51.1086   24.4881 C.2       1 UNK         0.0000 
     34 O34        -2.5696   51.9659   24.0742 O.3       1 UNK         0.0000 
     35 C35        -2.1072   53.2744   23.7788 C.3       1 UNK         0.0000 
     36 Cl36       -2.0444   51.6604   27.1901 Cl        1 UNK         0.0000 
     37 H37         6.3053   55.2753   28.1321 H         1 UNK         0.0000 
     38 H38         5.6230   54.9446   29.7103 H         1 UNK         0.0000 
     39 H39         6.5546   53.6819   28.8783 H         1 UNK         0.0000 
     40 H40         3.6247   53.4492   29.9084 H         1 UNK         0.0000 
     41 H41         1.5024   52.7202   28.8545 H         1 UNK         0.0000 
     42 H42         0.9030   52.9773   23.8939 H         1 UNK         0.0000 
     43 H43         0.3021   52.5061   26.2250 H         1 UNK         0.0000 
     44 H44         5.2983   54.4859   26.1060 H         1 UNK         0.0000 
     45 H45         4.6421   53.4943   23.4672 H         1 UNK         0.0000 
     46 H46         4.1180   55.1163   23.7185 H         1 UNK         0.0000 
     47 H47         3.7293   54.5477   21.3799 H         1 UNK         0.0000 
     48 H48         2.2018   54.7841   22.1800 H         1 UNK         0.0000 
     49 H49         1.5969   52.6521   21.7384 H         1 UNK         0.0000 
     50 H50         1.9592   50.4745   22.9907 H         1 UNK         0.0000 
     51 H51         1.8489   48.9207   22.1259 H         1 UNK         0.0000 
     52 H52        -0.3392   50.2466   19.4443 H         1 UNK         0.0000 
     53 H53         0.2703   51.7500   20.0530 H         1 UNK         0.0000 
     54 H54         3.1045   48.7976   18.7635 H         1 UNK         0.0000 
     55 H55         1.7822   48.2580   19.7473 H         1 UNK         0.0000 
     56 H56         1.3718   47.7971   17.3014 H         1 UNK         0.0000 
     57 H57         0.0864   48.8228   17.9670 H         1 UNK         0.0000 
     58 H58         2.4844   49.6630   16.4702 H         1 UNK         0.0000 
     59 H59         1.7672   51.9145   16.4071 H         1 UNK         0.0000 
     60 H60         0.3739   51.4998   17.4316 H         1 UNK         0.0000 
     61 H61         2.2647   52.4367   18.8187 H         1 UNK         0.0000 
     62 H62         3.3850   51.2743   18.2088 H         1 UNK         0.0000 
     63 H63         0.6665   48.6507   24.0324 H         1 UNK         0.0000 
     64 H64        -2.9473   53.9679   23.7960 H         1 UNK         0.0000 
     65 H65        -1.3567   53.6375   24.4816 H         1 UNK         0.0000 
     66 H66        -1.6856   53.2957   22.7770 H         1 UNK         0.0000 
     67 H67         0.9603   49.7050   15.8759 H         1 UNK         0.0000 
@<TRIPOS>BOND
     1    1   37 1    
     2    1   38 1    
     3    1   39 1    
     4    1    2 1    
     5    2    3 ar   
     6    2   10 ar   
     7    3    4 ar   
     8    3   40 1    
     9    4    5 ar   
    10    4   41 1    
    11    5    6 ar   
    12    5    9 ar   
    13    6   43 1    
    14    6    7 ar   
    15    7    8 ar   
    16    7   42 1    
    17    8    9 ar   
    18    8   11 1    
    19    9   10 ar   
    20   10   44 1    
    21   11   12 1    
    22   11   45 1    
    23   11   46 1    
    24   12   13 1    
    25   12   47 1    
    26   12   48 1    
    27   13   14 am   BACKBONE|DICT|INTERRES
    28   13   49 1    
    29   14   15 2    
    30   14   16 1    
    31   16   17 1    
    32   16   21 1    
    33   16   18 1    
    34   18   19 1    
    35   18   50 1    
    36   18   51 1    
    37   19   20 1    
    38   19   27 am   BACKBONE|DICT|INTERRES
    39   20   21 1    
    40   20   52 1    
    41   20   53 1    
    42   21   26 1    
    43   21   22 1    
    44   22   23 1    
    45   22   54 1    
    46   22   55 1    
    47   23   24 1    
    48   23   56 1    
    49   23   57 1    
    50   24   25 1    
    51   24   58 1    
    52   24   67 1    
    53   25   26 1    
    54   25   59 1    
    55   25   60 1    
    56   26   61 1    
    57   26   62 1    
    58   27   28 2    
    59   27   29 1    
    60   29   33 1    
    61   29   30 2    
    62   30   31 1    
    63   30   63 1    
    64   31   32 1    
    65   32   33 2    
    66   32   36 1    
    67   33   34 1    
    68   34   35 1    
    69   35   64 1    
    70   35   65 1    
    71   35   66 1    
@<TRIPOS>SUBSTRUCTURE
     1 UNK         1 GROUP             0       ****    0 ROOT    
