@<TRIPOS>MOLECULE
ZINC08132888_257
64   67    1
SMALL
USER_CHARGES


@<TRIPOS>ATOM
      1 C1          2.2802   52.0975   31.2055 C.ar      1 UNK         0.0000 
      2 C2          1.2537   52.4967   30.3540 C.ar      1 UNK         0.0000 
      3 C3          1.5528   52.9541   29.0715 C.ar      1 UNK         0.0000 
      4 C4          2.8826   53.0241   28.6401 C.ar      1 UNK         0.0000 
      5 C5          3.9094   52.6051   29.5020 C.ar      1 UNK         0.0000 
      6 C6          3.6064   52.1450   30.7819 C.ar      1 UNK         0.0000 
      7 N7          3.0975   53.4882   27.3242 N.am      1 UNK         0.0000 
      8 C8          4.2269   53.9827   26.7608 C.2       1 UNK         0.0000 
      9 O9          5.2640   54.1675   27.4033 O.2       1 UNK         0.0000 
     10 N10         4.1557   54.2319   25.4195 N.am      1 UNK         0.0000 
     11 C11         2.8817   54.3458   24.6580 C.3       1 UNK         0.0000 
     12 C12         3.0201   53.5421   23.3440 C.3       1 UNK         0.0000 
     13 C13         4.2430   54.0268   22.5342 C.3       1 UNK         0.0000 
     14 C14         5.5253   53.9438   23.3943 C.3       1 UNK         0.0000 
     15 C15         5.3691   54.7242   24.7153 C.3       1 UNK         0.0000 
     16 C16         4.4056   53.1819   21.2507 C.2       1 UNK         0.0000 
     17 O17         4.9972   52.1009   21.2752 O.2       1 UNK         0.0000 
     18 N18         3.9050   53.7084   20.1218 N.am      1 UNK         0.0000 
     19 C19         4.0365   53.1334   18.7763 C.3       1 UNK         0.0000 
     20 C20         5.4317   53.2979   18.1016 C.3       1 UNK         0.0000 
     21 H21         6.0768   52.5100   18.4965 H         1 UNK         0.0000 
     22 C22         5.3880   53.1954   16.5806 C.2       1 UNK         0.0000 
     23 C23         6.1464   52.4972   15.6522 C.2       1 UNK         0.0000 
     24 C24         5.6188   52.7809   14.3925 C.2       1 UNK         0.0000 
     25 C25         4.5508   53.6378   14.6045 C.2       1 UNK         0.0000 
     26 O26         4.4084   53.8842   15.9318 O.3       1 UNK         0.0000 
     27 C27         5.4346   55.8953   18.0578 C.3       1 UNK         0.0000 
     28 C28         6.1311   57.1137   18.6914 C.3       1 UNK         0.0000 
     29 C29         7.6394   57.1399   18.3776 C.3       1 UNK         0.0000 
     30 C30         8.3310   55.8242   18.7780 C.3       1 UNK         0.0000 
     31 C31         7.6444   54.6090   18.1322 C.3       1 UNK         0.0000 
     32 H32         2.0446   51.7481   32.2013 H         1 UNK         0.0000 
     33 H33         0.2266   52.4497   30.6918 H         1 UNK         0.0000 
     34 H34         0.7442   53.2530   28.4164 H         1 UNK         0.0000 
     35 H35         4.9459   52.6120   29.1961 H         1 UNK         0.0000 
     36 H36         4.3985   51.8305   31.4447 H         1 UNK         0.0000 
     37 H37         2.2867   53.4380   26.7310 H         1 UNK         0.0000 
     38 H38         2.7049   55.3939   24.4232 H         1 UNK         0.0000 
     39 H39         2.0099   53.9730   25.1951 H         1 UNK         0.0000 
     40 H40         2.0957   53.7090   22.7879 H         1 UNK         0.0000 
     41 H41         3.1019   52.4967   23.6394 H         1 UNK         0.0000 
     42 H42         4.0675   55.0529   22.2077 H         1 UNK         0.0000 
     43 H43         5.7526   52.9180   23.6798 H         1 UNK         0.0000 
     44 H44         6.3744   54.3927   22.8788 H         1 UNK         0.0000 
     45 H45         5.2484   55.7827   24.5056 H         1 UNK         0.0000 
     46 H46         6.2808   54.5803   25.2967 H         1 UNK         0.0000 
     47 H47         3.2825   54.5051   20.2021 H         1 UNK         0.0000 
     48 H48         3.2506   53.5627   18.1496 H         1 UNK         0.0000 
     49 H49         3.7887   52.0696   18.8141 H         1 UNK         0.0000 
     50 H50         6.9761   51.8415   15.8703 H         1 UNK         0.0000 
     51 H51         5.9621   52.3949   13.4453 H         1 UNK         0.0000 
     52 H52         3.8360   54.1191   13.9525 H         1 UNK         0.0000 
     53 H53         5.4786   55.9210   16.9683 H         1 UNK         0.0000 
     54 H54         4.3962   55.8451   18.3881 H         1 UNK         0.0000 
     55 H55         5.6623   58.0317   18.3280 H         1 UNK         0.0000 
     56 H56         5.9708   57.0996   19.7719 H         1 UNK         0.0000 
     57 H57         8.1136   57.9828   18.8831 H         1 UNK         0.0000 
     58 H58         7.7852   57.3146   17.3105 H         1 UNK         0.0000 
     59 H59         8.3285   55.7118   19.8635 H         1 UNK         0.0000 
     60 H60         9.3823   55.8504   18.4865 H         1 UNK         0.0000 
     61 H61         8.0954   53.6901   18.5006 H         1 UNK         0.0000 
     62 H62         7.6952   54.6260   17.0433 H         1 UNK         0.0000 
     63 N63         6.1506   54.6078   18.5471 N.4       1 UNK         0.0000 
     64 H64         6.1070   54.5896   19.5579 H         1 UNK         0.0000 
@<TRIPOS>BOND
     1    1    6 ar   
     2    1    2 ar   
     3    1   32 1    
     4    2    3 ar   
     5    2   33 1    
     6    3    4 ar   
     7    3   34 1    
     8    4    5 ar   
     9    4    7 1    
    10    5    6 ar   
    11    5   35 1    
    12    6   36 1    
    13    7    8 am   BACKBONE|DICT|INTERRES
    14    7   37 1    
    15    8    9 2    
    16    8   10 am   BACKBONE|DICT|INTERRES
    17   10   15 1    
    18   10   11 1    
    19   11   12 1    
    20   11   38 1    
    21   11   39 1    
    22   12   13 1    
    23   12   40 1    
    24   12   41 1    
    25   13   14 1    
    26   13   16 1    
    27   13   42 1    
    28   14   15 1    
    29   14   43 1    
    30   14   44 1    
    31   15   45 1    
    32   15   46 1    
    33   16   17 2    
    34   16   18 am   BACKBONE|DICT|INTERRES
    35   18   19 1    
    36   18   47 1    
    37   19   20 1    
    38   19   48 1    
    39   19   49 1    
    40   20   21 1    
    41   20   22 1    
    42   20   63 1    
    43   22   26 1    
    44   22   23 2    
    45   23   24 1    
    46   23   50 1    
    47   24   25 2    
    48   24   51 1    
    49   25   26 1    
    50   25   52 1    
    51   27   28 1    
    52   27   53 1    
    53   27   54 1    
    54   27   63 1    
    55   28   29 1    
    56   28   55 1    
    57   28   56 1    
    58   29   30 1    
    59   29   57 1    
    60   29   58 1    
    61   30   31 1    
    62   30   59 1    
    63   30   60 1    
    64   31   61 1    
    65   31   62 1    
    66   31   63 1    
    67   63   64 1    
@<TRIPOS>SUBSTRUCTURE
     1 UNK         1 GROUP             0       ****    0 ROOT    
