@<TRIPOS>MOLECULE
ZINC44910617_5260
63   66    1
SMALL
USER_CHARGES


@<TRIPOS>ATOM
      1 C1          2.7564   52.2030   19.3103 C.ar      1 UNK         0.0000 
      2 C2          3.6023   53.2968   19.1322 C.ar      1 UNK         0.0000 
      3 C3          4.6720   53.5309   20.0092 C.ar      1 UNK         0.0000 
      4 C4          4.8457   52.6601   21.0897 C.ar      1 UNK         0.0000 
      5 C5          4.0080   51.5710   21.2675 C.ar      1 UNK         0.0000 
      6 C6          2.9704   51.3201   20.3698 C.ar      1 UNK         0.0000 
      7 C7          2.0840   50.0903   20.5533 C.3       1 UNK         0.0000 
      8 N8          1.7168   49.8229   21.9477 N.am      1 UNK         0.0000 
      9 C9          0.8405   50.5614   22.6528 C.2       1 UNK         0.0000 
     10 O10         0.1696   51.4672   22.1523 O.2       1 UNK         0.0000 
     11 C11         0.7098   50.2530   24.1573 C.3       1 UNK         0.0000 
     12 H12         1.5038   49.5437   24.4056 H         1 UNK         0.0000 
     13 C13        -0.6655   49.5960   24.4123 C.3       1 UNK         0.0000 
     14 C14        -0.8543   49.3858   25.9267 C.3       1 UNK         0.0000 
     15 C15        -0.7037   50.6957   26.7278 C.3       1 UNK         0.0000 
     16 N16         0.7041   51.2876   26.4659 N.4       1 UNK         0.0000 
     17 C17         0.9012   51.5689   24.9512 C.3       1 UNK         0.0000 
     18 C18         0.9038   52.5693   27.3124 C.3       1 UNK         0.0000 
     19 C19         2.3238   53.1237   27.3219 C.ar      1 UNK         0.0000 
     20 C20         2.7690   53.9317   26.2721 C.ar      1 UNK         0.0000 
     21 C21         4.0717   54.4159   26.2635 C.ar      1 UNK         0.0000 
     22 C22         4.9263   54.1073   27.3178 C.ar      1 UNK         0.0000 
     23 C23         4.4809   53.3352   28.3876 C.ar      1 UNK         0.0000 
     24 C24         3.1773   52.8482   28.3941 C.ar      1 UNK         0.0000 
     25 Br25        6.7165   54.7412   27.2791 Br        1 UNK         0.0000 
     26 N26         5.6002   54.5540   19.7957 N.pl3     1 UNK         0.0000 
     27 C27         5.6234   55.3619   18.5595 C.3       1 UNK         0.0000 
     28 C28         7.0361   55.8820   18.2176 C.3       1 UNK         0.0000 
     29 C29         7.6828   56.6368   19.3862 C.3       1 UNK         0.0000 
     30 C30         7.5938   55.7850   20.6573 C.3       1 UNK         0.0000 
     31 C31         6.1406   55.3457   20.9185 C.3       1 UNK         0.0000 
     32 H32         1.9517   52.0344   18.6095 H         1 UNK         0.0000 
     33 H33         3.4128   53.9498   18.2957 H         1 UNK         0.0000 
     34 H34         5.6639   52.7806   21.7820 H         1 UNK         0.0000 
     35 H35         4.1889   50.8963   22.0811 H         1 UNK         0.0000 
     36 H36         1.1845   50.1736   19.9395 H         1 UNK         0.0000 
     37 H37         2.6367   49.2304   20.1749 H         1 UNK         0.0000 
     38 H38         2.2519   49.1144   22.4272 H         1 UNK         0.0000 
     39 H39        -1.4830   50.2500   24.0985 H         1 UNK         0.0000 
     40 H40        -0.7368   48.6141   23.9383 H         1 UNK         0.0000 
     41 H41        -1.8448   48.9658   26.1071 H         1 UNK         0.0000 
     42 H42        -0.1455   48.6437   26.3008 H         1 UNK         0.0000 
     43 H43        -1.4465   51.4491   26.4465 H         1 UNK         0.0000 
     44 H44        -0.7706   50.4990   27.7997 H         1 UNK         0.0000 
     45 H45         1.9254   51.9206   24.8301 H         1 UNK         0.0000 
     46 H46         0.1804   52.3488   24.6921 H         1 UNK         0.0000 
     47 H47         0.1905   53.2916   26.9161 H         1 UNK         0.0000 
     48 H48         0.5853   52.3014   28.3230 H         1 UNK         0.0000 
     49 H49         2.1130   54.1688   25.4464 H         1 UNK         0.0000 
     50 H50         4.4184   55.0224   25.4405 H         1 UNK         0.0000 
     51 H51         5.1466   53.1097   29.2073 H         1 UNK         0.0000 
     52 H52         2.8380   52.2383   29.2200 H         1 UNK         0.0000 
     53 H53         4.9036   56.1782   18.6365 H         1 UNK         0.0000 
     54 H54         5.3198   54.7418   17.7162 H         1 UNK         0.0000 
     55 H55         6.9768   56.5422   17.3523 H         1 UNK         0.0000 
     56 H56         7.6661   55.0517   17.8948 H         1 UNK         0.0000 
     57 H57         8.7222   56.8794   19.1596 H         1 UNK         0.0000 
     58 H58         7.1633   57.5864   19.5344 H         1 UNK         0.0000 
     59 H59         8.2341   54.9040   20.5792 H         1 UNK         0.0000 
     60 H60         7.9681   56.3469   21.5138 H         1 UNK         0.0000 
     61 H61         5.5059   56.2216   21.0575 H         1 UNK         0.0000 
     62 H62         6.1156   54.8057   21.8637 H         1 UNK         0.0000 
     63 H63         1.3869   50.6018   26.7620 H         1 UNK         0.0000 
@<TRIPOS>BOND
     1    1    6 ar   
     2    1    2 ar   
     3    1   32 1    
     4    2    3 ar   
     5    2   33 1    
     6    3    4 ar   
     7    3   26 1    
     8    4    5 ar   
     9    4   34 1    
    10    5    6 ar   
    11    5   35 1    
    12    6    7 1    
    13    7    8 1    
    14    7   36 1    
    15    7   37 1    
    16    8    9 am   BACKBONE|DICT|INTERRES
    17    8   38 1    
    18    9   10 2    
    19    9   11 1    
    20   11   12 1    
    21   11   17 1    
    22   11   13 1    
    23   13   14 1    
    24   13   39 1    
    25   13   40 1    
    26   14   15 1    
    27   14   41 1    
    28   14   42 1    
    29   15   16 1    
    30   15   43 1    
    31   15   44 1    
    32   16   17 1    
    33   16   18 1    
    34   16   63 1    
    35   17   45 1    
    36   17   46 1    
    37   18   19 1    
    38   18   47 1    
    39   18   48 1    
    40   19   24 ar   
    41   19   20 ar   
    42   20   21 ar   
    43   20   49 1    
    44   21   22 ar   
    45   21   50 1    
    46   22   23 ar   
    47   22   25 1    
    48   23   24 ar   
    49   23   51 1    
    50   24   52 1    
    51   26   31 1    
    52   26   27 1    
    53   27   28 1    
    54   27   53 1    
    55   27   54 1    
    56   28   29 1    
    57   28   55 1    
    58   28   56 1    
    59   29   30 1    
    60   29   57 1    
    61   29   58 1    
    62   30   31 1    
    63   30   59 1    
    64   30   60 1    
    65   31   61 1    
    66   31   62 1    
@<TRIPOS>SUBSTRUCTURE
     1 UNK         1 GROUP             0       ****    0 ROOT    
