@<TRIPOS>MOLECULE
ZINC44785203_1688
45   46    1
SMALL
USER_CHARGES


@<TRIPOS>ATOM
      1 C1          1.6383   53.2396   22.5714 C.3       1 UNK         0.0000 
      2 C2          0.7034   53.2189   23.7872 C.3       1 UNK         0.0000 
      3 H3          0.2979   54.2247   23.9136 H         1 UNK         0.0000 
      4 C4          1.4724   52.8053   25.0622 C.3       1 UNK         0.0000 
      5 N5          0.5517   52.4849   26.1828 N.am      1 UNK         0.0000 
      6 C6         -0.6484   51.6733   25.8110 C.3       1 UNK         0.0000 
      7 H7         -1.4152   51.7475   26.5848 H         1 UNK         0.0000 
      8 C8         -1.3063   52.2824   24.5547 C.3       1 UNK         0.0000 
      9 O9         -0.3735   52.3474   23.4941 O.3       1 UNK         0.0000 
     10 C10        -0.3416   50.1707   25.6474 C.3       1 UNK         0.0000 
     11 C11         0.8285   52.6144   27.5311 C.2       1 UNK         0.0000 
     12 O12         0.0077   52.1646   28.3411 O.2       1 UNK         0.0000 
     13 C13         2.0960   53.2972   28.2095 C.3       1 UNK         0.0000 
     14 C14         2.7482   52.1533   29.0847 C.3       1 UNK         0.0000 
     15 C15         4.0735   52.5510   29.7743 C.3       1 UNK         0.0000 
     16 C16         5.1044   53.1006   28.7741 C.3       1 UNK         0.0000 
     17 C17         4.5291   54.2445   27.9453 C.3       1 UNK         0.0000 
     18 C18         3.2335   53.8042   27.2420 C.3       1 UNK         0.0000 
     19 C19         1.5559   54.4707   29.1139 C.2       1 UNK         0.0000 
     20 N20         1.2230   54.2032   30.3175 N.2       1 UNK         0.0000 
     21 O21         0.7044   55.2941   31.0345 O.3       1 UNK         0.0000 
     22 N22         1.5046   55.6982   28.4817 N.pl3     1 UNK         0.0000 
     23 H23         2.4799   53.9168   22.7209 H         1 UNK         0.0000 
     24 H24         2.0367   52.2461   22.3604 H         1 UNK         0.0000 
     25 H25         1.1054   53.5726   21.6814 H         1 UNK         0.0000 
     26 H26         2.0559   53.7014   25.1970 H         1 UNK         0.0000 
     27 H27         2.1025   51.9425   24.8429 H         1 UNK         0.0000 
     28 H28        -1.6722   53.2873   24.7815 H         1 UNK         0.0000 
     29 H29        -2.1778   51.7037   24.2473 H         1 UNK         0.0000 
     30 H30        -1.2324   49.6240   25.3365 H         1 UNK         0.0000 
     31 H31         0.4195   49.9914   24.8875 H         1 UNK         0.0000 
     32 H32        -0.0141   49.7262   26.5887 H         1 UNK         0.0000 
     33 H33         2.9554   51.2967   28.4480 H         1 UNK         0.0000 
     34 H34         2.0612   51.7709   29.8453 H         1 UNK         0.0000 
     35 H35         4.4953   51.6959   30.3007 H         1 UNK         0.0000 
     36 H36         3.8795   53.2999   30.5421 H         1 UNK         0.0000 
     37 H37         5.4324   52.3022   28.1081 H         1 UNK         0.0000 
     38 H38         6.0031   53.4472   29.2802 H         1 UNK         0.0000 
     39 H39         5.2648   54.5684   27.2081 H         1 UNK         0.0000 
     40 H40         4.3459   55.1075   28.5864 H         1 UNK         0.0000 
     41 H41         2.9206   54.6569   26.6425 H         1 UNK         0.0000 
     42 H42         3.5269   53.0035   26.5605 H         1 UNK         0.0000 
     43 H43         0.7080   55.9957   30.3838 H         1 UNK         0.0000 
     44 H44         1.2304   56.5499   28.9426 H         1 UNK         0.0000 
     45 H45         1.7379   55.7532   27.5031 H         1 UNK         0.0000 
@<TRIPOS>BOND
     1    1    2 1    
     2    1   23 1    
     3    1   24 1    
     4    1   25 1    
     5    2    3 1    
     6    2    9 1    
     7    2    4 1    
     8    4    5 1    
     9    4   26 1    
    10    4   27 1    
    11    5    6 1    
    12    5   11 am   BACKBONE|DICT|INTERRES
    13    6    7 1    
    14    6    8 1    
    15    6   10 1    
    16    8    9 1    
    17    8   28 1    
    18    8   29 1    
    19   10   30 1    
    20   10   31 1    
    21   10   32 1    
    22   11   12 2    
    23   11   13 1    
    24   13   18 1    
    25   13   14 1    
    26   13   19 1    
    27   14   15 1    
    28   14   33 1    
    29   14   34 1    
    30   15   16 1    
    31   15   35 1    
    32   15   36 1    
    33   16   17 1    
    34   16   37 1    
    35   16   38 1    
    36   17   18 1    
    37   17   39 1    
    38   17   40 1    
    39   18   41 1    
    40   18   42 1    
    41   19   20 2    
    42   19   22 1    
    43   20   21 1    
    44   21   43 1    
    45   22   44 1    
    46   22   45 1    
@<TRIPOS>SUBSTRUCTURE
     1 UNK         1 GROUP             0       ****    0 ROOT    
