@<TRIPOS>MOLECULE
ZINC01877748_2983
62   65    1
SMALL
USER_CHARGES


@<TRIPOS>ATOM
      1 C1         -0.2481   50.9162   26.6440 C.3       1 UNK         0.0000 
      2 C2          0.0358   50.8694   25.1532 C.ar      1 UNK         0.0000 
      3 C3          0.4019   49.6594   24.5609 C.ar      1 UNK         0.0000 
      4 C4          0.6756   49.6091   23.1965 C.ar      1 UNK         0.0000 
      5 C5          0.5775   50.7674   22.4229 C.ar      1 UNK         0.0000 
      6 C6          0.2146   51.9808   23.0152 C.ar      1 UNK         0.0000 
      7 C7         -0.0560   52.0302   24.3808 C.ar      1 UNK         0.0000 
      8 S8          0.9500   50.6970   20.6637 S.o2      1 UNK         0.0000 
      9 O9          0.4836   49.3904   20.1864 O.2       1 UNK         0.0000 
     10 O10         0.4249   51.9281   20.0637 O.2       1 UNK         0.0000 
     11 C11         2.8476   50.7221   20.5630 C.3       1 UNK         0.0000 
     12 N12         3.3076   51.6530   21.5837 N.2       1 UNK         0.0000 
     13 C13         4.2256   52.5321   21.4261 C.2       1 UNK         0.0000 
     14 C14         4.5420   53.4047   22.5871 C.ar      1 UNK         0.0000 
     15 C15         3.4893   53.8631   23.3990 C.ar      1 UNK         0.0000 
     16 C16         3.7377   54.4961   24.6119 C.ar      1 UNK         0.0000 
     17 C17         5.0483   54.7476   25.0070 C.ar      1 UNK         0.0000 
     18 C18         6.1093   54.3456   24.2045 C.ar      1 UNK         0.0000 
     19 C19         5.8540   53.6632   23.0187 C.ar      1 UNK         0.0000 
     20 N20         4.9678   52.5787   20.2077 N.pl3     1 UNK         0.0000 
     21 C21         5.6765   53.4499   19.4629 C.2       1 UNK         0.0000 
     22 S22         5.9031   55.1697   19.8863 S.3       1 UNK         0.0000 
     23 N23         6.2398   52.8993   18.3659 N.pl3     1 UNK         0.0000 
     24 N24         6.4749   53.6027   17.1569 N.pl3     1 UNK         0.0000 
     25 C25         5.3355   53.9787   16.4006 C.ar      1 UNK         0.0000 
     26 C26         5.3853   55.1033   15.5626 C.ar      1 UNK         0.0000 
     27 C27         4.2757   55.4965   14.8230 C.ar      1 UNK         0.0000 
     28 C28         3.0939   54.7699   14.9193 C.ar      1 UNK         0.0000 
     29 C29         3.0133   53.6592   15.7533 C.ar      1 UNK         0.0000 
     30 C30         4.1263   53.2698   16.4903 C.ar      1 UNK         0.0000 
     31 C31         7.8251   53.7253   16.7436 C.ar      1 UNK         0.0000 
     32 C32         8.8577   53.8834   17.6810 C.ar      1 UNK         0.0000 
     33 C33        10.1836   54.0174   17.2784 C.ar      1 UNK         0.0000 
     34 C34        10.4967   53.9785   15.9234 C.ar      1 UNK         0.0000 
     35 C35         9.4946   53.8075   14.9737 C.ar      1 UNK         0.0000 
     36 C36         8.1686   53.6816   15.3835 C.ar      1 UNK         0.0000 
     37 H37        -0.3910   51.9346   27.0075 H         1 UNK         0.0000 
     38 H38         0.5825   50.4789   27.1984 H         1 UNK         0.0000 
     39 H39        -1.1373   50.3304   26.8809 H         1 UNK         0.0000 
     40 H40         0.4851   48.7612   25.1586 H         1 UNK         0.0000 
     41 H41         0.9693   48.6733   22.7467 H         1 UNK         0.0000 
     42 H42         0.1566   52.8868   22.4266 H         1 UNK         0.0000 
     43 H43        -0.3319   52.9697   24.8363 H         1 UNK         0.0000 
     44 H44         3.1766   49.7058   20.7693 H         1 UNK         0.0000 
     45 H45         3.1136   50.9780   19.5355 H         1 UNK         0.0000 
     46 H46         2.4626   53.6792   23.1192 H         1 UNK         0.0000 
     47 H47         2.9143   54.8089   25.2352 H         1 UNK         0.0000 
     48 H48         5.2414   55.2527   25.9422 H         1 UNK         0.0000 
     49 H49         7.1286   54.5250   24.5142 H         1 UNK         0.0000 
     50 H50         6.7044   53.2913   22.4821 H         1 UNK         0.0000 
     51 H51         6.0765   51.8989   18.2557 H         1 UNK         0.0000 
     52 H52         6.2879   55.6905   15.4943 H         1 UNK         0.0000 
     53 H53         4.3292   56.3668   14.1865 H         1 UNK         0.0000 
     54 H54         2.2320   55.0757   14.3486 H         1 UNK         0.0000 
     55 H55         2.0941   53.0982   15.8283 H         1 UNK         0.0000 
     56 H56         4.0429   52.3956   17.1209 H         1 UNK         0.0000 
     57 H57         8.6377   53.9175   18.7371 H         1 UNK         0.0000 
     58 H58        10.9620   54.1483   18.0152 H         1 UNK         0.0000 
     59 H59        11.5253   54.0748   15.6077 H         1 UNK         0.0000 
     60 H60         9.7441   53.7685   13.9229 H         1 UNK         0.0000 
     61 H61         7.4080   53.5352   14.6316 H         1 UNK         0.0000 
     62 H62         4.8237   51.7073   19.7165 H         1 UNK         0.0000 
@<TRIPOS>BOND
     1    1    2 1    
     2    1   37 1    
     3    1   38 1    
     4    1   39 1    
     5    2    7 ar   
     6    2    3 ar   
     7    3    4 ar   
     8    3   40 1    
     9    4    5 ar   
    10    4   41 1    
    11    5    6 ar   
    12    5    8 1    
    13    6    7 ar   
    14    6   42 1    
    15    7   43 1    
    16    8    9 2    
    17    8   10 2    
    18    8   11 1    
    19   11   12 1    
    20   11   44 1    
    21   11   45 1    
    22   12   13 2    
    23   13   14 1    
    24   13   20 1    
    25   14   19 ar   
    26   14   15 ar   
    27   15   16 ar   
    28   15   46 1    
    29   16   17 ar   
    30   16   47 1    
    31   17   18 ar   
    32   17   48 1    
    33   18   19 ar   
    34   18   49 1    
    35   19   50 1    
    36   20   21 2    
    37   20   62 1    
    38   21   22 1    
    39   21   23 1    
    40   23   24 1    
    41   23   51 1    
    42   24   25 1    
    43   24   31 1    
    44   25   30 ar   
    45   25   26 ar   
    46   26   27 ar   
    47   26   52 1    
    48   27   28 ar   
    49   27   53 1    
    50   28   29 ar   
    51   28   54 1    
    52   29   30 ar   
    53   29   55 1    
    54   30   56 1    
    55   31   36 ar   
    56   31   32 ar   
    57   32   33 ar   
    58   32   57 1    
    59   33   34 ar   
    60   33   58 1    
    61   34   35 ar   
    62   34   59 1    
    63   35   36 ar   
    64   35   60 1    
    65   36   61 1    
@<TRIPOS>SUBSTRUCTURE
     1 UNK         1 GROUP             0       ****    0 ROOT    
