@<TRIPOS>MOLECULE
ZINC33063261_2722
62   66    1
SMALL
USER_CHARGES


@<TRIPOS>ATOM
      1 C1         -0.9991   51.2969   29.0379 C.3       1 UNK         0.0000 
      2 C2         -0.0516   52.4619   29.2051 C.ar      1 UNK         0.0000 
      3 C3         -0.0956   53.2349   30.3627 C.ar      1 UNK         0.0000 
      4 C4          0.7140   54.3578   30.4821 C.ar      1 UNK         0.0000 
      5 C5          1.6263   54.6785   29.4744 C.ar      1 UNK         0.0000 
      6 C6          1.7404   53.8525   28.3371 C.ar      1 UNK         0.0000 
      7 C7          0.8837   52.7526   28.2123 C.ar      1 UNK         0.0000 
      8 N8          2.7613   54.0489   27.4182 N.pl3     1 UNK         0.0000 
      9 C9          2.5579   53.8893   25.9778 C.3       1 UNK         0.0000 
     10 C10         3.6069   54.6469   25.1375 C.3       1 UNK         0.0000 
     11 N11         4.9652   54.2279   25.5331 N.am      1 UNK         0.0000 
     12 C12         5.2547   54.2331   26.9852 C.3       1 UNK         0.0000 
     13 C13         4.1050   53.5948   27.7888 C.3       1 UNK         0.0000 
     14 C14         6.0194   54.5443   24.7251 C.2       1 UNK         0.0000 
     15 O15         7.1044   54.9007   25.1957 O.2       1 UNK         0.0000 
     16 C16         5.8885   54.4819   23.2095 C.ar      1 UNK         0.0000 
     17 C17         5.0119   53.6026   22.5563 C.ar      1 UNK         0.0000 
     18 C18         4.9111   53.5929   21.1662 C.ar      1 UNK         0.0000 
     19 C19         5.7064   54.4475   20.3917 C.ar      1 UNK         0.0000 
     20 C20         6.6039   55.3015   21.0373 C.ar      1 UNK         0.0000 
     21 C21         6.7046   55.3028   22.4237 C.ar      1 UNK         0.0000 
     22 C22         5.6797   54.4303   18.8583 C.3       1 UNK         0.0000 
     23 H23         5.4985   55.4788   18.6123 H         1 UNK         0.0000 
     24 N24         6.9937   54.0969   18.3001 N.pl3     1 UNK         0.0000 
     25 C25         7.1459   53.4426   17.0627 C.ar      1 UNK         0.0000 
     26 C26         8.3909   52.8798   16.7711 C.ar      1 UNK         0.0000 
     27 C27         8.5735   52.1320   15.6081 C.ar      1 UNK         0.0000 
     28 C28         7.5050   51.9278   14.7362 C.ar      1 UNK         0.0000 
     29 C29         6.2514   52.4635   15.0302 C.ar      1 UNK         0.0000 
     30 C30         6.0673   53.2204   16.1905 C.ar      1 UNK         0.0000 
     31 S31         4.4574   53.8905   16.5414 S.o2      1 UNK         0.0000 
     32 O32         3.4249   53.0150   15.9778 O.2       1 UNK         0.0000 
     33 O33         4.4583   55.3190   16.2090 O.2       1 UNK         0.0000 
     34 N34         4.5378   53.6961   18.2730 N.pl3     1 UNK         0.0000 
     35 C35         2.4462   55.9524   29.6151 C.3       1 UNK         0.0000 
     36 H36        -0.5131   50.4967   28.4808 H         1 UNK         0.0000 
     37 H37        -1.2961   50.8967   30.0076 H         1 UNK         0.0000 
     38 H38        -1.8940   51.5980   28.4936 H         1 UNK         0.0000 
     39 H39        -0.7834   52.9797   31.1579 H         1 UNK         0.0000 
     40 H40         0.6317   54.9750   31.3658 H         1 UNK         0.0000 
     41 H41         0.9537   52.1084   27.3479 H         1 UNK         0.0000 
     42 H42         2.6350   52.8255   25.7461 H         1 UNK         0.0000 
     43 H43         1.5483   54.1937   25.7026 H         1 UNK         0.0000 
     44 H44         3.3482   54.4605   24.0992 H         1 UNK         0.0000 
     45 H45         3.4757   55.6963   25.3919 H         1 UNK         0.0000 
     46 H46         5.3073   55.2626   27.3430 H         1 UNK         0.0000 
     47 H47         6.1501   53.6587   27.2312 H         1 UNK         0.0000 
     48 H48         4.2838   53.7137   28.8580 H         1 UNK         0.0000 
     49 H49         4.1180   52.5229   27.5800 H         1 UNK         0.0000 
     50 H50         4.4039   52.9072   23.1141 H         1 UNK         0.0000 
     51 H51         4.2234   52.9017   20.7014 H         1 UNK         0.0000 
     52 H52         7.2423   55.9551   20.4609 H         1 UNK         0.0000 
     53 H53         7.4231   55.9661   22.8864 H         1 UNK         0.0000 
     54 H54         7.7843   54.2818   18.8977 H         1 UNK         0.0000 
     55 H55         9.2215   53.0067   17.4507 H         1 UNK         0.0000 
     56 H56         9.5394   51.7002   15.3900 H         1 UNK         0.0000 
     57 H57         7.6443   51.3412   13.8401 H         1 UNK         0.0000 
     58 H58         5.4237   52.2867   14.3581 H         1 UNK         0.0000 
     59 H59         4.4944   52.7121   18.5548 H         1 UNK         0.0000 
     60 H60         3.5056   55.7106   29.6812 H         1 UNK         0.0000 
     61 H61         2.3042   56.5758   28.7320 H         1 UNK         0.0000 
     62 H62         2.1565   56.5488   30.4811 H         1 UNK         0.0000 
@<TRIPOS>BOND
     1    1    2 1    
     2    1   36 1    
     3    1   37 1    
     4    1   38 1    
     5    2    7 ar   
     6    2    3 ar   
     7    3    4 ar   
     8    3   39 1    
     9    4    5 ar   
    10    4   40 1    
    11    5    6 ar   
    12    5   35 1    
    13    6    7 ar   
    14    6    8 1    
    15    7   41 1    
    16    8   13 1    
    17    8    9 1    
    18    9   10 1    
    19    9   42 1    
    20    9   43 1    
    21   10   11 1    
    22   10   44 1    
    23   10   45 1    
    24   11   12 1    
    25   11   14 am   BACKBONE|DICT|INTERRES
    26   12   13 1    
    27   12   46 1    
    28   12   47 1    
    29   13   48 1    
    30   13   49 1    
    31   14   15 2    
    32   14   16 1    
    33   16   21 ar   
    34   16   17 ar   
    35   17   18 ar   
    36   17   50 1    
    37   18   19 ar   
    38   18   51 1    
    39   19   20 ar   
    40   19   22 1    
    41   20   21 ar   
    42   20   52 1    
    43   21   53 1    
    44   22   23 1    
    45   22   34 1    
    46   22   24 1    
    47   24   25 1    
    48   24   54 1    
    49   25   30 ar   
    50   25   26 ar   
    51   26   27 ar   
    52   26   55 1    
    53   27   28 ar   
    54   27   56 1    
    55   28   29 ar   
    56   28   57 1    
    57   29   30 ar   
    58   29   58 1    
    59   30   31 1    
    60   31   32 2    
    61   31   33 2    
    62   31   34 1    
    63   34   59 1    
    64   35   60 1    
    65   35   61 1    
    66   35   62 1    
@<TRIPOS>SUBSTRUCTURE
     1 UNK         1 GROUP             0       ****    0 ROOT    
