ZINC66758505_1506
                    3D
 Schrodinger Suite 2024-2.
 43 47  0  0  1  0            999 V2000
    3.1278   53.6971   24.8735 C   0  0  0  0  0  0
    4.5633   54.0974   25.2082 C   0  0  0  0  0  0
    5.6775   54.4056   24.4083 C   0  0  0  0  0  0
    6.7032   54.7148   25.1913 N   0  0  0  0  0  0
    6.3280   54.5521   26.5086 N   0  0  0  0  0  0
    5.0452   54.1684   26.5022 N   0  0  0  0  0  0
    4.3864   53.8118   27.6995 C   0  0  0  0  0  0
    4.9935   52.9123   28.5783 C   0  0  0  0  0  0
    4.3046   52.4139   29.6818 C   0  0  0  0  0  0
    2.9711   52.8083   29.9235 C   0  0  0  0  0  0
    2.3579   53.7560   29.0492 C   0  0  0  0  0  0
    3.0897   54.2666   27.9526 C   0  0  0  0  0  0
    1.0147   54.1189   29.3023 C   0  0  0  0  0  0
    0.3425   53.5344   30.3721 C   0  0  0  0  0  0
    1.0122   52.6189   31.1780 C   0  0  0  0  0  0
    2.3032   52.2560   30.9752 N   0  0  0  0  0  0
    5.7186   54.3166   22.9639 C   0  0  0  0  0  0
    4.8646   53.6787   22.3480 O   0  0  0  0  0  0
    6.7177   55.0101   22.3751 N   0  0  0  0  0  0
    6.8652   55.3119   21.0067 C   0  0  0  0  0  0
    5.8005   55.2975   20.0876 C   0  0  0  0  0  0
    5.9572   55.6656   18.7518 C   0  0  0  0  0  0
    7.2306   56.0800   18.3626 C   0  0  0  0  0  0
    8.3238   56.1075   19.2592 C   0  0  0  0  0  0
    8.1404   55.7011   20.5901 C   0  0  0  0  0  0
    9.4008   56.6115   18.4720 C   0  0  0  0  0  0
    9.0329   56.8513   17.2408 N   0  0  0  0  0  0
    7.7291   56.5346   17.1587 N   0  0  0  0  0  0
    7.2303   56.6510   16.2893 H   0  0  0  0  0  0
    2.4626   54.5587   24.8559 H   0  0  0  0  0  0
    3.0311   53.2114   23.9032 H   0  0  0  0  0  0
    2.7145   52.9816   25.5855 H   0  0  0  0  0  0
    5.9925   52.5534   28.3753 H   0  0  0  0  0  0
    4.7745   51.6990   30.3409 H   0  0  0  0  0  0
    2.6094   54.9637   27.2826 H   0  0  0  0  0  0
    0.5154   54.8209   28.6513 H   0  0  0  0  0  0
   -0.6894   53.7735   30.5617 H   0  0  0  0  0  0
    0.5016   52.1493   32.0099 H   0  0  0  0  0  0
    7.4324   55.3764   22.9870 H   0  0  0  0  0  0
    4.8047   55.0165   20.3947 H   0  0  0  0  0  0
    5.1227   55.6496   18.0658 H   0  0  0  0  0  0
    8.9702   55.7229   21.2822 H   0  0  0  0  0  0
   10.4128   56.8033   18.7896 H   0  0  0  0  0  0
  1  2  1  0  0  0
  1 30  1  0  0  0
  1 31  1  0  0  0
  1 32  1  0  0  0
  2  6  1  0  0  0
  2  3  2  0  0  0
  3  4  1  0  0  0
  3 17  1  0  0  0
  4  5  2  0  0  0
  5  6  1  0  0  0
  6  7  1  0  0  0
  7 12  2  0  0  0
  7  8  1  0  0  0
  8  9  2  0  0  0
  8 33  1  0  0  0
  9 10  1  0  0  0
  9 34  1  0  0  0
 10 16  2  0  0  0
 10 11  1  0  0  0
 11 12  1  0  0  0
 11 13  2  0  0  0
 12 35  1  0  0  0
 13 14  1  0  0  0
 13 36  1  0  0  0
 14 15  2  0  0  0
 14 37  1  0  0  0
 15 16  1  0  0  0
 15 38  1  0  0  0
 17 18  2  0  0  0
 17 19  1  0  0  0
 19 20  1  0  0  0
 19 39  1  0  0  0
 20 25  2  0  0  0
 20 21  1  0  0  0
 21 22  2  0  0  0
 21 40  1  0  0  0
 22 23  1  0  0  0
 22 41  1  0  0  0
 23 28  1  0  0  0
 23 24  2  0  0  0
 24 25  1  0  0  0
 24 26  1  0  0  0
 25 42  1  0  0  0
 26 27  2  0  0  0
 26 43  1  0  0  0
 27 28  1  0  0  0
 28 29  1  0  0  0
M  END
> <i_i_glide_confnum>
13

> <i_i_glide_lignum>
1507

> <i_i_glide_posenum>
191

> <i_i_glide_rotatable_bonds>
4

> <i_m_Source_File_Index>
2472

> <b_m_subgroup_collapsed>
0

> <r_i_docking_score>
-7.24945

> <r_i_glide_ecoul>
-4.49826

> <r_i_glide_eff_state_penalty>
0

> <r_i_glide_einternal>
4.77513

> <r_i_glide_emodel>
-69.8738

> <r_i_glide_energy>
-51.572

> <r_i_glide_erotb>
0.565235

> <r_i_glide_esite>
0

> <r_i_glide_evdw>
-47.0738

> <r_i_glide_gscore>
-7.24945

> <r_i_glide_hbond>
-0.280465

> <r_i_glide_ligand_efficiency>
-0.258909

> <r_i_glide_ligand_efficiency_ln>
-1.67339

> <r_i_glide_ligand_efficiency_sa>
-0.7862

> <r_i_glide_lipo>
-2.89277

> <r_i_glide_metal>
0

> <r_i_glide_rewards>
-1.61302

> <s_i_glide_gridfile>
wee1_glide-grid

> <s_m_Source_File>
wee1_decoys_glide_SP.sdf

> <s_m_Source_Path>
/Users/zhangxujun/Desktop

> <s_m_entry_id>
2747

> <s_m_entry_name>
wee1_decoys_glide_SP.2472

> <s_m_subgroup_title>
wee1_decoys_glide_SP

> <s_m_subgroupid>
wee1_decoys_glide_SP


$$$$
