@<TRIPOS>MOLECULE
ZINC39466763_5347
58   62    1
SMALL
USER_CHARGES


@<TRIPOS>ATOM
      1 C1          4.8727   53.9979   28.2688 C.ar      1 UNK         0.0000 
      2 C2          4.0343   53.6937   27.2045 C.ar      1 UNK         0.0000 
      3 C3          4.5384   53.6970   25.9060 C.ar      1 UNK         0.0000 
      4 C4          5.8695   54.0626   25.6486 C.ar      1 UNK         0.0000 
      5 C5          6.7037   54.3275   26.7387 C.ar      1 UNK         0.0000 
      6 C6          6.2103   54.2919   28.0393 C.ar      1 UNK         0.0000 
      7 C7          6.4817   54.1137   24.2345 C.3       1 UNK         0.0000 
      8 P8          5.4107   54.3199   22.7303 P.3       1 UNK         0.0000 
      9 O9          5.9042   55.2923   21.7174 O.2       1 UNK         0.0000 
     10 N10         5.0788   52.7955   22.0817 N.pl3     1 UNK         0.0000 
     11 N11         3.7972   52.5277   21.4129 N.4       1 UNK         0.0000 
     12 C12         3.7262   51.0921   20.8821 C.3       1 UNK         0.0000 
     13 C13         2.3859   50.7682   20.1768 C.3       1 UNK         0.0000 
     14 H14         2.3708   49.6825   20.0524 H         1 UNK         0.0000 
     15 C15         2.3032   51.2997   18.7400 C.2       1 UNK         0.0000 
     16 C16         1.1377   51.6236   18.1422 C.2       1 UNK         0.0000 
     17 C17        -0.1211   51.4049   18.8431 C.2       1 UNK         0.0000 
     18 C18        -0.1341   51.1323   20.1642 C.2       1 UNK         0.0000 
     19 C19         1.1248   51.1499   21.0400 C.3       1 UNK         0.0000 
     20 H20         1.0600   50.4057   21.8370 H         1 UNK         0.0000 
     21 C21         1.2581   52.5545   21.6625 C.3       1 UNK         0.0000 
     22 C22         2.6076   52.8820   22.3341 C.3       1 UNK         0.0000 
     23 H23         2.7310   52.2707   23.2300 H         1 UNK         0.0000 
     24 C24         2.7332   54.3813   22.6645 C.3       1 UNK         0.0000 
     25 O25         3.9389   54.6941   23.3293 O.3       1 UNK         0.0000 
     26 F26        -1.2977   51.4019   18.1798 F         1 UNK         0.0000 
     27 S27         1.1569   52.2658   16.4403 S.3       1 UNK         0.0000 
     28 O28         1.9685   51.3794   15.5992 O.2       1 UNK         0.0000 
     29 O29        -0.2103   52.6136   16.0376 O.2       1 UNK         0.0000 
     30 O30         1.9810   53.7139   16.6836 O.3       1 UNK         0.0000 
     31 C31         3.3367   53.7220   16.9079 C.ar      1 UNK         0.0000 
     32 C32         4.2378   53.2899   15.9290 C.ar      1 UNK         0.0000 
     33 C33         5.6064   53.2974   16.1890 C.ar      1 UNK         0.0000 
     34 C34         6.0714   53.7596   17.4180 C.ar      1 UNK         0.0000 
     35 C35         5.1794   54.2196   18.3864 C.ar      1 UNK         0.0000 
     36 C36         3.8123   54.2049   18.1280 C.ar      1 UNK         0.0000 
     37 H37         4.4909   53.9800   29.2786 H         1 UNK         0.0000 
     38 H38         3.0056   53.4201   27.3873 H         1 UNK         0.0000 
     39 H39         3.8766   53.3704   25.1255 H         1 UNK         0.0000 
     40 H40         7.7502   54.5271   26.5860 H         1 UNK         0.0000 
     41 H41         6.8609   54.4962   28.8756 H         1 UNK         0.0000 
     42 H42         7.1133   55.0020   24.2266 H         1 UNK         0.0000 
     43 H43         7.1833   53.2965   24.0908 H         1 UNK         0.0000 
     44 H44         5.7462   52.0386   22.2207 H         1 UNK         0.0000 
     45 H45         4.5823   50.9756   20.2158 H         1 UNK         0.0000 
     46 H46         3.8801   50.4847   21.7662 H         1 UNK         0.0000 
     47 H47         3.2213   51.3867   18.1713 H         1 UNK         0.0000 
     48 H48        -1.0913   50.9485   20.6315 H         1 UNK         0.0000 
     49 H49         1.0885   53.2961   20.8807 H         1 UNK         0.0000 
     50 H50         0.4566   52.6920   22.3913 H         1 UNK         0.0000 
     51 H51         2.7043   54.9768   21.7549 H         1 UNK         0.0000 
     52 H52         1.9038   54.7125   23.2903 H         1 UNK         0.0000 
     53 H53         3.8780   52.9342   14.9755 H         1 UNK         0.0000 
     54 H54         6.3039   52.9473   15.4410 H         1 UNK         0.0000 
     55 H55         7.1328   53.7681   17.6198 H         1 UNK         0.0000 
     56 H56         5.5519   54.5932   19.3267 H         1 UNK         0.0000 
     57 H57         3.1145   54.5622   18.8727 H         1 UNK         0.0000 
     58 H58         3.7722   53.1513   20.6180 H         1 UNK         0.0000 
@<TRIPOS>BOND
     1    1    6 ar   
     2    1    2 ar   
     3    1   37 1    
     4    2    3 ar   
     5    2   38 1    
     6    3    4 ar   
     7    3   39 1    
     8    4    5 ar   
     9    4    7 1    
    10    5    6 ar   
    11    5   40 1    
    12    6   41 1    
    13    7    8 1    
    14    7   42 1    
    15    7   43 1    
    16    8   25 1    
    17    8    9 2    
    18    8   10 1    
    19   10   11 1    
    20   10   44 1    
    21   11   22 1    
    22   11   12 1    
    23   11   58 1    
    24   12   13 1    
    25   12   45 1    
    26   12   46 1    
    27   13   14 1    
    28   13   19 1    
    29   13   15 1    
    30   15   16 2    
    31   15   47 1    
    32   16   17 1    
    33   16   27 1    
    34   17   18 2    
    35   17   26 1    
    36   18   19 1    
    37   18   48 1    
    38   19   20 1    
    39   19   21 1    
    40   21   22 1    
    41   21   49 1    
    42   21   50 1    
    43   22   23 1    
    44   22   24 1    
    45   24   25 1    
    46   24   51 1    
    47   24   52 1    
    48   27   28 2    
    49   27   29 2    
    50   27   30 1    
    51   30   31 1    
    52   31   36 ar   
    53   31   32 ar   
    54   32   33 ar   
    55   32   53 1    
    56   33   34 ar   
    57   33   54 1    
    58   34   35 ar   
    59   34   55 1    
    60   35   36 ar   
    61   35   56 1    
    62   36   57 1    
@<TRIPOS>SUBSTRUCTURE
     1 UNK         1 GROUP             0       ****    0 ROOT    
