@<TRIPOS>MOLECULE
ZINC63467762_5267
57   61    1
SMALL
USER_CHARGES


@<TRIPOS>ATOM
      1 C1          7.1045   54.4347   24.8928 C.3       1 UNK         0.0000 
      2 N2          5.7946   54.0967   25.4729 N.am      1 UNK         0.0000 
      3 C3          4.7177   54.0034   24.5436 C.ar      1 UNK         0.0000 
      4 C4          4.9306   53.6970   23.1859 C.ar      1 UNK         0.0000 
      5 C5          3.8627   53.5216   22.2917 C.ar      1 UNK         0.0000 
      6 C6          2.5590   53.7484   22.7530 C.ar      1 UNK         0.0000 
      7 C7          2.3317   54.0761   24.0879 C.ar      1 UNK         0.0000 
      8 C8          3.3998   54.1669   24.9803 C.ar      1 UNK         0.0000 
      9 S9          3.1045   54.4947   26.6789 S.3       1 UNK         0.0000 
     10 C10         4.4328   53.5525   27.3885 C.2       1 UNK         0.0000 
     11 C11         4.2524   52.7001   28.4293 C.2       1 UNK         0.0000 
     12 C12         2.9473   52.4049   29.0796 C.ar      1 UNK         0.0000 
     13 C13         1.8023   52.1099   28.3218 C.ar      1 UNK         0.0000 
     14 C14         0.5511   51.9907   28.9270 C.ar      1 UNK         0.0000 
     15 C15         0.4271   52.1559   30.3041 C.ar      1 UNK         0.0000 
     16 C16         1.5621   52.3954   31.0765 C.ar      1 UNK         0.0000 
     17 C17         2.8160   52.4968   30.4702 C.ar      1 UNK         0.0000 
     18 F18         3.9044   52.6806   31.2457 F         1 UNK         0.0000 
     19 C19         5.7573   53.8083   26.8201 C.2       1 UNK         0.0000 
     20 O20         6.7634   53.7978   27.5368 O.2       1 UNK         0.0000 
     21 C21         4.1305   52.9815   20.9059 C.2       1 UNK         0.0000 
     22 O22         5.1048   52.2576   20.7124 O.2       1 UNK         0.0000 
     23 N23         3.2620   53.2967   19.9283 N.am      1 UNK         0.0000 
     24 C24         3.3156   52.7449   18.5730 C.3       1 UNK         0.0000 
     25 C25         4.3526   53.4211   17.6536 C.3       1 UNK         0.0000 
     26 C26         4.1625   54.9142   17.4226 C.2       1 UNK         0.0000 
     27 C27         5.0018   55.9496   17.6120 C.2       1 UNK         0.0000 
     28 C28         6.3780   55.9865   18.1291 C.2       1 UNK         0.0000 
     29 C29         7.0509   57.1517   18.2101 C.2       1 UNK         0.0000 
     30 C30         6.3776   58.3640   17.7632 C.2       1 UNK         0.0000 
     31 C31         5.1082   58.3526   17.2815 C.2       1 UNK         0.0000 
     32 C32         4.3979   57.1458   17.2013 C.2       1 UNK         0.0000 
     33 N33         3.1797   56.9216   16.7726 N.pl3     1 UNK         0.0000 
     34 C34         2.8748   55.4810   16.8572 C.3       1 UNK         0.0000 
     35 H35         7.0006   55.1612   24.0861 H         1 UNK         0.0000 
     36 H36         7.7793   54.8868   25.6160 H         1 UNK         0.0000 
     37 H37         7.5809   53.5436   24.4817 H         1 UNK         0.0000 
     38 H38         5.9333   53.5067   22.8312 H         1 UNK         0.0000 
     39 H39         1.7097   53.6258   22.0960 H         1 UNK         0.0000 
     40 H40         1.3197   54.2188   24.4388 H         1 UNK         0.0000 
     41 H41         5.1042   52.1762   28.8418 H         1 UNK         0.0000 
     42 H42         1.8740   51.9984   27.2495 H         1 UNK         0.0000 
     43 H43        -0.3215   51.7713   28.3284 H         1 UNK         0.0000 
     44 H44        -0.5385   52.0605   30.7823 H         1 UNK         0.0000 
     45 H45         1.4673   52.4824   32.1498 H         1 UNK         0.0000 
     46 H46         2.5311   53.9790   20.1068 H         1 UNK         0.0000 
     47 H47         3.5002   51.6678   18.6090 H         1 UNK         0.0000 
     48 H48         2.3216   52.8586   18.1404 H         1 UNK         0.0000 
     49 H49         5.3554   53.2239   18.0382 H         1 UNK         0.0000 
     50 H50         4.3222   52.9316   16.6788 H         1 UNK         0.0000 
     51 H51         6.8828   55.0877   18.4554 H         1 UNK         0.0000 
     52 H52         8.0649   57.1840   18.5819 H         1 UNK         0.0000 
     53 H53         6.9070   59.3026   17.8081 H         1 UNK         0.0000 
     54 H54         4.6734   59.2954   16.9614 H         1 UNK         0.0000 
     55 H55         2.6433   55.1222   15.8534 H         1 UNK         0.0000 
     56 H56         2.0118   55.3520   17.5110 H         1 UNK         0.0000 
     57 H57         2.5399   57.6308   16.4227 H         1 UNK         0.0000 
@<TRIPOS>BOND
     1    1    2 1    
     2    1   35 1    
     3    1   36 1    
     4    1   37 1    
     5    2   19 am   BACKBONE|DICT|INTERRES
     6    2    3 1    
     7    3    8 ar   
     8    3    4 ar   
     9    4    5 ar   
    10    4   38 1    
    11    5    6 ar   
    12    5   21 1    
    13    6    7 ar   
    14    6   39 1    
    15    7    8 ar   
    16    7   40 1    
    17    8    9 1    
    18    9   10 1    
    19   10   11 2    
    20   10   19 1    
    21   11   12 1    
    22   11   41 1    
    23   12   17 ar   
    24   12   13 ar   
    25   13   14 ar   
    26   13   42 1    
    27   14   15 ar   
    28   14   43 1    
    29   15   16 ar   
    30   15   44 1    
    31   16   17 ar   
    32   16   45 1    
    33   17   18 1    
    34   19   20 2    
    35   21   22 2    
    36   21   23 am   BACKBONE|DICT|INTERRES
    37   23   24 1    
    38   23   46 1    
    39   24   25 1    
    40   24   47 1    
    41   24   48 1    
    42   25   26 1    
    43   25   49 1    
    44   25   50 1    
    45   26   34 1    
    46   26   27 2    
    47   27   32 1    
    48   27   28 1    
    49   28   29 2    
    50   28   51 1    
    51   29   30 1    
    52   29   52 1    
    53   30   31 2    
    54   30   53 1    
    55   31   32 1    
    56   31   54 1    
    57   32   33 2    
    58   33   34 1    
    59   33   57 1    
    60   34   55 1    
    61   34   56 1    
@<TRIPOS>SUBSTRUCTURE
     1 UNK         1 GROUP             0       ****    0 ROOT    
