@<TRIPOS>MOLECULE
ZINC09435604_2802
51   55    1
SMALL
USER_CHARGES


@<TRIPOS>ATOM
      1 C1          8.4388   56.0865   18.8058 C.ar      1 UNK         0.0000 
      2 C2          9.1123   57.2616   18.4817 C.ar      1 UNK         0.0000 
      3 C3          8.3888   58.4153   18.1871 C.ar      1 UNK         0.0000 
      4 C4          6.9957   58.4011   18.2152 C.ar      1 UNK         0.0000 
      5 C5          6.3182   57.2261   18.5362 C.ar      1 UNK         0.0000 
      6 C6          7.0402   56.0678   18.8363 C.ar      1 UNK         0.0000 
      7 C7          6.3066   54.7584   19.1136 C.3       1 UNK         0.0000 
      8 N8          5.6476   54.6195   20.4160 N.am      1 UNK         0.0000 
      9 C9          6.1624   54.8966   21.6317 C.2       1 UNK         0.0000 
     10 O10         7.2512   55.4449   21.8061 O.2       1 UNK         0.0000 
     11 C11         5.3357   54.4799   22.7496 C.ar      1 UNK         0.0000 
     12 C12         5.6129   54.7406   24.1050 C.ar      1 UNK         0.0000 
     13 C13         4.5404   54.2516   24.8268 C.ar      1 UNK         0.0000 
     14 N14         3.6880   53.6996   23.8889 N.pl3     1 UNK         0.0000 
     15 N15         4.2135   53.7916   22.6547 N.2       1 UNK         0.0000 
     16 C16         2.4543   52.9464   24.1643 C.3       1 UNK         0.0000 
     17 H17         2.7039   51.8897   24.2021 H         1 UNK         0.0000 
     18 C18         1.9744   53.3619   25.5669 C.3       1 UNK         0.0000 
     19 C19         3.0901   53.4771   26.6306 C.3       1 UNK         0.0000 
     20 H20         3.5243   52.4968   26.8192 H         1 UNK         0.0000 
     21 N21         4.2010   54.3195   26.1649 N.pl3     1 UNK         0.0000 
     22 C22         2.4662   53.8850   27.9610 C.ar      1 UNK         0.0000 
     23 C23         2.3069   55.2414   28.3058 C.ar      1 UNK         0.0000 
     24 C24         1.6182   55.6333   29.4545 C.ar      1 UNK         0.0000 
     25 C25         1.1101   54.6220   30.2508 C.ar      1 UNK         0.0000 
     26 C26         1.2927   53.3014   29.9557 C.ar      1 UNK         0.0000 
     27 C27         1.9558   52.8888   28.8089 C.ar      1 UNK         0.0000 
     28 O28         0.7269   52.5399   30.9204 O.3       1 UNK         0.0000 
     29 C29         0.2964   53.4405   31.9021 C.3       1 UNK         0.0000 
     30 O30         0.4179   54.7398   31.4018 O.3       1 UNK         0.0000 
     31 C31         1.3622   53.1009   23.0904 C.3       1 UNK         0.0000 
     32 F32         0.2190   52.5240   23.4606 F         1 UNK         0.0000 
     33 F33         1.1120   54.3921   22.9094 F         1 UNK         0.0000 
     34 F34         1.7103   52.5693   21.9188 F         1 UNK         0.0000 
     35 F35         9.0471   59.5602   17.8924 F         1 UNK         0.0000 
     36 H36         9.0072   55.1957   19.0342 H         1 UNK         0.0000 
     37 H37        10.1923   57.2790   18.4696 H         1 UNK         0.0000 
     38 H38         6.4407   59.2965   17.9783 H         1 UNK         0.0000 
     39 H39         5.2380   57.2168   18.5448 H         1 UNK         0.0000 
     40 H40         5.5467   54.6258   18.3419 H         1 UNK         0.0000 
     41 H41         6.9843   53.9124   18.9728 H         1 UNK         0.0000 
     42 H42         4.7572   54.1432   20.4052 H         1 UNK         0.0000 
     43 H43         6.4671   55.2709   24.4951 H         1 UNK         0.0000 
     44 H44         1.4685   54.3210   25.4847 H         1 UNK         0.0000 
     45 H45         1.1962   52.6741   25.9046 H         1 UNK         0.0000 
     46 H46         4.9479   54.3344   26.8454 H         1 UNK         0.0000 
     47 H47         2.7009   56.0064   27.6687 H         1 UNK         0.0000 
     48 H48         1.4881   56.6773   29.6986 H         1 UNK         0.0000 
     49 H49         2.0533   51.8407   28.5652 H         1 UNK         0.0000 
     50 H50         0.8664   53.2969   32.8207 H         1 UNK         0.0000 
     51 H51        -0.7656   53.2981   32.0817 H         1 UNK         0.0000 
@<TRIPOS>BOND
     1    1    6 ar   
     2    1    2 ar   
     3    1   36 1    
     4    2    3 ar   
     5    2   37 1    
     6    3    4 ar   
     7    3   35 1    
     8    4    5 ar   
     9    4   38 1    
    10    5    6 ar   
    11    5   39 1    
    12    6    7 1    
    13    7    8 1    
    14    7   40 1    
    15    7   41 1    
    16    8    9 am   BACKBONE|DICT|INTERRES
    17    8   42 1    
    18    9   10 2    
    19    9   11 1    
    20   11   15 ar   
    21   11   12 ar   
    22   12   13 ar   
    23   12   43 1    
    24   13   21 1    
    25   13   14 ar   
    26   14   15 ar   
    27   14   16 1    
    28   16   17 1    
    29   16   18 1    
    30   16   31 1    
    31   18   19 1    
    32   18   44 1    
    33   18   45 1    
    34   19   20 1    
    35   19   21 1    
    36   19   22 1    
    37   21   46 1    
    38   22   27 ar   
    39   22   23 ar   
    40   23   24 ar   
    41   23   47 1    
    42   24   25 ar   
    43   24   48 1    
    44   25   30 1    
    45   25   26 ar   
    46   26   27 ar   
    47   26   28 1    
    48   27   49 1    
    49   28   29 1    
    50   29   30 1    
    51   29   50 1    
    52   29   51 1    
    53   31   32 1    
    54   31   33 1    
    55   31   34 1    
@<TRIPOS>SUBSTRUCTURE
     1 UNK         1 GROUP             0       ****    0 ROOT    
