@<TRIPOS>MOLECULE
ZINC14066156_3255
60   64    1
SMALL
USER_CHARGES


@<TRIPOS>ATOM
      1 C1         10.2911   58.2849   17.4003 C.3       1 UNK         0.0000 
      2 C2          9.4039   59.4295   17.8830 C.2       1 UNK         0.0000 
      3 O3          9.7520   60.0967   18.8530 O.2       1 UNK         0.0000 
      4 N4          8.2487   59.6966   17.2511 N.am      1 UNK         0.0000 
      5 C5          7.7263   59.0653   16.0339 C.3       1 UNK         0.0000 
      6 C6          6.9250   57.7962   16.2766 C.2       1 UNK         0.0000 
      7 C7          6.4915   56.8562   15.3422 C.2       1 UNK         0.0000 
      8 C8          5.7870   55.7729   15.8769 C.2       1 UNK         0.0000 
      9 C9          5.6455   55.8330   17.2560 C.2       1 UNK         0.0000 
     10 S10         6.3812   57.2955   17.8581 S.3       1 UNK         0.0000 
     11 C11         5.0203   54.8673   18.1594 C.2       1 UNK         0.0000 
     12 C12         4.2409   53.7631   17.8009 C.2       1 UNK         0.0000 
     13 S13         3.7286   52.8982   19.2263 S.3       1 UNK         0.0000 
     14 C14         4.6046   54.0584   20.1634 C.2       1 UNK         0.0000 
     15 N15         5.1853   55.0012   19.4612 N.2       1 UNK         0.0000 
     16 N16         4.6277   53.9446   21.5462 N.am      1 UNK         0.0000 
     17 C17         5.5756   54.4967   22.3399 C.2       1 UNK         0.0000 
     18 O18         6.5660   55.1025   21.9178 O.2       1 UNK         0.0000 
     19 C19         5.4011   54.3202   23.8285 C.ar      1 UNK         0.0000 
     20 C20         6.5306   54.3955   24.6513 C.ar      1 UNK         0.0000 
     21 C21         6.4272   54.2776   26.0308 C.ar      1 UNK         0.0000 
     22 C22         5.1686   54.0969   26.6002 C.ar      1 UNK         0.0000 
     23 C23         4.0283   54.0233   25.8090 C.ar      1 UNK         0.0000 
     24 C24         4.1387   54.1303   24.4233 C.ar      1 UNK         0.0000 
     25 N25         2.7733   53.7949   26.3738 N.2       1 UNK         0.0000 
     26 C26         2.6208   53.7078   27.6485 C.ar      1 UNK         0.0000 
     27 N27         3.7088   53.8627   28.5149 N.pl3     1 UNK         0.0000 
     28 C28         5.0231   53.9642   28.0893 C.ar      1 UNK         0.0000 
     29 O29         6.0078   53.9661   28.8278 O.2       1 UNK         0.0000 
     30 C30         3.5830   54.0135   29.9841 C.3       1 UNK         0.0000 
     31 C31         3.3980   52.7043   30.7659 C.3       1 UNK         0.0000 
     32 C32         1.9845   52.0961   30.7435 C.3       1 UNK         0.0000 
     33 C33         0.7860   53.0743   30.6806 C.3       1 UNK         0.0000 
     34 C34         0.6124   53.9150   29.3863 C.3       1 UNK         0.0000 
     35 C35         1.1906   53.3037   28.0827 C.3       1 UNK         0.0000 
     36 H36        10.9113   58.6107   16.5674 H         1 UNK         0.0000 
     37 H37        10.9460   57.9508   18.2043 H         1 UNK         0.0000 
     38 H38         9.6988   57.4249   17.0825 H         1 UNK         0.0000 
     39 H39         7.6573   60.4344   17.6336 H         1 UNK         0.0000 
     40 H40         8.5357   58.8853   15.3246 H         1 UNK         0.0000 
     41 H41         7.0865   59.8010   15.5440 H         1 UNK         0.0000 
     42 H42         6.6933   56.9525   14.2845 H         1 UNK         0.0000 
     43 H43         5.4058   54.9600   15.2763 H         1 UNK         0.0000 
     44 H44         3.9607   53.4188   16.8175 H         1 UNK         0.0000 
     45 H45         3.9758   53.2945   21.9590 H         1 UNK         0.0000 
     46 H46         7.5059   54.5499   24.2142 H         1 UNK         0.0000 
     47 H47         7.3153   54.3236   26.6439 H         1 UNK         0.0000 
     48 H48         3.2365   54.0822   23.8346 H         1 UNK         0.0000 
     49 H49         4.4443   54.5206   30.4195 H         1 UNK         0.0000 
     50 H50         2.7973   54.7272   30.2094 H         1 UNK         0.0000 
     51 H51         4.1284   51.9656   30.4269 H         1 UNK         0.0000 
     52 H52         3.6749   52.8896   31.8046 H         1 UNK         0.0000 
     53 H53         1.9109   51.3770   29.9278 H         1 UNK         0.0000 
     54 H54         1.8760   51.4985   31.6496 H         1 UNK         0.0000 
     55 H55        -0.1202   52.4771   30.8174 H         1 UNK         0.0000 
     56 H56         0.8078   53.7390   31.5464 H         1 UNK         0.0000 
     57 H57        -0.4637   54.0404   29.2416 H         1 UNK         0.0000 
     58 H58         0.9392   54.9471   29.5129 H         1 UNK         0.0000 
     59 H59         1.1146   52.2180   28.1017 H         1 UNK         0.0000 
     60 H60         0.5013   53.5823   27.2892 H         1 UNK         0.0000 
@<TRIPOS>BOND
     1    1    2 1    
     2    1   36 1    
     3    1   37 1    
     4    1   38 1    
     5    2    3 2    
     6    2    4 am   BACKBONE|DICT|INTERRES
     7    4    5 1    
     8    4   39 1    
     9    5    6 1    
    10    5   40 1    
    11    5   41 1    
    12    6   10 1    
    13    6    7 2    
    14    7    8 1    
    15    7   42 1    
    16    8    9 2    
    17    8   43 1    
    18    9   10 1    
    19    9   11 1    
    20   11   15 1    
    21   11   12 2    
    22   12   13 1    
    23   12   44 1    
    24   13   14 1    
    25   14   15 2    
    26   14   16 am   BACKBONE|DICT|INTERRES
    27   16   17 am   BACKBONE|DICT|INTERRES
    28   16   45 1    
    29   17   18 2    
    30   17   19 1    
    31   19   24 ar   
    32   19   20 ar   
    33   20   21 ar   
    34   20   46 1    
    35   21   22 ar   
    36   21   47 1    
    37   22   28 ar   
    38   22   23 ar   
    39   23   24 ar   
    40   23   25 ar   
    41   24   48 1    
    42   25   26 ar   
    43   26   35 1    
    44   26   27 ar   
    45   27   28 ar   
    46   27   30 1    
    47   28   29 2    
    48   30   31 1    
    49   30   49 1    
    50   30   50 1    
    51   31   32 1    
    52   31   51 1    
    53   31   52 1    
    54   32   33 1    
    55   32   53 1    
    56   32   54 1    
    57   33   34 1    
    58   33   55 1    
    59   33   56 1    
    60   34   35 1    
    61   34   57 1    
    62   34   58 1    
    63   35   59 1    
    64   35   60 1    
@<TRIPOS>SUBSTRUCTURE
     1 UNK         1 GROUP             0       ****    0 ROOT    
