@<TRIPOS>MOLECULE
ZINC57853786_139
59   61    1
SMALL
USER_CHARGES


@<TRIPOS>ATOM
      1 C1          1.8933   56.2145   28.8668 C.3       1 UNK         0.0000 
      2 C2          2.2778   55.1677   29.9205 C.3       1 UNK         0.0000 
      3 H3          2.3035   55.6976   30.8687 H         1 UNK         0.0000 
      4 C4          3.6326   54.4603   29.6638 C.3       1 UNK         0.0000 
      5 N5          3.5552   53.6590   28.4402 N.pl3     1 UNK         0.0000 
      6 C6          2.5291   52.6162   28.6121 C.3       1 UNK         0.0000 
      7 C7          1.1551   53.2443   28.9869 C.3       1 UNK         0.0000 
      8 H8          0.7790   53.8116   28.1358 H         1 UNK         0.0000 
      9 O9          1.2928   54.1489   30.0894 O.3       1 UNK         0.0000 
     10 C10         0.0978   52.1907   29.3349 C.3       1 UNK         0.0000 
     11 C11         4.2908   53.8981   27.2847 C.ar      1 UNK         0.0000 
     12 C12         5.6550   54.2081   27.3747 C.ar      1 UNK         0.0000 
     13 C13         6.4023   54.4972   26.2318 C.ar      1 UNK         0.0000 
     14 C14         5.7974   54.5139   24.9753 C.ar      1 UNK         0.0000 
     15 C15         4.4242   54.2417   24.8805 C.ar      1 UNK         0.0000 
     16 C16         3.6798   53.9329   26.0181 C.ar      1 UNK         0.0000 
     17 F17         2.3535   53.6961   25.8723 F         1 UNK         0.0000 
     18 N18         6.5971   54.8670   23.8697 N.am      1 UNK         0.0000 
     19 C19         6.3466   54.6491   22.5633 C.2       1 UNK         0.0000 
     20 O20         5.5043   53.8663   22.1192 O.2       1 UNK         0.0000 
     21 N21         7.1266   55.4254   21.7910 N.am      1 UNK         0.0000 
     22 C22         7.2680   55.3651   20.3284 C.3       1 UNK         0.0000 
     23 C23         5.9413   55.3923   19.4925 C.3       1 UNK         0.0000 
     24 H24         5.1044   55.4832   20.1837 H         1 UNK         0.0000 
     25 C25         5.7953   56.4926   18.4300 C.2       1 UNK         0.0000 
     26 C26         4.6347   56.8965   17.7568 C.2       1 UNK         0.0000 
     27 C27         4.7841   58.0021   16.9155 C.2       1 UNK         0.0000 
     28 C28         6.0733   58.4955   16.9214 C.2       1 UNK         0.0000 
     29 S29         7.1086   57.5408   17.9239 S.3       1 UNK         0.0000 
     30 N30         5.7226   53.9770   18.8832 N.4       1 UNK         0.0000 
     31 C31         4.2451   53.5869   18.6544 C.3       1 UNK         0.0000 
     32 C32         6.5779   53.6631   17.6325 C.3       1 UNK         0.0000 
     33 H33         2.6282   57.0156   28.8812 H         1 UNK         0.0000 
     34 H34         1.8746   55.7968   27.8630 H         1 UNK         0.0000 
     35 H35         0.9195   56.6560   29.0770 H         1 UNK         0.0000 
     36 H36         3.8324   53.7705   30.4845 H         1 UNK         0.0000 
     37 H37         4.4692   55.1554   29.7087 H         1 UNK         0.0000 
     38 H38         2.4419   52.0720   27.6715 H         1 UNK         0.0000 
     39 H39         2.8684   51.9239   29.3842 H         1 UNK         0.0000 
     40 H40         0.0157   51.4286   28.5615 H         1 UNK         0.0000 
     41 H41         0.3360   51.6967   30.2742 H         1 UNK         0.0000 
     42 H42        -0.8838   52.6468   29.4546 H         1 UNK         0.0000 
     43 H43         6.1503   54.2066   28.3343 H         1 UNK         0.0000 
     44 H44         7.4563   54.7027   26.3350 H         1 UNK         0.0000 
     45 H45         3.9119   54.2775   23.9315 H         1 UNK         0.0000 
     46 H46         7.4843   55.2964   24.0866 H         1 UNK         0.0000 
     47 H47         7.7785   56.0298   22.2652 H         1 UNK         0.0000 
     48 H48         7.8770   54.4970   20.0802 H         1 UNK         0.0000 
     49 H49         7.9263   56.1865   20.0568 H         1 UNK         0.0000 
     50 H50         3.6773   56.4213   17.9061 H         1 UNK         0.0000 
     51 H51         3.9752   58.4550   16.3578 H         1 UNK         0.0000 
     52 H52         6.4453   59.3727   16.4129 H         1 UNK         0.0000 
     53 H53         3.8618   54.1495   17.8052 H         1 UNK         0.0000 
     54 H54         4.2329   52.5153   18.4470 H         1 UNK         0.0000 
     55 H55         3.6870   53.7989   19.5670 H         1 UNK         0.0000 
     56 H56         6.2194   54.2909   16.8136 H         1 UNK         0.0000 
     57 H57         7.6201   53.8820   17.8670 H         1 UNK         0.0000 
     58 H58         6.4438   52.6028   17.4060 H         1 UNK         0.0000 
     59 H59         6.0311   53.3464   19.6126 H         1 UNK         0.0000 
@<TRIPOS>BOND
     1    1    2 1    
     2    1   33 1    
     3    1   34 1    
     4    1   35 1    
     5    2    3 1    
     6    2    9 1    
     7    2    4 1    
     8    4    5 1    
     9    4   36 1    
    10    4   37 1    
    11    5    6 1    
    12    5   11 1    
    13    6    7 1    
    14    6   38 1    
    15    6   39 1    
    16    7    8 1    
    17    7    9 1    
    18    7   10 1    
    19   10   40 1    
    20   10   41 1    
    21   10   42 1    
    22   11   16 ar   
    23   11   12 ar   
    24   12   13 ar   
    25   12   43 1    
    26   13   14 ar   
    27   13   44 1    
    28   14   15 ar   
    29   14   18 1    
    30   15   16 ar   
    31   15   45 1    
    32   16   17 1    
    33   18   19 am   BACKBONE|DICT|INTERRES
    34   18   46 1    
    35   19   20 2    
    36   19   21 am   BACKBONE|DICT|INTERRES
    37   21   22 1    
    38   21   47 1    
    39   22   23 1    
    40   22   48 1    
    41   22   49 1    
    42   23   24 1    
    43   23   25 1    
    44   23   30 1    
    45   25   29 1    
    46   25   26 2    
    47   26   27 1    
    48   26   50 1    
    49   27   28 2    
    50   27   51 1    
    51   28   29 1    
    52   28   52 1    
    53   30   31 1    
    54   30   32 1    
    55   30   59 1    
    56   31   53 1    
    57   31   54 1    
    58   31   55 1    
    59   32   56 1    
    60   32   57 1    
    61   32   58 1    
@<TRIPOS>SUBSTRUCTURE
     1 UNK         1 GROUP             0       ****    0 ROOT    
