@<TRIPOS>MOLECULE
ZINC09472353_466
58   61    1
SMALL
USER_CHARGES


@<TRIPOS>ATOM
      1 C1         -6.8438   46.6768   28.7388 C.3       1 UNK         0.0000 
      2 C2         -5.6503   46.6218   27.7854 C.2       1 UNK         0.0000 
      3 C3         -4.8261   47.7328   27.4301 C.2       1 UNK         0.0000 
      4 C4         -3.8330   47.3968   26.4901 C.2       1 UNK         0.0000 
      5 S5         -3.8878   45.7179   26.0823 S.3       1 UNK         0.0000 
      6 C6         -5.2373   45.4441   27.1385 C.2       1 UNK         0.0000 
      7 C7         -5.7814   44.0814   27.2759 C.2       1 UNK         0.0000 
      8 O8         -6.6642   43.7881   28.0811 O.2       1 UNK         0.0000 
      9 O9         -5.2101   43.2007   26.4154 O.3       1 UNK         0.0000 
     10 C10        -5.6031   41.8364   26.4123 C.3       1 UNK         0.0000 
     11 N11        -2.8965   48.2745   25.9464 N.am      1 UNK         0.0000 
     12 C12        -1.9050   48.0613   25.0524 C.2       1 UNK         0.0000 
     13 O13        -1.6647   46.9810   24.5052 O.2       1 UNK         0.0000 
     14 C14        -1.0546   49.2812   24.7564 C.ar      1 UNK         0.0000 
     15 C15        -1.5585   50.5838   24.9238 C.ar      1 UNK         0.0000 
     16 C16        -0.7579   51.6932   24.6698 C.ar      1 UNK         0.0000 
     17 C17         0.5587   51.5188   24.2403 C.ar      1 UNK         0.0000 
     18 C18         1.0676   50.2317   24.0479 C.ar      1 UNK         0.0000 
     19 C19         0.2663   49.1220   24.3073 C.ar      1 UNK         0.0000 
     20 S20         1.5958   52.9641   23.9782 S.o2      1 UNK         0.0000 
     21 O21         2.6296   52.5643   23.0152 O.2       1 UNK         0.0000 
     22 O22         0.7055   54.0950   23.6981 O.2       1 UNK         0.0000 
     23 N23         2.3534   53.2999   25.5778 N.pl3     1 UNK         0.0000 
     24 C24         1.4956   53.1067   26.7637 C.3       1 UNK         0.0000 
     25 C25         1.9967   53.8331   28.0162 C.3       1 UNK         0.0000 
     26 C26         3.4442   53.4243   28.2837 C.3       1 UNK         0.0000 
     27 C27         4.2757   53.7754   27.0634 C.ar      1 UNK         0.0000 
     28 C28         3.7067   53.7240   25.7633 C.ar      1 UNK         0.0000 
     29 C29         4.4839   54.1652   24.6797 C.ar      1 UNK         0.0000 
     30 C30         5.8083   54.5622   24.8518 C.ar      1 UNK         0.0000 
     31 C31         6.3728   54.5585   26.1210 C.ar      1 UNK         0.0000 
     32 C32         5.6060   54.1876   27.2187 C.ar      1 UNK         0.0000 
     33 C33        -5.0224   49.0781   27.9478 C.2       1 UNK         0.0000 
     34 O34        -6.1229   49.6210   27.9871 O.2       1 UNK         0.0000 
     35 N35        -3.9151   49.6969   28.3538 N.am      1 UNK         0.0000 
     36 H36        -7.7047   46.1602   28.3099 H         1 UNK         0.0000 
     37 H37        -6.6315   46.1623   29.6775 H         1 UNK         0.0000 
     38 H38        -7.2097   47.6740   28.9840 H         1 UNK         0.0000 
     39 H39        -5.0567   41.2968   25.6396 H         1 UNK         0.0000 
     40 H40        -5.3930   41.3651   27.3746 H         1 UNK         0.0000 
     41 H41        -6.6706   41.7349   26.2038 H         1 UNK         0.0000 
     42 H42        -2.8991   49.1876   26.3755 H         1 UNK         0.0000 
     43 H43        -2.5717   50.7555   25.2586 H         1 UNK         0.0000 
     44 H44        -1.1553   52.6878   24.8185 H         1 UNK         0.0000 
     45 H45         2.0864   50.0853   23.7109 H         1 UNK         0.0000 
     46 H46         0.6966   48.1365   24.1733 H         1 UNK         0.0000 
     47 H47         0.4458   53.2960   26.5572 H         1 UNK         0.0000 
     48 H48         1.5820   52.0365   26.9605 H         1 UNK         0.0000 
     49 H49         1.9229   54.9118   27.8748 H         1 UNK         0.0000 
     50 H50         1.3578   53.5927   28.8652 H         1 UNK         0.0000 
     51 H51         3.8219   53.9214   29.1800 H         1 UNK         0.0000 
     52 H52         3.5062   52.3506   28.4695 H         1 UNK         0.0000 
     53 H53         4.0884   54.2280   23.6805 H         1 UNK         0.0000 
     54 H54         6.3977   54.8788   24.0030 H         1 UNK         0.0000 
     55 H55         7.3983   54.8568   26.2633 H         1 UNK         0.0000 
     56 H56         6.0500   54.2186   28.2018 H         1 UNK         0.0000 
     57 H57        -3.0521   49.1593   28.4822 H         1 UNK         0.0000 
     58 H58        -3.9751   50.6294   28.7281 H         1 UNK         0.0000 
@<TRIPOS>BOND
     1    1    2 1    
     2    1   36 1    
     3    1   37 1    
     4    1   38 1    
     5    2    6 2    
     6    2    3 1    
     7    3    4 2    
     8    3   33 1    
     9    4    5 1    
    10    4   11 am   BACKBONE|DICT|INTERRES
    11    5    6 1    
    12    6    7 1    
    13    7    8 2    
    14    7    9 1    
    15    9   10 1    
    16   10   39 1    
    17   10   40 1    
    18   10   41 1    
    19   11   12 am   BACKBONE|DICT|INTERRES
    20   11   42 1    
    21   12   13 2    
    22   12   14 1    
    23   14   19 ar   
    24   14   15 ar   
    25   15   16 ar   
    26   15   43 1    
    27   16   17 ar   
    28   16   44 1    
    29   17   18 ar   
    30   17   20 1    
    31   18   19 ar   
    32   18   45 1    
    33   19   46 1    
    34   20   21 2    
    35   20   22 2    
    36   20   23 1    
    37   23   28 1    
    38   23   24 1    
    39   24   25 1    
    40   24   47 1    
    41   24   48 1    
    42   25   26 1    
    43   25   49 1    
    44   25   50 1    
    45   26   27 1    
    46   26   51 1    
    47   26   52 1    
    48   27   32 ar   
    49   27   28 ar   
    50   28   29 ar   
    51   29   30 ar   
    52   29   53 1    
    53   30   31 ar   
    54   30   54 1    
    55   31   32 ar   
    56   31   55 1    
    57   32   56 1    
    58   33   34 2    
    59   33   35 am   BACKBONE|DICT|INTERRES
    60   35   57 1    
    61   35   58 1    
@<TRIPOS>SUBSTRUCTURE
     1 UNK         1 GROUP             0       ****    0 ROOT    
