@<TRIPOS>MOLECULE
ZINC38687056_2064
59   63    1
SMALL
USER_CHARGES


@<TRIPOS>ATOM
      1 C1         -2.0951   51.1632   28.9114 C.3       1 UNK         0.0000 
      2 C2         -1.6447   51.2969   27.4484 C.3       1 UNK         0.0000 
      3 C3         -2.7725   51.8600   26.5644 C.3       1 UNK         0.0000 
      4 C4         -0.3430   52.0823   27.2659 C.ar      1 UNK         0.0000 
      5 C5          0.4371   51.8093   26.1451 C.ar      1 UNK         0.0000 
      6 C6          1.6242   52.4969   25.9342 C.ar      1 UNK         0.0000 
      7 C7          2.0600   53.4763   26.8376 C.ar      1 UNK         0.0000 
      8 C8          1.2714   53.7465   27.9617 C.ar      1 UNK         0.0000 
      9 C9          0.0854   53.0500   28.1826 C.ar      1 UNK         0.0000 
     10 C10         3.3619   54.2770   26.6061 C.3       1 UNK         0.0000 
     11 H11         3.0959   55.3034   26.8384 H         1 UNK         0.0000 
     12 C12         3.8895   54.3199   25.1525 C.ar      1 UNK         0.0000 
     13 C13         3.0375   54.4877   24.0514 C.ar      1 UNK         0.0000 
     14 C14         3.5140   54.4024   22.7454 C.ar      1 UNK         0.0000 
     15 C15         4.8751   54.1863   22.5015 C.ar      1 UNK         0.0000 
     16 C16         5.7530   54.1008   23.5836 C.ar      1 UNK         0.0000 
     17 C17         5.2659   54.1682   24.8891 C.ar      1 UNK         0.0000 
     18 O18         6.2059   54.0586   25.8943 O.3       1 UNK         0.0000 
     19 C19         5.7838   53.9150   27.1739 C.2       1 UNK         0.0000 
     20 C20         4.5008   53.9616   27.5821 C.2       1 UNK         0.0000 
     21 C21         4.1903   53.7983   28.9660 C.1       1 UNK         0.0000 
     22 N22         3.9044   53.6904   30.0816 N.1       1 UNK         0.0000 
     23 N23         6.8832   53.6968   27.9563 N.pl3     1 UNK         0.0000 
     24 O24         5.3795   54.1323   21.2222 O.3       1 UNK         0.0000 
     25 C25         4.9397   53.1773   20.3462 C.2       1 UNK         0.0000 
     26 O26         4.1187   52.2892   20.5991 O.2       1 UNK         0.0000 
     27 C27         5.5932   53.2836   18.9497 C.3       1 UNK         0.0000 
     28 H28         6.2720   52.4360   18.8784 H         1 UNK         0.0000 
     29 C29         4.5385   53.1558   17.8124 C.3       1 UNK         0.0000 
     30 O30         3.7389   54.3383   17.7252 O.3       1 UNK         0.0000 
     31 C31         4.4884   55.4939   17.6909 C.ar      1 UNK         0.0000 
     32 C32         3.9134   56.6240   17.1093 C.ar      1 UNK         0.0000 
     33 C33         4.6308   57.8225   17.0723 C.ar      1 UNK         0.0000 
     34 C34         5.9079   57.8958   17.6349 C.ar      1 UNK         0.0000 
     35 C35         6.4807   56.7674   18.2267 C.ar      1 UNK         0.0000 
     36 C36         5.7718   55.5657   18.2568 C.ar      1 UNK         0.0000 
     37 O37         6.4035   54.4680   18.8101 O.3       1 UNK         0.0000 
     38 H38        -1.2682   50.8967   29.5684 H         1 UNK         0.0000 
     39 H39        -2.8722   50.4046   29.0225 H         1 UNK         0.0000 
     40 H40        -2.4959   52.0963   29.2734 H         1 UNK         0.0000 
     41 H41        -1.4369   50.2794   27.1109 H         1 UNK         0.0000 
     42 H42        -2.4788   51.8899   25.5150 H         1 UNK         0.0000 
     43 H43        -3.6714   51.2458   26.6342 H         1 UNK         0.0000 
     44 H44        -3.0438   52.8752   26.8603 H         1 UNK         0.0000 
     45 H45         0.1277   51.0545   25.4366 H         1 UNK         0.0000 
     46 H46         2.2113   52.2414   25.0657 H         1 UNK         0.0000 
     47 H47         1.5723   54.5025   28.6698 H         1 UNK         0.0000 
     48 H48        -0.4953   53.2822   29.0628 H         1 UNK         0.0000 
     49 H49         1.9771   54.6433   24.2071 H         1 UNK         0.0000 
     50 H50         2.8264   54.5038   21.9172 H         1 UNK         0.0000 
     51 H51         6.8123   53.9731   23.4122 H         1 UNK         0.0000 
     52 H52         6.8279   53.7757   28.9619 H         1 UNK         0.0000 
     53 H53         7.7127   53.2763   27.5671 H         1 UNK         0.0000 
     54 H54         5.0638   53.0111   16.8653 H         1 UNK         0.0000 
     55 H55         3.9003   52.2807   17.9456 H         1 UNK         0.0000 
     56 H56         2.9203   56.5706   16.6866 H         1 UNK         0.0000 
     57 H57         4.1927   58.7026   16.6245 H         1 UNK         0.0000 
     58 H58         6.4487   58.8311   17.6095 H         1 UNK         0.0000 
     59 H59         7.4740   56.8171   18.6489 H         1 UNK         0.0000 
@<TRIPOS>BOND
     1    1    2 1    
     2    1   38 1    
     3    1   39 1    
     4    1   40 1    
     5    2    3 1    
     6    2    4 1    
     7    2   41 1    
     8    3   42 1    
     9    3   43 1    
    10    3   44 1    
    11    4    9 ar   
    12    4    5 ar   
    13    5    6 ar   
    14    5   45 1    
    15    6    7 ar   
    16    6   46 1    
    17    7    8 ar   
    18    7   10 1    
    19    8    9 ar   
    20    8   47 1    
    21    9   48 1    
    22   10   11 1    
    23   10   20 1    
    24   10   12 1    
    25   12   17 ar   
    26   12   13 ar   
    27   13   14 ar   
    28   13   49 1    
    29   14   15 ar   
    30   14   50 1    
    31   15   16 ar   
    32   15   24 1    
    33   16   17 ar   
    34   16   51 1    
    35   17   18 1    
    36   18   19 1    
    37   19   20 2    
    38   19   23 1    
    39   20   21 1    
    40   21   22 3    
    41   23   52 1    
    42   23   53 1    
    43   24   25 1    
    44   25   26 2    
    45   25   27 1    
    46   27   28 1    
    47   27   37 1    
    48   27   29 1    
    49   29   30 1    
    50   29   54 1    
    51   29   55 1    
    52   30   31 1    
    53   31   36 ar   
    54   31   32 ar   
    55   32   33 ar   
    56   32   56 1    
    57   33   34 ar   
    58   33   57 1    
    59   34   35 ar   
    60   34   58 1    
    61   35   36 ar   
    62   35   59 1    
    63   36   37 1    
@<TRIPOS>SUBSTRUCTURE
     1 UNK         1 GROUP             0       ****    0 ROOT    
