@<TRIPOS>MOLECULE
ZINC02595210_2280
57   59    1
SMALL
USER_CHARGES


@<TRIPOS>ATOM
      1 C1          2.4102   52.7364   28.7664 C.3       1 UNK         0.0000 
      2 C2          0.9001   52.5125   28.9201 C.3       1 UNK         0.0000 
      3 C3          0.3047   53.3971   30.0300 C.3       1 UNK         0.0000 
      4 O4          0.3060   52.8319   27.6601 O.3       1 UNK         0.0000 
      5 C5         -0.8943   52.2580   27.2817 C.ar      1 UNK         0.0000 
      6 C6         -1.6965   51.4676   28.1149 C.ar      1 UNK         0.0000 
      7 C7         -2.8641   50.8965   27.6227 C.ar      1 UNK         0.0000 
      8 C8         -3.2150   51.0709   26.2826 C.ar      1 UNK         0.0000 
      9 C9         -2.4766   51.9289   25.4724 C.ar      1 UNK         0.0000 
     10 C10        -1.3148   52.4967   25.9729 C.ar      1 UNK         0.0000 
     11 C11        -4.2940   50.2229   25.6866 C.2       1 UNK         0.0000 
     12 O12        -5.4719   50.5557   25.7795 O.2       1 UNK         0.0000 
     13 N13        -3.9307   49.0388   25.1467 N.am      1 UNK         0.0000 
     14 C14        -2.6071   48.5009   24.7193 C.3       1 UNK         0.0000 
     15 C15        -1.9774   49.3061   23.5806 C.2       1 UNK         0.0000 
     16 O16        -2.5505   49.6625   22.5487 O.2       1 UNK         0.0000 
     17 N17        -0.6914   49.5354   23.9435 N.am      1 UNK         0.0000 
     18 C18        -0.3879   49.0617   25.1818 C.2       1 UNK         0.0000 
     19 O19         0.7230   48.8968   25.6714 O.2       1 UNK         0.0000 
     20 N20        -1.5413   48.6081   25.6817 N.am      1 UNK         0.0000 
     21 C21         0.2512   50.2959   23.0752 C.3       1 UNK         0.0000 
     22 C22         1.1863   51.2982   23.8085 C.3       1 UNK         0.0000 
     23 C23         1.4906   52.5817   23.0116 C.3       1 UNK         0.0000 
     24 C24         2.4242   52.4211   21.7970 C.3       1 UNK         0.0000 
     25 C25         2.0281   51.3423   20.7703 C.3       1 UNK         0.0000 
     26 C26         2.1814   49.9011   21.2910 C.3       1 UNK         0.0000 
     27 C27         1.0084   49.3376   22.1218 C.3       1 UNK         0.0000 
     28 C28        -2.7942   47.0191   24.2502 C.3       1 UNK         0.0000 
     29 F29        -1.6959   46.4901   23.7050 F         1 UNK         0.0000 
     30 F30        -3.1142   46.2307   25.2794 F         1 UNK         0.0000 
     31 F31        -3.7772   46.8855   23.3561 F         1 UNK         0.0000 
     32 H32         2.9430   52.5042   29.6888 H         1 UNK         0.0000 
     33 H33         2.6330   53.7703   28.5008 H         1 UNK         0.0000 
     34 H34         2.8189   52.0996   27.9808 H         1 UNK         0.0000 
     35 H35         0.7613   51.4570   29.1640 H         1 UNK         0.0000 
     36 H36         0.7559   53.1739   30.9972 H         1 UNK         0.0000 
     37 H37         0.4637   54.4552   29.8212 H         1 UNK         0.0000 
     38 H38        -0.7683   53.2423   30.1321 H         1 UNK         0.0000 
     39 H39        -1.4225   51.2484   29.1354 H         1 UNK         0.0000 
     40 H40        -3.4230   50.2267   28.2629 H         1 UNK         0.0000 
     41 H41        -2.7443   52.0883   24.4371 H         1 UNK         0.0000 
     42 H42        -0.7187   53.1151   25.3193 H         1 UNK         0.0000 
     43 H43        -4.7028   48.4023   25.0196 H         1 UNK         0.0000 
     44 H44        -1.6840   48.4863   26.6878 H         1 UNK         0.0000 
     45 H45        -0.3782   50.9127   22.4304 H         1 UNK         0.0000 
     46 H46         0.7874   51.5660   24.7820 H         1 UNK         0.0000 
     47 H47         2.1248   50.7993   24.0522 H         1 UNK         0.0000 
     48 H48         0.5515   53.0303   22.6863 H         1 UNK         0.0000 
     49 H49         1.9371   53.3128   23.6877 H         1 UNK         0.0000 
     50 H50         2.4851   53.3810   21.2834 H         1 UNK         0.0000 
     51 H51         3.4381   52.2224   22.1469 H         1 UNK         0.0000 
     52 H52         1.0147   51.5128   20.4041 H         1 UNK         0.0000 
     53 H53         2.6756   51.4584   19.8991 H         1 UNK         0.0000 
     54 H54         2.3454   49.2357   20.4412 H         1 UNK         0.0000 
     55 H55         3.1007   49.8302   21.8746 H         1 UNK         0.0000 
     56 H56         1.3835   48.4967   22.7035 H         1 UNK         0.0000 
     57 H57         0.2806   48.9154   21.4268 H         1 UNK         0.0000 
@<TRIPOS>BOND
     1    1    2 1    
     2    1   32 1    
     3    1   33 1    
     4    1   34 1    
     5    2    3 1    
     6    2    4 1    
     7    2   35 1    
     8    3   36 1    
     9    3   37 1    
    10    3   38 1    
    11    4    5 1    
    12    5   10 ar   
    13    5    6 ar   
    14    6    7 ar   
    15    6   39 1    
    16    7    8 ar   
    17    7   40 1    
    18    8    9 ar   
    19    8   11 1    
    20    9   10 ar   
    21    9   41 1    
    22   10   42 1    
    23   11   12 2    
    24   11   13 am   BACKBONE|DICT|INTERRES
    25   13   14 1    
    26   13   43 1    
    27   14   20 1    
    28   14   15 1    
    29   14   28 1    
    30   15   16 2    
    31   15   17 am   BACKBONE|DICT|INTERRES
    32   17   18 am   BACKBONE|DICT|INTERRES
    33   17   21 1    
    34   18   19 2    
    35   18   20 am   BACKBONE|DICT|INTERRES
    36   20   44 1    
    37   21   27 1    
    38   21   22 1    
    39   21   45 1    
    40   22   23 1    
    41   22   46 1    
    42   22   47 1    
    43   23   24 1    
    44   23   48 1    
    45   23   49 1    
    46   24   25 1    
    47   24   50 1    
    48   24   51 1    
    49   25   26 1    
    50   25   52 1    
    51   25   53 1    
    52   26   27 1    
    53   26   54 1    
    54   26   55 1    
    55   27   56 1    
    56   27   57 1    
    57   28   29 1    
    58   28   30 1    
    59   28   31 1    
@<TRIPOS>SUBSTRUCTURE
     1 UNK         1 GROUP             0       ****    0 ROOT    
