@<TRIPOS>MOLECULE
ZINC46914827_3143
59   62    1
SMALL
USER_CHARGES


@<TRIPOS>ATOM
      1 C1          3.4659   52.3530   30.7554 C.3       1 UNK         0.0000 
      2 O2          3.4003   53.6955   30.2894 O.3       1 UNK         0.0000 
      3 C3          3.8573   53.8726   29.0068 C.ar      1 UNK         0.0000 
      4 C4          5.1038   54.4673   28.8274 C.ar      1 UNK         0.0000 
      5 C5          5.6216   54.6433   27.5492 C.ar      1 UNK         0.0000 
      6 C6          4.8870   54.2674   26.4171 C.ar      1 UNK         0.0000 
      7 C7          3.6178   53.6978   26.6075 C.ar      1 UNK         0.0000 
      8 C8          3.0882   53.4952   27.8958 C.ar      1 UNK         0.0000 
      9 O9          1.8393   52.9510   28.1450 O.3       1 UNK         0.0000 
     10 C10         1.0297   52.4961   27.0683 C.3       1 UNK         0.0000 
     11 C11         5.4506   54.4975   25.0406 C.2       1 UNK         0.0000 
     12 N12         4.8388   54.0966   23.9407 N.2       1 UNK         0.0000 
     13 C13         5.6490   54.4971   22.9946 C.2       1 UNK         0.0000 
     14 O14         6.7315   55.1516   23.4723 O.3       1 UNK         0.0000 
     15 N15         6.5920   55.1314   24.8560 N.2       1 UNK         0.0000 
     16 C16         5.4680   54.3955   21.5403 C.ar      1 UNK         0.0000 
     17 C17         4.4229   53.7556   20.8818 C.ar      1 UNK         0.0000 
     18 N18         4.6801   53.9227   19.5387 N.pl3     1 UNK         0.0000 
     19 N19         5.8040   54.6118   19.3230 N.2       1 UNK         0.0000 
     20 C20         6.2964   54.8965   20.5087 C.ar      1 UNK         0.0000 
     21 S21         7.8591   55.6968   20.6777 S.3       1 UNK         0.0000 
     22 C22         8.6464   55.2522   19.0953 C.3       1 UNK         0.0000 
     23 C23         3.9016   53.4595   18.3842 C.3       1 UNK         0.0000 
     24 C24         3.1045   54.5703   17.6812 C.2       1 UNK         0.0000 
     25 O25         3.5920   55.6964   17.5788 O.2       1 UNK         0.0000 
     26 N26         1.8755   54.2248   17.2459 N.am      1 UNK         0.0000 
     27 C27         0.8818   55.0421   16.6732 C.ar      1 UNK         0.0000 
     28 C28        -0.4195   54.5300   16.6723 C.ar      1 UNK         0.0000 
     29 C29        -1.4734   55.2741   16.1432 C.ar      1 UNK         0.0000 
     30 C30        -1.2367   56.5361   15.6037 C.ar      1 UNK         0.0000 
     31 C31         0.0599   57.0573   15.5839 C.ar      1 UNK         0.0000 
     32 C32         1.1132   56.3130   16.1167 C.ar      1 UNK         0.0000 
     33 S33         0.4028   58.6508   14.8894 S.3       1 UNK         0.0000 
     34 C34        -1.1518   59.4045   14.3374 C.3       1 UNK         0.0000 
     35 N35         3.3281   53.0792   21.3527 N.pl3     1 UNK         0.0000 
     36 H36         3.1490   52.3110   31.7970 H         1 UNK         0.0000 
     37 H37         2.8066   51.6962   30.1847 H         1 UNK         0.0000 
     38 H38         4.4830   51.9594   30.7010 H         1 UNK         0.0000 
     39 H39         5.6849   54.7869   29.6820 H         1 UNK         0.0000 
     40 H40         6.5991   55.0948   27.4548 H         1 UNK         0.0000 
     41 H41         3.0444   53.4120   25.7401 H         1 UNK         0.0000 
     42 H42         0.0937   52.1022   27.4643 H         1 UNK         0.0000 
     43 H43         0.7862   53.2966   26.3746 H         1 UNK         0.0000 
     44 H44         1.5086   51.6961   26.5136 H         1 UNK         0.0000 
     45 H45         9.6792   55.6011   19.0861 H         1 UNK         0.0000 
     46 H46         8.6521   54.1718   18.9407 H         1 UNK         0.0000 
     47 H47         8.1327   55.7331   18.2606 H         1 UNK         0.0000 
     48 H48         3.2430   52.6575   18.7149 H         1 UNK         0.0000 
     49 H49         4.5844   53.0010   17.6683 H         1 UNK         0.0000 
     50 H50         1.5905   53.2763   17.4333 H         1 UNK         0.0000 
     51 H51        -0.6252   53.5533   17.0873 H         1 UNK         0.0000 
     52 H52        -2.4751   54.8712   16.1464 H         1 UNK         0.0000 
     53 H53        -2.0643   57.0911   15.1945 H         1 UNK         0.0000 
     54 H54         2.1024   56.7405   16.0743 H         1 UNK         0.0000 
     55 H55        -0.9579   60.3925   13.9206 H         1 UNK         0.0000 
     56 H56        -1.6191   58.7961   13.5637 H         1 UNK         0.0000 
     57 H57        -1.8436   59.5177   15.1714 H         1 UNK         0.0000 
     58 H58         3.1728   52.9746   22.3449 H         1 UNK         0.0000 
     59 H59         2.5996   52.7500   20.7407 H         1 UNK         0.0000 
@<TRIPOS>BOND
     1    1    2 1    
     2    1   36 1    
     3    1   37 1    
     4    1   38 1    
     5    2    3 1    
     6    3    8 ar   
     7    3    4 ar   
     8    4    5 ar   
     9    4   39 1    
    10    5    6 ar   
    11    5   40 1    
    12    6    7 ar   
    13    6   11 1    
    14    7    8 ar   
    15    7   41 1    
    16    8    9 1    
    17    9   10 1    
    18   10   42 1    
    19   10   43 1    
    20   10   44 1    
    21   11   15 2    
    22   11   12 1    
    23   12   13 2    
    24   13   14 1    
    25   13   16 1    
    26   14   15 1    
    27   16   20 ar   
    28   16   17 ar   
    29   17   18 ar   
    30   17   35 1    
    31   18   19 ar   
    32   18   23 1    
    33   19   20 ar   
    34   20   21 1    
    35   21   22 1    
    36   22   45 1    
    37   22   46 1    
    38   22   47 1    
    39   23   24 1    
    40   23   48 1    
    41   23   49 1    
    42   24   25 2    
    43   24   26 am   BACKBONE|DICT|INTERRES
    44   26   27 1    
    45   26   50 1    
    46   27   32 ar   
    47   27   28 ar   
    48   28   29 ar   
    49   28   51 1    
    50   29   30 ar   
    51   29   52 1    
    52   30   31 ar   
    53   30   53 1    
    54   31   32 ar   
    55   31   33 1    
    56   32   54 1    
    57   33   34 1    
    58   34   55 1    
    59   34   56 1    
    60   34   57 1    
    61   35   58 1    
    62   35   59 1    
@<TRIPOS>SUBSTRUCTURE
     1 UNK         1 GROUP             0       ****    0 ROOT    
