ZINC36218732_5404
                    3D
 Schrodinger Suite 2024-2.
 65 69  0  0  1  0            999 V2000
    5.2969   54.4951   23.5103 C   0  0  0  0  0  0
    5.3911   54.4024   25.0223 C   0  0  0  0  0  0
    6.6173   54.5938   25.6589 C   0  0  0  0  0  0
    6.7044   54.4968   27.0463 C   0  0  0  0  0  0
    5.5699   54.2097   27.8015 C   0  0  0  0  0  0
    4.3276   54.0085   27.1838 C   0  0  0  0  0  0
    4.2510   54.1205   25.7818 C   0  0  0  0  0  0
    3.1168   53.6754   28.0276 C   0  0  0  0  0  0
    3.0906   53.9864   29.2218 O   0  0  0  0  0  0
    2.1277   53.0126   27.3867 N   0  0  0  0  0  0
    0.9237   52.5048   27.9043 C   0  0  0  0  0  0
    0.7224   52.2020   29.2598 C   0  0  0  0  0  0
   -0.5029   51.6967   29.6875 C   0  0  0  0  0  0
   -1.5318   51.4853   28.7740 C   0  0  0  0  0  0
   -1.3572   51.7990   27.4254 C   0  0  0  0  0  0
   -0.1137   52.2791   26.9912 C   0  0  0  0  0  0
   -2.5489   51.6913   26.4771 C   0  0  2  0  0  0
   -3.4459   51.7573   27.0985 H   0  0  0  0  0  0
   -2.5802   50.4539   25.5778 C   0  0  2  0  0  0
   -1.6984   49.8296   25.7278 H   0  0  0  0  0  0
   -2.6337   51.0486   24.2463 N   0  0  0  0  0  0
   -2.6610   52.4386   24.2917 C   0  0  0  0  0  0
   -2.6996   53.2660   23.3836 O   0  0  0  0  0  0
   -2.6333   52.7865   25.5873 O   0  0  0  0  0  0
   -2.5112   50.3107   22.9891 C   0  0  0  0  0  0
   -1.0846   50.2383   22.4724 C   0  0  0  0  0  0
   -0.7415   50.8889   21.2842 C   0  0  0  0  0  0
    0.5674   50.8238   20.8104 C   0  0  0  0  0  0
    1.5240   50.1069   21.5271 C   0  0  0  0  0  0
    1.1799   49.4552   22.7085 C   0  0  0  0  0  0
   -0.1242   49.5158   23.1822 C   0  0  0  0  0  0
   -3.8366   49.6107   25.8978 C   0  0  0  0  0  0
   -4.8958   49.8225   25.3022 O   0  0  0  0  0  0
   -3.6956   48.7003   26.8817 N   0  0  0  0  0  0
   -4.7010   47.9101   27.4587 C   0  0  0  0  0  0
   -4.5843   47.6431   28.8263 C   0  0  0  0  0  0
   -5.5631   46.8967   29.4835 C   0  0  0  0  0  0
   -6.6454   46.3839   28.7659 C   0  0  0  0  0  0
   -6.7506   46.6199   27.3953 C   0  0  0  0  0  0
   -5.7850   47.3815   26.7397 C   0  0  0  0  0  0
   -7.7938   46.1073   26.7009 F   0  0  0  0  0  0
    6.0569   55.1672   23.1088 H   0  0  0  0  0  0
    5.4270   53.5103   23.0586 H   0  0  0  0  0  0
    4.3295   54.8934   23.2018 H   0  0  0  0  0  0
    7.4995   54.8083   25.0728 H   0  0  0  0  0  0
    7.6496   54.6434   27.5514 H   0  0  0  0  0  0
    5.6698   54.1417   28.8759 H   0  0  0  0  0  0
    3.3124   53.9858   25.2637 H   0  0  0  0  0  0
    2.2589   52.8669   26.3986 H   0  0  0  0  0  0
    1.5013   52.3347   29.9941 H   0  0  0  0  0  0
   -0.6633   51.4607   30.7312 H   0  0  0  0  0  0
   -2.4753   51.0932   29.1319 H   0  0  0  0  0  0
    0.0244   52.5152   25.9455 H   0  0  0  0  0  0
   -3.1473   50.7764   22.2349 H   0  0  0  0  0  0
   -2.8890   49.2967   23.1206 H   0  0  0  0  0  0
   -1.4822   51.4480   20.7313 H   0  0  0  0  0  0
    0.8425   51.3265   19.8951 H   0  0  0  0  0  0
    2.5399   50.0531   21.1612 H   0  0  0  0  0  0
    1.9159   48.8976   23.2617 H   0  0  0  0  0  0
   -0.3812   49.0008   24.0965 H   0  0  0  0  0  0
   -2.8020   48.6570   27.3809 H   0  0  0  0  0  0
   -3.7433   48.0360   29.3870 H   0  0  0  0  0  0
   -5.4806   46.7236   30.5473 H   0  0  0  0  0  0
   -7.4072   45.8069   29.2685 H   0  0  0  0  0  0
   -5.8888   47.5524   25.6784 H   0  0  0  0  0  0
  1  2  1  0  0  0
  1 42  1  0  0  0
  1 43  1  0  0  0
  1 44  1  0  0  0
  2  7  2  0  0  0
  2  3  1  0  0  0
  3  4  2  0  0  0
  3 45  1  0  0  0
  4  5  1  0  0  0
  4 46  1  0  0  0
  5  6  2  0  0  0
  5 47  1  0  0  0
  6  7  1  0  0  0
  6  8  1  0  0  0
  7 48  1  0  0  0
  8  9  2  0  0  0
  8 10  1  0  0  0
 10 11  1  0  0  0
 10 49  1  0  0  0
 11 16  2  0  0  0
 11 12  1  0  0  0
 12 13  2  0  0  0
 12 50  1  0  0  0
 13 14  1  0  0  0
 13 51  1  0  0  0
 14 15  2  0  0  0
 14 52  1  0  0  0
 15 16  1  0  0  0
 15 17  1  0  0  0
 16 53  1  0  0  0
 17 18  1  0  0  0
 17 24  1  0  0  0
 17 19  1  0  0  0
 19 20  1  0  0  0
 19 21  1  0  0  0
 19 32  1  0  0  0
 21 22  1  0  0  0
 21 25  1  0  0  0
 22 23  2  0  0  0
 22 24  1  0  0  0
 25 26  1  0  0  0
 25 54  1  0  0  0
 25 55  1  0  0  0
 26 31  2  0  0  0
 26 27  1  0  0  0
 27 28  2  0  0  0
 27 56  1  0  0  0
 28 29  1  0  0  0
 28 57  1  0  0  0
 29 30  2  0  0  0
 29 58  1  0  0  0
 30 31  1  0  0  0
 30 59  1  0  0  0
 31 60  1  0  0  0
 32 33  2  0  0  0
 32 34  1  0  0  0
 34 35  1  0  0  0
 34 61  1  0  0  0
 35 40  2  0  0  0
 35 36  1  0  0  0
 36 37  2  0  0  0
 36 62  1  0  0  0
 37 38  1  0  0  0
 37 63  1  0  0  0
 38 39  2  0  0  0
 38 64  1  0  0  0
 39 40  1  0  0  0
 39 41  1  0  0  0
 40 65  1  0  0  0
M  END
> <i_i_glide_confnum>
88

> <i_i_glide_lignum>
5405

> <i_i_glide_posenum>
162

> <i_i_glide_rotatable_bonds>
9

> <i_m_Source_File_Index>
38

> <b_m_subgroup_collapsed>
0

> <r_i_docking_score>
-5.82991

> <r_i_glide_ecoul>
-9.44866

> <r_i_glide_eff_state_penalty>
0

> <r_i_glide_einternal>
8.69064

> <r_i_glide_emodel>
-69.2349

> <r_i_glide_energy>
-52.3361

> <r_i_glide_erotb>
0.675418

> <r_i_glide_esite>
-0.139202

> <r_i_glide_evdw>
-42.8874

> <r_i_glide_gscore>
-5.82991

> <r_i_glide_hbond>
-0.16

> <r_i_glide_ligand_efficiency>
-0.149485

> <r_i_glide_ligand_efficiency_ln>
-1.2501

> <r_i_glide_ligand_efficiency_sa>
-0.506935

> <r_i_glide_lipo>
-2.24677

> <r_i_glide_metal>
0

> <r_i_glide_rewards>
-0.397688

> <s_i_glide_gridfile>
wee1_glide-grid

> <s_m_Source_File>
wee1_decoys_glide_SP.sdf

> <s_m_Source_Path>
/Users/zhangxujun/Desktop

> <s_m_entry_id>
313

> <s_m_entry_name>
wee1_decoys_glide_SP.38

> <s_m_subgroup_title>
wee1_decoys_glide_SP

> <s_m_subgroupid>
wee1_decoys_glide_SP


$$$$
