@<TRIPOS>MOLECULE
ZINC20480364_3567
30   32    1
SMALL
USER_CHARGES


@<TRIPOS>ATOM
      1 C1         -0.8345   51.6282   26.7604 C.ar      1 UNK         0.0000 
      2 C2         -1.8474   51.2969   27.6564 C.ar      1 UNK         0.0000 
      3 C3         -3.1798   51.4042   27.2735 C.ar      1 UNK         0.0000 
      4 C4         -3.5100   51.8532   25.9977 C.ar      1 UNK         0.0000 
      5 C5         -2.5002   52.1969   25.1020 C.ar      1 UNK         0.0000 
      6 C6         -1.1511   52.0963   25.4736 C.ar      1 UNK         0.0000 
      7 C7         -0.0725   52.4967   24.4895 C.2       1 UNK         0.0000 
      8 O8         -0.3138   52.4946   23.2808 O.2       1 UNK         0.0000 
      9 N9          1.0934   52.8972   25.0461 N.am      1 UNK         0.0000 
     10 C10         2.2479   53.3407   24.4227 C.2       1 UNK         0.0000 
     11 N11         3.2599   53.7008   25.1578 N.2       1 UNK         0.0000 
     12 C12         4.3139   54.0968   24.3959 C.ar      1 UNK         0.0000 
     13 C13         5.5537   54.5102   24.9018 C.ar      1 UNK         0.0000 
     14 C14         6.5423   54.8970   23.9939 C.ar      1 UNK         0.0000 
     15 C15         6.3182   54.8754   22.6159 C.ar      1 UNK         0.0000 
     16 C16         5.1028   54.4390   22.0878 C.ar      1 UNK         0.0000 
     17 C17         4.1012   54.0519   22.9898 C.ar      1 UNK         0.0000 
     18 S18         2.4760   53.4575   22.6811 S.3       1 UNK         0.0000 
     19 N19         7.3290   55.2997   21.7577 N.pl3     1 UNK         0.0000 
     20 I20        -4.6910   50.8990   28.6273 I         1 UNK         0.0000 
     21 H21         0.1882   51.5018   27.0834 H         1 UNK         0.0000 
     22 H22        -1.6000   50.9219   28.6399 H         1 UNK         0.0000 
     23 H23        -4.5462   51.9303   25.7025 H         1 UNK         0.0000 
     24 H24        -2.7760   52.5480   24.1195 H         1 UNK         0.0000 
     25 H25         1.1359   52.8968   26.0520 H         1 UNK         0.0000 
     26 H26         5.7368   54.5345   25.9652 H         1 UNK         0.0000 
     27 H27         7.5021   55.2280   24.3689 H         1 UNK         0.0000 
     28 H28         4.9288   54.4088   21.0232 H         1 UNK         0.0000 
     29 H29         8.2517   55.4316   22.1531 H         1 UNK         0.0000 
     30 H30         7.2093   55.2012   20.7596 H         1 UNK         0.0000 
@<TRIPOS>BOND
     1    1    6 ar   
     2    1    2 ar   
     3    1   21 1    
     4    2    3 ar   
     5    2   22 1    
     6    3    4 ar   
     7    3   20 1    
     8    4    5 ar   
     9    4   23 1    
    10    5    6 ar   
    11    5   24 1    
    12    6    7 1    
    13    7    8 2    
    14    7    9 am   BACKBONE|DICT|INTERRES
    15    9   10 am   BACKBONE|DICT|INTERRES
    16    9   25 1    
    17   10   18 1    
    18   10   11 2    
    19   11   12 1    
    20   12   17 ar   
    21   12   13 ar   
    22   13   14 ar   
    23   13   26 1    
    24   14   15 ar   
    25   14   27 1    
    26   15   16 ar   
    27   15   19 1    
    28   16   17 ar   
    29   16   28 1    
    30   17   18 1    
    31   19   29 1    
    32   19   30 1    
@<TRIPOS>SUBSTRUCTURE
     1 UNK         1 GROUP             0       ****    0 ROOT    
