@<TRIPOS>MOLECULE
ZINC10272803_5025
53   55    1
SMALL
USER_CHARGES


@<TRIPOS>ATOM
      1 C1          4.7153   53.1058   28.6436 C.3       1 UNK         0.0000 
      2 C2          3.3550   53.1535   29.3860 C.3       1 UNK         0.0000 
      3 C3          3.5071   52.3232   30.6866 C.3       1 UNK         0.0000 
      4 C4          3.0940   54.6052   29.8060 C.3       1 UNK         0.0000 
      5 C5          2.1965   52.6782   28.4769 C.ar      1 UNK         0.0000 
      6 C6          1.2399   51.7448   28.9065 C.ar      1 UNK         0.0000 
      7 C7          0.1668   51.3894   28.0938 C.ar      1 UNK         0.0000 
      8 C8          0.0322   51.9686   26.8353 C.ar      1 UNK         0.0000 
      9 C9          0.9891   52.8791   26.3866 C.ar      1 UNK         0.0000 
     10 C10         2.0542   53.2369   27.2014 C.ar      1 UNK         0.0000 
     11 S11        -1.3796   51.5613   25.8033 S.o2      1 UNK         0.0000 
     12 O12        -2.1381   50.4970   26.4668 O.2       1 UNK         0.0000 
     13 O13        -2.0525   52.8184   25.4575 O.2       1 UNK         0.0000 
     14 C14        -0.6715   50.8572   24.3195 C.ar      1 UNK         0.0000 
     15 C15        -0.5556   49.4730   24.1809 C.ar      1 UNK         0.0000 
     16 N16         0.0168   48.8969   23.0906 N.ar      1 UNK         0.0000 
     17 C17         0.4934   49.7372   22.1350 C.ar      1 UNK         0.0000 
     18 N18         0.4005   51.0887   22.1668 N.ar      1 UNK         0.0000 
     19 C19        -0.1664   51.6308   23.2698 C.ar      1 UNK         0.0000 
     20 O20        -0.1655   52.8958   23.2814 O.co2     1 UNK         0.0000 
     21 S21         1.3291   48.9933   20.7599 S.3       1 UNK         0.0000 
     22 C22         2.1510   50.3044   19.7797 C.3       1 UNK         0.0000 
     23 C23         3.1412   51.1973   20.5450 C.2       1 UNK         0.0000 
     24 O24         3.5043   50.8963   21.6814 O.2       1 UNK         0.0000 
     25 N25         3.5836   52.2780   19.8718 N.am      1 UNK         0.0000 
     26 C26         4.4787   53.2723   20.3033 C.ar      1 UNK         0.0000 
     27 C27         5.0415   54.0778   19.3079 C.ar      1 UNK         0.0000 
     28 C28         5.9486   55.0832   19.6407 C.ar      1 UNK         0.0000 
     29 C29         6.3030   55.2913   20.9725 C.ar      1 UNK         0.0000 
     30 C30         5.7434   54.4982   21.9765 C.ar      1 UNK         0.0000 
     31 C31         4.8232   53.5044   21.6472 C.ar      1 UNK         0.0000 
     32 F32         6.0886   54.6913   23.2705 F         1 UNK         0.0000 
     33 F33         7.1940   56.2556   21.2835 F         1 UNK         0.0000 
     34 H34         5.5264   53.4575   29.2813 H         1 UNK         0.0000 
     35 H35         4.7339   53.7354   27.7541 H         1 UNK         0.0000 
     36 H36         4.9696   52.0967   28.3328 H         1 UNK         0.0000 
     37 H37         2.6040   52.3266   31.2988 H         1 UNK         0.0000 
     38 H38         3.7693   51.2967   30.4551 H         1 UNK         0.0000 
     39 H39         4.3045   52.7103   31.3222 H         1 UNK         0.0000 
     40 H40         2.1401   54.7183   30.3240 H         1 UNK         0.0000 
     41 H41         3.8904   54.8966   30.4813 H         1 UNK         0.0000 
     42 H42         3.1004   55.2954   28.9609 H         1 UNK         0.0000 
     43 H43         1.2934   51.2970   29.8827 H         1 UNK         0.0000 
     44 H44        -0.5655   50.6775   28.4490 H         1 UNK         0.0000 
     45 H45         0.8991   53.3486   25.4221 H         1 UNK         0.0000 
     46 H46         2.7546   53.9718   26.8350 H         1 UNK         0.0000 
     47 H47        -0.9053   48.8030   24.9538 H         1 UNK         0.0000 
     48 H48         2.6923   49.8240   18.9624 H         1 UNK         0.0000 
     49 H49         1.3751   50.9223   19.3286 H         1 UNK         0.0000 
     50 H50         3.3196   52.3318   18.9001 H         1 UNK         0.0000 
     51 H51         4.7879   53.9242   18.2673 H         1 UNK         0.0000 
     52 H52         6.3838   55.6975   18.8646 H         1 UNK         0.0000 
     53 H53         4.3950   52.9343   22.4557 H         1 UNK         0.0000 
@<TRIPOS>BOND
     1    1    2 1    
     2    1   34 1    
     3    1   35 1    
     4    1   36 1    
     5    2    3 1    
     6    2    4 1    
     7    2    5 1    
     8    3   37 1    
     9    3   38 1    
    10    3   39 1    
    11    4   40 1    
    12    4   41 1    
    13    4   42 1    
    14    5   10 ar   
    15    5    6 ar   
    16    6    7 ar   
    17    6   43 1    
    18    7    8 ar   
    19    7   44 1    
    20    8    9 ar   
    21    8   11 1    
    22    9   10 ar   
    23    9   45 1    
    24   10   46 1    
    25   11   12 2    
    26   11   13 2    
    27   11   14 1    
    28   14   19 ar   
    29   14   15 ar   
    30   15   47 1    
    31   15   16 ar   
    32   16   17 ar   
    33   17   21 1    
    34   17   18 ar   
    35   18   19 ar   
    36   19   20 1    
    37   21   22 1    
    38   22   23 1    
    39   22   48 1    
    40   22   49 1    
    41   23   24 2    
    42   23   25 am   BACKBONE|DICT|INTERRES
    43   25   26 1    
    44   25   50 1    
    45   26   31 ar   
    46   26   27 ar   
    47   27   28 ar   
    48   27   51 1    
    49   28   29 ar   
    50   28   52 1    
    51   29   30 ar   
    52   29   33 1    
    53   30   31 ar   
    54   30   32 1    
    55   31   53 1    
@<TRIPOS>SUBSTRUCTURE
     1 UNK         1 GROUP             0       ****    0 ROOT    
