@<TRIPOS>MOLECULE
ZINC09407261_1425
52   55    1
SMALL
USER_CHARGES


@<TRIPOS>ATOM
      1 C1         -7.1393   42.2965   26.0914 C.3       1 UNK         0.0000 
      2 C2         -6.2100   43.4867   25.9417 C.ar      1 UNK         0.0000 
      3 C3         -6.1652   44.2204   24.7531 C.ar      1 UNK         0.0000 
      4 C4         -5.2627   45.2801   24.6290 C.ar      1 UNK         0.0000 
      5 C5         -4.4184   45.5841   25.7114 C.ar      1 UNK         0.0000 
      6 N6         -4.4926   44.9031   26.8817 N.ar      1 UNK         0.0000 
      7 C7         -5.3560   43.8628   26.9806 C.ar      1 UNK         0.0000 
      8 N8         -3.3951   46.5489   25.6547 N.am      1 UNK         0.0000 
      9 C9         -2.6958   46.9301   24.5607 C.2       1 UNK         0.0000 
     10 O10        -2.8096   46.3643   23.4695 O.2       1 UNK         0.0000 
     11 C11        -1.5786   47.9864   24.7620 C.3       1 UNK         0.0000 
     12 C12        -0.8943   48.3871   23.4231 C.3       1 UNK         0.0000 
     13 C13         0.2864   49.3421   23.7151 C.3       1 UNK         0.0000 
     14 N14        -0.1748   50.5016   24.5175 N.pl3     1 UNK         0.0000 
     15 C15        -0.8969   50.1880   25.7786 C.3       1 UNK         0.0000 
     16 C16        -2.0952   49.2471   25.5090 C.3       1 UNK         0.0000 
     17 S17        -0.1812   52.1474   23.8473 S.o2      1 UNK         0.0000 
     18 O18        -0.0685   52.0655   22.3857 O.2       1 UNK         0.0000 
     19 O19        -1.2697   52.8969   24.4828 O.2       1 UNK         0.0000 
     20 C20         1.3466   52.8926   24.4417 C.ar      1 UNK         0.0000 
     21 C21         1.5045   53.1314   25.8114 C.ar      1 UNK         0.0000 
     22 C22         2.6838   53.6966   26.3025 C.ar      1 UNK         0.0000 
     23 C23         3.7142   54.0197   25.4212 C.ar      1 UNK         0.0000 
     24 C24         3.5605   53.7893   24.0427 C.ar      1 UNK         0.0000 
     25 C25         2.3771   53.2290   23.5526 C.ar      1 UNK         0.0000 
     26 C26         4.7276   54.0966   23.1912 C.ar      1 UNK         0.0000 
     27 C27         5.8798   54.5429   23.7465 C.ar      1 UNK         0.0000 
     28 C28         6.0322   54.8215   25.1673 C.ar      1 UNK         0.0000 
     29 O29         7.0402   55.2963   25.6820 O.2       1 UNK         0.0000 
     30 N30         4.9303   54.5417   25.9002 N.pl3     1 UNK         0.0000 
     31 H31         5.0486   54.7220   26.8819 H         1 UNK         0.0000 
     32 H32        -8.0818   42.6026   26.5469 H         1 UNK         0.0000 
     33 H33        -6.6847   41.5246   26.7146 H         1 UNK         0.0000 
     34 H34        -7.3450   41.8353   25.1245 H         1 UNK         0.0000 
     35 H35        -6.8136   43.9679   23.9269 H         1 UNK         0.0000 
     36 H36        -5.2210   45.8372   23.7053 H         1 UNK         0.0000 
     37 H37        -5.3359   43.3156   27.9121 H         1 UNK         0.0000 
     38 H38        -3.0838   46.9064   26.5486 H         1 UNK         0.0000 
     39 H39        -0.8948   47.4721   25.4410 H         1 UNK         0.0000 
     40 H40        -0.4957   47.5149   22.9106 H         1 UNK         0.0000 
     41 H41        -1.5847   48.9256   22.7711 H         1 UNK         0.0000 
     42 H42         1.0980   48.8507   24.2543 H         1 UNK         0.0000 
     43 H43         0.7176   49.7056   22.7813 H         1 UNK         0.0000 
     44 H44        -0.1919   49.7490   26.4851 H         1 UNK         0.0000 
     45 H45        -1.2471   51.1148   26.2313 H         1 UNK         0.0000 
     46 H46        -2.8034   49.8143   24.9023 H         1 UNK         0.0000 
     47 H47        -2.5182   49.0072   26.4816 H         1 UNK         0.0000 
     48 H48         0.7094   52.8741   26.4972 H         1 UNK         0.0000 
     49 H49         2.7943   53.8675   27.3622 H         1 UNK         0.0000 
     50 H50         2.2668   53.0424   22.4934 H         1 UNK         0.0000 
     51 H51         4.6724   53.9345   22.1227 H         1 UNK         0.0000 
     52 H52         6.7354   54.7463   23.1185 H         1 UNK         0.0000 
@<TRIPOS>BOND
     1    1    2 1    
     2    1   32 1    
     3    1   33 1    
     4    1   34 1    
     5    2    7 ar   
     6    2    3 ar   
     7    3    4 ar   
     8    3   35 1    
     9    4    5 ar   
    10    4   36 1    
    11    5    6 ar   
    12    5    8 1    
    13    6    7 ar   
    14    7   37 1    
    15    8    9 am   BACKBONE|DICT|INTERRES
    16    8   38 1    
    17    9   10 2    
    18    9   11 1    
    19   11   16 1    
    20   11   12 1    
    21   11   39 1    
    22   12   13 1    
    23   12   40 1    
    24   12   41 1    
    25   13   14 1    
    26   13   42 1    
    27   13   43 1    
    28   14   15 1    
    29   14   17 1    
    30   15   16 1    
    31   15   44 1    
    32   15   45 1    
    33   16   46 1    
    34   16   47 1    
    35   17   18 2    
    36   17   19 2    
    37   17   20 1    
    38   20   25 ar   
    39   20   21 ar   
    40   21   22 ar   
    41   21   48 1    
    42   22   23 ar   
    43   22   49 1    
    44   23   30 ar   
    45   23   24 ar   
    46   24   25 ar   
    47   24   26 ar   
    48   25   50 1    
    49   26   27 ar   
    50   26   51 1    
    51   27   28 ar   
    52   27   52 1    
    53   28   29 2    
    54   28   30 ar   
    55   30   31 1    
@<TRIPOS>SUBSTRUCTURE
     1 UNK         1 GROUP             0       ****    0 ROOT    
