ZINC09410831_4874
                    3D
 Schrodinger Suite 2024-2.
 57 60  0  0  1  0            999 V2000
    0.9217   52.3055   27.9370 C   0  0  0  0  0  0
   -0.2720   51.4026   27.6002 C   0  0  2  0  0  0
   -0.5676   50.8962   28.5206 H   0  0  0  0  0  0
    0.0924   50.3844   26.4962 C   0  0  0  0  0  0
   -2.3553   50.5740   25.7027 C   0  0  0  0  0  0
   -2.5802   51.5795   26.8517 C   0  0  2  0  0  0
   -3.2429   52.3644   26.4835 H   0  0  0  0  0  0
   -1.3385   52.2313   27.1377 O   0  0  0  0  0  0
   -3.2589   50.9677   28.0962 C   0  0  0  0  0  0
   -0.9588   48.4890   25.0555 C   0  0  0  0  0  0
   -0.0703   48.8766   23.8568 C   0  0  0  0  0  0
   -0.4067   50.1658   23.3503 O   0  0  0  0  0  0
    0.5375   50.8031   22.5794 C   0  0  0  0  0  0
    0.6354   52.1896   22.6823 C   0  0  0  0  0  0
    1.6051   52.8846   21.9606 C   0  0  0  0  0  0
    2.4856   52.2023   21.1113 C   0  0  0  0  0  0
    2.3385   50.8145   20.9591 C   0  0  0  0  0  0
    1.3865   50.1225   21.7008 C   0  0  0  0  0  0
    3.1048   50.0967   20.0807 O   0  0  0  0  0  0
    3.5456   52.9482   20.3654 C   0  0  0  0  0  0
    4.6485   53.7272   20.8341 C   0  0  0  0  0  0
    5.2771   54.1080   19.6496 C   0  0  0  0  0  0
    4.5612   53.5658   18.6264 N   0  0  0  0  0  0
    4.7873   53.6448   17.6449 H   0  0  0  0  0  0
    3.5123   52.8750   19.0493 N   0  0  0  0  0  0
    5.1175   54.0993   22.2204 C   0  0  0  0  0  0
    6.2635   54.8967   22.3631 C   0  0  0  0  0  0
    6.7045   55.2939   23.6223 C   0  0  0  0  0  0
    6.0326   54.8696   24.7609 C   0  0  0  0  0  0
    4.8877   54.0963   24.6422 C   0  0  0  0  0  0
    4.4478   53.6974   23.3822 C   0  0  0  0  0  0
    6.7046   55.2971   26.4873 Br  0  0  0  0  0  0
    1.7705   51.7247   28.2998 H   0  0  0  0  0  0
    0.6554   53.0230   28.7139 H   0  0  0  0  0  0
    1.2499   52.8732   27.0655 H   0  0  0  0  0  0
    0.5144   50.8609   25.6113 H   0  0  0  0  0  0
    0.7674   49.6191   26.8816 H   0  0  0  0  0  0
   -2.1107   51.0680   24.7636 H   0  0  0  0  0  0
   -3.2362   49.9418   25.5813 H   0  0  0  0  0  0
   -4.2660   50.6236   27.8604 H   0  0  0  0  0  0
   -2.7259   50.1105   28.5009 H   0  0  0  0  0  0
   -3.3465   51.6967   28.8969 H   0  0  0  0  0  0
   -0.4958   47.6980   25.6477 H   0  0  0  0  0  0
   -1.9472   48.1408   24.7532 H   0  0  0  0  0  0
    0.9752   48.8509   24.1734 H   0  0  0  0  0  0
   -0.1834   48.1286   23.0716 H   0  0  0  0  0  0
   -0.0237   52.7251   23.3493 H   0  0  0  0  0  0
    1.6878   53.9561   22.0819 H   0  0  0  0  0  0
    1.3063   49.0538   21.5732 H   0  0  0  0  0  0
    3.6316   50.6324   19.4727 H   0  0  0  0  0  0
    6.1594   54.6947   19.4420 H   0  0  0  0  0  0
    6.8171   55.2400   21.5031 H   0  0  0  0  0  0
    7.5676   55.9305   23.7157 H   0  0  0  0  0  0
    4.3696   53.7568   25.5269 H   0  0  0  0  0  0
    3.5963   53.0477   23.3466 H   0  0  0  0  0  0
   -1.1903   49.6271   26.0817 N   0  3  1  0  0  0
   -1.4732   49.1549   26.9531 H   0  0  0  0  0  0
  1  2  1  0  0  0
  1 33  1  0  0  0
  1 34  1  0  0  0
  1 35  1  0  0  0
  2  3  1  0  0  0
  2  8  1  0  0  0
  2  4  1  0  0  0
  4 36  1  0  0  0
  4 37  1  0  0  0
  4 56  1  0  0  0
  5  6  1  0  0  0
  5 38  1  0  0  0
  5 39  1  0  0  0
  5 56  1  0  0  0
  6  7  1  0  0  0
  6  8  1  0  0  0
  6  9  1  0  0  0
  9 40  1  0  0  0
  9 41  1  0  0  0
  9 42  1  0  0  0
 10 11  1  0  0  0
 10 43  1  0  0  0
 10 44  1  0  0  0
 10 56  1  0  0  0
 11 12  1  0  0  0
 11 45  1  0  0  0
 11 46  1  0  0  0
 12 13  1  0  0  0
 13 18  2  0  0  0
 13 14  1  0  0  0
 14 15  2  0  0  0
 14 47  1  0  0  0
 15 16  1  0  0  0
 15 48  1  0  0  0
 16 17  2  0  0  0
 16 20  1  0  0  0
 17 18  1  0  0  0
 17 19  1  0  0  0
 18 49  1  0  0  0
 19 50  1  0  0  0
 20 25  2  0  0  0
 20 21  1  0  0  0
 21 22  2  0  0  0
 21 26  1  0  0  0
 22 23  1  0  0  0
 22 51  1  0  0  0
 23 24  1  0  0  0
 23 25  1  0  0  0
 26 31  2  0  0  0
 26 27  1  0  0  0
 27 28  2  0  0  0
 27 52  1  0  0  0
 28 29  1  0  0  0
 28 53  1  0  0  0
 29 30  2  0  0  0
 29 32  1  0  0  0
 30 31  1  0  0  0
 30 54  1  0  0  0
 31 55  1  0  0  0
 56 57  1  0  0  0
M  CHG  1  56   1
M  END
> <i_i_glide_confnum>
72

> <i_i_glide_lignum>
4875

> <i_i_glide_posenum>
146

> <i_i_glide_rotatable_bonds>
7

> <i_m_Source_File_Index>
4115

> <b_m_subgroup_collapsed>
0

> <r_i_docking_score>
-4.90117

> <r_i_glide_ecoul>
-7.32762

> <r_i_glide_eff_state_penalty>
0

> <r_i_glide_einternal>
14.1105

> <r_i_glide_emodel>
-50.9757

> <r_i_glide_energy>
-42.8057

> <r_i_glide_erotb>
0.541577

> <r_i_glide_esite>
-0.14452

> <r_i_glide_evdw>
-35.4781

> <r_i_glide_gscore>
-4.90117

> <r_i_glide_hbond>
-0.294952

> <r_i_glide_ligand_efficiency>
-0.163372

> <r_i_glide_ligand_efficiency_ln>
-1.1136

> <r_i_glide_ligand_efficiency_sa>
-0.507635

> <r_i_glide_lipo>
-2.09974

> <r_i_glide_metal>
0

> <r_i_glide_rewards>
-0.0304784

> <s_i_glide_gridfile>
wee1_glide-grid

> <s_m_Source_File>
wee1_decoys_glide_SP.sdf

> <s_m_Source_Path>
/Users/zhangxujun/Desktop

> <s_m_entry_id>
4390

> <s_m_entry_name>
wee1_decoys_glide_SP.4115

> <s_m_subgroup_title>
wee1_decoys_glide_SP

> <s_m_subgroupid>
wee1_decoys_glide_SP


$$$$
