@<TRIPOS>MOLECULE
ZINC66888435_1357
54   56    1
SMALL
USER_CHARGES


@<TRIPOS>ATOM
      1 C1         -0.7438   52.8965   24.2226 C.3       1 UNK         0.0000 
      2 C2          0.4491   52.0373   24.6963 C.3       1 UNK         0.0000 
      3 H3          0.0548   51.0239   24.8003 H         1 UNK         0.0000 
      4 C4          0.9403   52.4351   26.0975 C.ar      1 UNK         0.0000 
      5 C5          0.3175   51.8696   27.2185 C.ar      1 UNK         0.0000 
      6 C6          0.7598   52.1780   28.5031 C.ar      1 UNK         0.0000 
      7 C7          1.8305   53.0517   28.6738 C.ar      1 UNK         0.0000 
      8 C8          2.4603   53.6185   27.5692 C.ar      1 UNK         0.0000 
      9 C9          2.0197   53.3083   26.2848 C.ar      1 UNK         0.0000 
     10 F10         2.2653   53.3509   29.9198 F         1 UNK         0.0000 
     11 N11         1.4981   51.8492   23.6789 N.am      1 UNK         0.0000 
     12 C12         2.0952   52.7762   22.9093 C.2       1 UNK         0.0000 
     13 O13         1.8586   53.9831   22.9523 O.2       1 UNK         0.0000 
     14 N14         2.9908   52.2165   22.0804 N.am      1 UNK         0.0000 
     15 C15         3.7627   52.9195   21.0504 C.3       1 UNK         0.0000 
     16 C16         4.8915   53.8743   21.4903 C.ar      1 UNK         0.0000 
     17 C17         5.2159   54.0321   22.8490 C.ar      1 UNK         0.0000 
     18 C18         6.3045   54.8119   23.2322 C.ar      1 UNK         0.0000 
     19 C19         7.0521   55.4362   22.2400 C.ar      1 UNK         0.0000 
     20 N20         6.7678   55.3130   20.9241 N.ar      1 UNK         0.0000 
     21 C21         5.7151   54.5343   20.5444 C.ar      1 UNK         0.0000 
     22 N22         5.5673   54.3858   19.1683 N.pl3     1 UNK         0.0000 
     23 C23         4.3428   54.7597   18.4467 C.3       1 UNK         0.0000 
     24 C24         3.9916   53.7620   17.3260 C.3       1 UNK         0.0000 
     25 N25         5.1700   53.6907   16.3348 N.4       1 UNK         0.0000 
     26 C26         6.4665   53.2930   17.0702 C.3       1 UNK         0.0000 
     27 C27         6.7192   54.2494   18.2569 C.3       1 UNK         0.0000 
     28 C28         4.8608   52.6768   15.2118 C.3       1 UNK         0.0000 
     29 H29        -1.5619   52.8714   24.9434 H         1 UNK         0.0000 
     30 H30        -0.4629   53.9404   24.0815 H         1 UNK         0.0000 
     31 H31        -1.1354   52.5355   23.2711 H         1 UNK         0.0000 
     32 H32        -0.5073   51.1801   27.1009 H         1 UNK         0.0000 
     33 H33         0.2769   51.7366   29.3633 H         1 UNK         0.0000 
     34 H34         3.2907   54.2942   27.7095 H         1 UNK         0.0000 
     35 H35         2.5221   53.7606   25.4448 H         1 UNK         0.0000 
     36 H36         1.9072   50.9274   23.6732 H         1 UNK         0.0000 
     37 H37         3.0917   51.2127   22.0947 H         1 UNK         0.0000 
     38 H38         4.2201   52.1551   20.4194 H         1 UNK         0.0000 
     39 H39         3.0503   53.4328   20.4108 H         1 UNK         0.0000 
     40 H40         4.6481   53.5372   23.6217 H         1 UNK         0.0000 
     41 H41         6.5641   54.9257   24.2744 H         1 UNK         0.0000 
     42 H42         7.9046   56.0500   22.4934 H         1 UNK         0.0000 
     43 H43         3.5048   54.9366   19.1163 H         1 UNK         0.0000 
     44 H44         4.5412   55.7413   18.0122 H         1 UNK         0.0000 
     45 H45         3.1348   54.1225   16.7542 H         1 UNK         0.0000 
     46 H46         3.7947   52.7540   17.7015 H         1 UNK         0.0000 
     47 H47         7.2676   53.3811   16.3343 H         1 UNK         0.0000 
     48 H48         6.3693   52.2543   17.3895 H         1 UNK         0.0000 
     49 H49         6.9012   55.2560   17.8764 H         1 UNK         0.0000 
     50 H50         7.6207   53.9581   18.7983 H         1 UNK         0.0000 
     51 H51         4.7034   51.6967   15.6689 H         1 UNK         0.0000 
     52 H52         3.9627   53.0192   14.6953 H         1 UNK         0.0000 
     53 H53         5.7148   52.6639   14.5327 H         1 UNK         0.0000 
     54 H54         5.3013   54.6141   15.9430 H         1 UNK         0.0000 
@<TRIPOS>BOND
     1    1    2 1    
     2    1   29 1    
     3    1   30 1    
     4    1   31 1    
     5    2    3 1    
     6    2    4 1    
     7    2   11 1    
     8    4    9 ar   
     9    4    5 ar   
    10    5    6 ar   
    11    5   32 1    
    12    6    7 ar   
    13    6   33 1    
    14    7    8 ar   
    15    7   10 1    
    16    8    9 ar   
    17    8   34 1    
    18    9   35 1    
    19   11   12 am   BACKBONE|DICT|INTERRES
    20   11   36 1    
    21   12   13 2    
    22   12   14 am   BACKBONE|DICT|INTERRES
    23   14   15 1    
    24   14   37 1    
    25   15   16 1    
    26   15   38 1    
    27   15   39 1    
    28   16   21 ar   
    29   16   17 ar   
    30   17   18 ar   
    31   17   40 1    
    32   18   19 ar   
    33   18   41 1    
    34   19   20 ar   
    35   19   42 1    
    36   20   21 ar   
    37   21   22 1    
    38   22   27 1    
    39   22   23 1    
    40   23   24 1    
    41   23   43 1    
    42   23   44 1    
    43   24   25 1    
    44   24   45 1    
    45   24   46 1    
    46   25   26 1    
    47   25   28 1    
    48   25   54 1    
    49   26   27 1    
    50   26   47 1    
    51   26   48 1    
    52   27   49 1    
    53   27   50 1    
    54   28   51 1    
    55   28   52 1    
    56   28   53 1    
@<TRIPOS>SUBSTRUCTURE
     1 UNK         1 GROUP             0       ****    0 ROOT    
