@<TRIPOS>MOLECULE
ZINC49167792_3837
36   38    1
SMALL
USER_CHARGES


@<TRIPOS>ATOM
      1 C1          3.4779   53.7831   30.1022 C.3       1 UNK         0.0000 
      2 C2          3.9461   53.8745   28.6639 C.ar      1 UNK         0.0000 
      3 C3          5.3021   54.0950   28.4131 C.ar      1 UNK         0.0000 
      4 C4          5.7700   54.1927   27.1084 C.ar      1 UNK         0.0000 
      5 C5          4.8765   54.0970   26.0310 C.ar      1 UNK         0.0000 
      6 C6          3.5237   53.8590   26.2809 C.ar      1 UNK         0.0000 
      7 C7          3.0477   53.7492   27.5900 C.ar      1 UNK         0.0000 
      8 C8          1.5636   53.4896   27.8194 C.3       1 UNK         0.0000 
      9 N9          5.2635   54.2038   24.6874 N.am      1 UNK         0.0000 
     10 C10         6.3042   54.8970   24.1914 C.2       1 UNK         0.0000 
     11 O11         7.1044   55.5403   24.8741 O.2       1 UNK         0.0000 
     12 C12         6.3939   54.8967   22.7512 C.ar      1 UNK         0.0000 
     13 C13         5.5127   54.5114   21.7313 C.ar      1 UNK         0.0000 
     14 C14         6.1512   54.8966   20.5259 C.ar      1 UNK         0.0000 
     15 N15         7.3164   55.4613   20.7600 N.2       1 UNK         0.0000 
     16 N16         7.4519   55.4478   22.0818 N.pl3     1 UNK         0.0000 
     17 H17         8.2828   55.7934   22.5473 H         1 UNK         0.0000 
     18 C18         5.7316   54.7215   19.0738 C.3       1 UNK         0.0000 
     19 C19         5.0693   53.4459   18.6125 C.3       1 UNK         0.0000 
     20 C20         4.2880   54.7502   18.6392 C.3       1 UNK         0.0000 
     21 Br21        3.8070   53.6725   21.9223 Br        1 UNK         0.0000 
     22 H22         3.0149   52.8144   30.2931 H         1 UNK         0.0000 
     23 H23         4.3042   53.9135   30.8038 H         1 UNK         0.0000 
     24 H24         2.7322   54.5567   30.2880 H         1 UNK         0.0000 
     25 H25         6.0042   54.1951   29.2276 H         1 UNK         0.0000 
     26 H26         6.8285   54.3386   26.9571 H         1 UNK         0.0000 
     27 H27         2.8337   53.7686   25.4536 H         1 UNK         0.0000 
     28 H28         1.1009   54.3410   28.3214 H         1 UNK         0.0000 
     29 H29         1.0289   53.2980   26.8894 H         1 UNK         0.0000 
     30 H30         1.4261   52.6159   28.4577 H         1 UNK         0.0000 
     31 H31         4.6432   53.7822   24.0123 H         1 UNK         0.0000 
     32 H32         6.4338   55.1631   18.3641 H         1 UNK         0.0000 
     33 H33         4.8477   52.6659   19.3415 H         1 UNK         0.0000 
     34 H34         5.3686   53.0207   17.6536 H         1 UNK         0.0000 
     35 H35         4.0435   55.2370   17.6946 H         1 UNK         0.0000 
     36 H36         3.5069   54.8971   19.3824 H         1 UNK         0.0000 
@<TRIPOS>BOND
     1    1    2 1    
     2    1   22 1    
     3    1   23 1    
     4    1   24 1    
     5    2    7 ar   
     6    2    3 ar   
     7    3    4 ar   
     8    3   25 1    
     9    4    5 ar   
    10    4   26 1    
    11    5    6 ar   
    12    5    9 1    
    13    6    7 ar   
    14    6   27 1    
    15    7    8 1    
    16    8   28 1    
    17    8   29 1    
    18    8   30 1    
    19    9   10 am   BACKBONE|DICT|INTERRES
    20    9   31 1    
    21   10   11 2    
    22   10   12 1    
    23   12   16 ar   
    24   12   13 ar   
    25   13   14 ar   
    26   13   21 1    
    27   14   15 ar   
    28   14   18 1    
    29   15   16 ar   
    30   16   17 1    
    31   18   20 1    
    32   18   19 1    
    33   18   32 1    
    34   19   20 1    
    35   19   33 1    
    36   19   34 1    
    37   20   35 1    
    38   20   36 1    
@<TRIPOS>SUBSTRUCTURE
     1 UNK         1 GROUP             0       ****    0 ROOT    
