@<TRIPOS>MOLECULE
ZINC12342071_2344
47   50    1
SMALL
USER_CHARGES


@<TRIPOS>ATOM
      1 C1          1.1934   56.4965   31.1361 C.3       1 UNK         0.0000 
      2 C2          1.4067   55.4944   30.0457 C.ar      1 UNK         0.0000 
      3 C3          0.7764   54.2480   30.0507 C.ar      1 UNK         0.0000 
      4 C4          0.9329   53.3988   28.9546 C.ar      1 UNK         0.0000 
      5 C5          1.7241   53.7968   27.8644 C.ar      1 UNK         0.0000 
      6 C6          2.3637   55.0384   27.9244 C.ar      1 UNK         0.0000 
      7 C7          2.2193   55.8782   29.0023 C.ar      1 UNK         0.0000 
      8 C8          1.8181   52.9507   26.6228 C.2       1 UNK         0.0000 
      9 O9          1.1037   51.9582   26.4755 O.2       1 UNK         0.0000 
     10 C10         2.7403   53.3283   25.5331 C.ar      1 UNK         0.0000 
     11 C11         2.4881   53.3879   24.1543 C.ar      1 UNK         0.0000 
     12 C12         3.6638   53.7737   23.4813 C.ar      1 UNK         0.0000 
     13 C13         4.5973   54.0979   24.4942 C.ar      1 UNK         0.0000 
     14 N14         4.0624   53.6966   25.7399 N.pl3     1 UNK         0.0000 
     15 C15         4.8330   53.7193   26.8871 C.ar      1 UNK         0.0000 
     16 C16         6.0884   54.3130   26.8715 C.ar      1 UNK         0.0000 
     17 C17         6.5740   54.8235   25.6801 C.ar      1 UNK         0.0000 
     18 C18         5.8796   54.6775   24.4899 C.ar      1 UNK         0.0000 
     19 C19         3.8483   53.9530   22.0675 C.2       1 UNK         0.0000 
     20 O20         4.5343   54.8905   21.6605 O.2       1 UNK         0.0000 
     21 N21         3.2736   52.9985   21.3086 N.am      1 UNK         0.0000 
     22 C22         3.2449   52.8711   19.9046 C.ar      1 UNK         0.0000 
     23 C23         2.4277   51.8554   19.3996 C.ar      1 UNK         0.0000 
     24 C24         2.3042   51.6719   18.0250 C.ar      1 UNK         0.0000 
     25 C25         3.0065   52.4971   17.1509 C.ar      1 UNK         0.0000 
     26 C26         3.8370   53.5027   17.6387 C.ar      1 UNK         0.0000 
     27 C27         3.9588   53.6909   19.0120 C.ar      1 UNK         0.0000 
     28 Br28        2.8371   52.2459   15.2729 Br        1 UNK         0.0000 
     29 N29         1.2811   53.1135   23.5768 N.pl3     1 UNK         0.0000 
     30 H30         1.1043   55.9875   32.0821 H         1 UNK         0.0000 
     31 H31         2.0206   57.1978   31.2367 H         1 UNK         0.0000 
     32 H32         0.3043   57.0674   30.8820 H         1 UNK         0.0000 
     33 H33         0.1447   53.9517   30.8760 H         1 UNK         0.0000 
     34 H34         0.4183   52.4487   28.9471 H         1 UNK         0.0000 
     35 H35         2.9509   55.4222   27.1093 H         1 UNK         0.0000 
     36 H36         2.7032   56.8444   29.0043 H         1 UNK         0.0000 
     37 H37         4.3979   53.3155   27.7898 H         1 UNK         0.0000 
     38 H38         6.6675   54.3959   27.7818 H         1 UNK         0.0000 
     39 H39         7.5064   55.3371   25.6523 H         1 UNK         0.0000 
     40 H40         6.3133   55.0346   23.5677 H         1 UNK         0.0000 
     41 H41         2.7603   52.2939   21.8147 H         1 UNK         0.0000 
     42 H42         1.8755   51.2070   20.0653 H         1 UNK         0.0000 
     43 H43         1.6813   50.8813   17.6355 H         1 UNK         0.0000 
     44 H44         4.3850   54.1328   16.9527 H         1 UNK         0.0000 
     45 H45         4.6134   54.4774   19.3508 H         1 UNK         0.0000 
     46 H46         1.1025   53.2990   22.6008 H         1 UNK         0.0000 
     47 H47         0.5170   52.7541   24.1343 H         1 UNK         0.0000 
@<TRIPOS>BOND
     1    1    2 1    
     2    1   30 1    
     3    1   31 1    
     4    1   32 1    
     5    2    7 ar   
     6    2    3 ar   
     7    3    4 ar   
     8    3   33 1    
     9    4    5 ar   
    10    4   34 1    
    11    5    6 ar   
    12    5    8 1    
    13    6    7 ar   
    14    6   35 1    
    15    7   36 1    
    16    8    9 2    
    17    8   10 1    
    18   10   14 ar   
    19   10   11 ar   
    20   11   12 ar   
    21   11   29 1    
    22   12   13 ar   
    23   12   19 1    
    24   13   18 ar   
    25   13   14 ar   
    26   14   15 ar   
    27   15   16 ar   
    28   15   37 1    
    29   16   17 ar   
    30   16   38 1    
    31   17   18 ar   
    32   17   39 1    
    33   18   40 1    
    34   19   20 2    
    35   19   21 am   BACKBONE|DICT|INTERRES
    36   21   22 1    
    37   21   41 1    
    38   22   27 ar   
    39   22   23 ar   
    40   23   24 ar   
    41   23   42 1    
    42   24   25 ar   
    43   24   43 1    
    44   25   26 ar   
    45   25   28 1    
    46   26   27 ar   
    47   26   44 1    
    48   27   45 1    
    49   29   46 1    
    50   29   47 1    
@<TRIPOS>SUBSTRUCTURE
     1 UNK         1 GROUP             0       ****    0 ROOT    
