@<TRIPOS>MOLECULE
ZINC20495152_6029
52   56    1
SMALL
USER_CHARGES


@<TRIPOS>ATOM
      1 C1         -2.6180   47.1734   23.0712 C.ar      1 UNK         0.0000 
      2 C2         -2.7060   46.8726   24.4307 C.ar      1 UNK         0.0000 
      3 C3         -1.7758   47.4069   25.3209 C.ar      1 UNK         0.0000 
      4 C4         -0.7656   48.2524   24.8647 C.ar      1 UNK         0.0000 
      5 C5         -0.6865   48.5729   23.5011 C.ar      1 UNK         0.0000 
      6 C6         -1.6127   48.0218   22.6076 C.ar      1 UNK         0.0000 
      7 C7          0.3691   49.5425   22.9966 C.3       1 UNK         0.0000 
      8 O8          0.0836   50.8224   23.5524 O.3       1 UNK         0.0000 
      9 C9          0.9391   51.8738   23.3161 C.ar      1 UNK         0.0000 
     10 C10         0.5927   53.0987   23.8845 C.ar      1 UNK         0.0000 
     11 C11         1.3695   54.2289   23.6427 C.ar      1 UNK         0.0000 
     12 C12         2.4926   54.1477   22.8306 C.ar      1 UNK         0.0000 
     13 C13         2.9124   52.9150   22.3322 C.ar      1 UNK         0.0000 
     14 C14         2.1172   51.7860   22.5594 C.ar      1 UNK         0.0000 
     15 C15         4.2388   52.7836   21.5866 C.3       1 UNK         0.0000 
     16 H16         4.6524   51.8432   21.9530 H         1 UNK         0.0000 
     17 C17         5.3165   53.8659   21.8444 C.ar      1 UNK         0.0000 
     18 C18         5.9626   54.5101   22.9550 C.ar      1 UNK         0.0000 
     19 N19         6.8750   55.3707   22.5108 N.2       1 UNK         0.0000 
     20 N20         6.8051   55.3830   21.1861 N.pl3     1 UNK         0.0000 
     21 H21         7.4035   55.9443   20.5996 H         1 UNK         0.0000 
     22 C22         5.8728   54.5116   20.7498 C.ar      1 UNK         0.0000 
     23 O23         5.6217   54.3368   19.4164 O.3       1 UNK         0.0000 
     24 C24         4.7029   53.3700   19.1539 C.2       1 UNK         0.0000 
     25 C25         4.0404   52.6142   20.0653 C.2       1 UNK         0.0000 
     26 C26         3.0982   51.6366   19.6148 C.1       1 UNK         0.0000 
     27 N27         2.3025   50.8592   19.2956 N.1       1 UNK         0.0000 
     28 N28         4.5812   53.2961   17.7943 N.pl3     1 UNK         0.0000 
     29 C29         5.8062   54.3881   24.4654 C.ar      1 UNK         0.0000 
     30 C30         4.7100   53.7793   25.0833 C.ar      1 UNK         0.0000 
     31 C31         4.5499   53.7682   26.4650 C.ar      1 UNK         0.0000 
     32 C32         5.5220   54.3418   27.2675 C.ar      1 UNK         0.0000 
     33 C33         6.6579   54.8972   26.6960 C.ar      1 UNK         0.0000 
     34 C34         6.7769   54.9464   25.3083 C.ar      1 UNK         0.0000 
     35 Cl35        5.3057   54.3817   28.9756 Cl        1 UNK         0.0000 
     36 Cl36        0.3626   48.8998   26.0071 Cl        1 UNK         0.0000 
     37 H37        -3.3412   46.7671   22.3796 H         1 UNK         0.0000 
     38 H38        -3.4999   46.2401   24.7981 H         1 UNK         0.0000 
     39 H39        -1.8415   47.1897   26.3794 H         1 UNK         0.0000 
     40 H40        -1.5682   48.2630   21.5553 H         1 UNK         0.0000 
     41 H41         0.3621   49.5951   21.9059 H         1 UNK         0.0000 
     42 H42         1.3545   49.1830   23.3026 H         1 UNK         0.0000 
     43 H43        -0.2951   53.1750   24.4942 H         1 UNK         0.0000 
     44 H44         1.1054   55.1815   24.0715 H         1 UNK         0.0000 
     45 H45         3.0866   55.0331   22.6529 H         1 UNK         0.0000 
     46 H46         2.4322   50.8393   22.1481 H         1 UNK         0.0000 
     47 H47         4.1581   52.4645   17.4017 H         1 UNK         0.0000 
     48 H48         5.2634   53.7576   17.2148 H         1 UNK         0.0000 
     49 H49         3.9529   53.2835   24.5217 H         1 UNK         0.0000 
     50 H50         3.6803   53.3026   26.9048 H         1 UNK         0.0000 
     51 H51         7.4248   55.3029   27.3379 H         1 UNK         0.0000 
     52 H52         7.6418   55.4260   24.8805 H         1 UNK         0.0000 
@<TRIPOS>BOND
     1    1    6 ar   
     2    1    2 ar   
     3    1   37 1    
     4    2    3 ar   
     5    2   38 1    
     6    3    4 ar   
     7    3   39 1    
     8    4    5 ar   
     9    4   36 1    
    10    5    6 ar   
    11    5    7 1    
    12    6   40 1    
    13    7    8 1    
    14    7   41 1    
    15    7   42 1    
    16    8    9 1    
    17    9   14 ar   
    18    9   10 ar   
    19   10   11 ar   
    20   10   43 1    
    21   11   12 ar   
    22   11   44 1    
    23   12   13 ar   
    24   12   45 1    
    25   13   14 ar   
    26   13   15 1    
    27   14   46 1    
    28   15   16 1    
    29   15   25 1    
    30   15   17 1    
    31   17   22 ar   
    32   17   18 ar   
    33   18   19 ar   
    34   18   29 1    
    35   19   20 ar   
    36   20   21 1    
    37   20   22 ar   
    38   22   23 1    
    39   23   24 1    
    40   24   25 2    
    41   24   28 1    
    42   25   26 1    
    43   26   27 3    
    44   28   47 1    
    45   28   48 1    
    46   29   34 ar   
    47   29   30 ar   
    48   30   31 ar   
    49   30   49 1    
    50   31   32 ar   
    51   31   50 1    
    52   32   33 ar   
    53   32   35 1    
    54   33   34 ar   
    55   33   51 1    
    56   34   52 1    
@<TRIPOS>SUBSTRUCTURE
     1 UNK         1 GROUP             0       ****    0 ROOT    
