@<TRIPOS>MOLECULE
ZINC48572242_1655
28   29    1
SMALL
USER_CHARGES


@<TRIPOS>ATOM
      1 C1          6.4859   54.3165   28.2397 C.3       1 UNK         0.0000 
      2 C2          5.2586   53.5474   27.7269 C.3       1 UNK         0.0000 
      3 H3          5.5278   52.4964   27.7856 H         1 UNK         0.0000 
      4 C4          3.9906   53.7028   28.6116 C.2       1 UNK         0.0000 
      5 O5          4.0643   54.4982   29.5563 O.2       1 UNK         0.0000 
      6 N6          2.9520   52.9522   28.2952 N.2       1 UNK         0.0000 
      7 C7          1.9036   52.8362   29.1472 C.ar      1 UNK         0.0000 
      8 N8          1.6474   53.2398   30.3788 N.2       1 UNK         0.0000 
      9 H9          0.7391   51.6861   27.8068 H         1 UNK         0.0000 
     10 C10         0.4297   52.7714   30.6036 C.ar      1 UNK         0.0000 
     11 N11        -0.1413   52.0965   29.6344 N.2       1 UNK         0.0000 
     12 N12         0.8192   52.1300   28.7092 N.pl3     1 UNK         0.0000 
     13 N13         4.9770   53.7980   26.3043 N.am      1 UNK         0.0000 
     14 C14         5.6643   54.4939   25.3731 C.2       1 UNK         0.0000 
     15 O15         6.6882   55.1517   25.5681 O.2       1 UNK         0.0000 
     16 C16         5.1366   54.3241   24.0468 C.2       1 UNK         0.0000 
     17 C17         3.8186   54.0965   23.6360 C.2       1 UNK         0.0000 
     18 C18         3.6998   53.9797   22.2463 C.2       1 UNK         0.0000 
     19 C19         4.9060   54.1664   21.5863 C.2       1 UNK         0.0000 
     20 S20         6.2060   54.4968   22.6838 S.3       1 UNK         0.0000 
     21 Br21        5.2307   54.1113   19.7144 Br        1 UNK         0.0000 
     22 H22         6.6864   54.0975   29.2816 H         1 UNK         0.0000 
     23 H23         7.3918   54.0481   27.6970 H         1 UNK         0.0000 
     24 H24         6.3047   55.3880   28.1393 H         1 UNK         0.0000 
     25 H25        -0.0760   52.9302   31.5469 H         1 UNK         0.0000 
     26 H26         4.1352   53.3295   26.0029 H         1 UNK         0.0000 
     27 H27         2.9814   53.9995   24.3127 H         1 UNK         0.0000 
     28 H28         2.7683   53.7698   21.7377 H         1 UNK         0.0000 
@<TRIPOS>BOND
     1    1    2 1    
     2    1   22 1    
     3    1   23 1    
     4    1   24 1    
     5    2    3 1    
     6    2    4 1    
     7    2   13 1    
     8    4    5 2    
     9    4    6 1    
    10    6    7 1    
    11    7    8 ar   
    12    7   12 ar   
    13    8   10 ar   
    14    9   12 1    
    15   10   25 1    
    16   10   11 ar   
    17   11   12 ar   
    18   13   14 am   BACKBONE|DICT|INTERRES
    19   13   26 1    
    20   14   15 2    
    21   14   16 1    
    22   16   20 1    
    23   16   17 2    
    24   17   18 1    
    25   17   27 1    
    26   18   19 2    
    27   18   28 1    
    28   19   20 1    
    29   19   21 1    
@<TRIPOS>SUBSTRUCTURE
     1 UNK         1 GROUP             0       ****    0 ROOT    
