ZINC20158968_2357
                    3D
 Schrodinger Suite 2024-2.
 39 40  0  0  1  0            999 V2000
    5.2069   53.8885   22.1054 C   0  0  0  0  0  0
    6.3377   54.8600   22.4613 C   0  0  0  0  0  0
    7.0974   55.3194   21.3810 N   0  0  0  0  0  0
    6.5978   55.4380   20.0636 N   0  0  0  0  0  0
    6.3044   56.6531   19.5593 C   0  0  0  0  0  0
    6.7044   57.6967   20.0817 O   0  0  0  0  0  0
    5.4573   56.7338   18.3002 C   0  0  0  0  0  0
    5.5686   57.8968   17.5144 C   0  0  0  0  0  0
    4.7761   58.0950   16.3872 C   0  0  0  0  0  0
    3.8608   57.1214   16.0054 C   0  0  0  0  0  0
    3.7368   55.9569   16.7574 C   0  0  0  0  0  0
    4.5133   55.7532   17.9008 C   0  0  0  0  0  0
    4.2009   54.2872   18.7711 Cl  0  0  0  0  0  0
    2.8730   57.3597   14.6108 Cl  0  0  0  0  0  0
    6.7028   55.2746   23.6996 C   0  0  0  0  0  0
    6.1578   54.8966   24.9839 C   0  0  0  0  0  0
    6.8986   54.8199   25.9630 O   0  0  0  0  0  0
    4.8272   54.6796   25.0092 N   0  0  0  0  0  0
    4.0123   54.2656   26.0760 C   0  0  0  0  0  0
    4.3545   54.3919   27.4321 C   0  0  0  0  0  0
    3.4786   53.9405   28.4197 C   0  0  0  0  0  0
    2.2605   53.3610   28.0670 C   0  0  0  0  0  0
    1.9128   53.2372   26.7232 C   0  0  0  0  0  0
    2.7812   53.6967   25.7328 C   0  0  0  0  0  0
    0.4173   52.4967   26.2839 Cl  0  0  0  0  0  0
    3.9044   54.0966   30.0817 Cl  0  0  0  0  0  0
    4.8537   53.2966   22.9460 H   0  0  0  0  0  0
    4.3605   54.4386   21.6933 H   0  0  0  0  0  0
    5.5238   53.1628   21.3574 H   0  0  0  0  0  0
    6.2377   54.5789   19.6709 H   0  0  0  0  0  0
    6.2537   58.6902   17.7857 H   0  0  0  0  0  0
    4.8660   59.0150   15.8248 H   0  0  0  0  0  0
    3.0167   55.2086   16.4595 H   0  0  0  0  0  0
    7.5202   55.9701   23.7984 H   0  0  0  0  0  0
    8.0848   55.1021   21.3562 H   0  0  0  0  0  0
    4.3631   54.7529   24.1180 H   0  0  0  0  0  0
    5.2856   54.8430   27.7399 H   0  0  0  0  0  0
    1.5875   53.0041   28.8330 H   0  0  0  0  0  0
    2.4974   53.5873   24.6960 H   0  0  0  0  0  0
  1 27  1  0  0  0
  1 28  1  0  0  0
  1 29  1  0  0  0
  1  2  1  0  0  0
  2 15  2  0  0  0
  2  3  1  0  0  0
  3  4  1  0  0  0
  3 35  1  0  0  0
  4  5  1  0  0  0
  4 30  1  0  0  0
  5  6  2  0  0  0
  5  7  1  0  0  0
  7 12  2  0  0  0
  7  8  1  0  0  0
  8  9  2  0  0  0
  8 31  1  0  0  0
  9 10  1  0  0  0
  9 32  1  0  0  0
 10 11  2  0  0  0
 10 14  1  0  0  0
 11 12  1  0  0  0
 11 33  1  0  0  0
 12 13  1  0  0  0
 15 16  1  0  0  0
 15 34  1  0  0  0
 16 17  2  0  0  0
 16 18  1  0  0  0
 18 19  1  0  0  0
 18 36  1  0  0  0
 19 24  2  0  0  0
 19 20  1  0  0  0
 20 21  2  0  0  0
 20 37  1  0  0  0
 21 22  1  0  0  0
 21 26  1  0  0  0
 22 23  2  0  0  0
 22 38  1  0  0  0
 23 24  1  0  0  0
 23 25  1  0  0  0
 24 39  1  0  0  0
M  END
> <i_i_glide_confnum>
32

> <i_i_glide_lignum>
2358

> <i_i_glide_posenum>
51

> <i_i_glide_rotatable_bonds>
7

> <i_m_Source_File_Index>
1654

> <b_m_subgroup_collapsed>
0

> <r_i_docking_score>
-6.45644

> <r_i_glide_ecoul>
-9.4147

> <r_i_glide_eff_state_penalty>
0

> <r_i_glide_einternal>
10.9451

> <r_i_glide_emodel>
-58.9964

> <r_i_glide_energy>
-46.2956

> <r_i_glide_erotb>
0.530533

> <r_i_glide_esite>
-0.000376601

> <r_i_glide_evdw>
-36.8809

> <r_i_glide_gscore>
-6.45644

> <r_i_glide_hbond>
-0.608

> <r_i_glide_ligand_efficiency>
-0.248325

> <r_i_glide_ligand_efficiency_ln>
-1.51627

> <r_i_glide_ligand_efficiency_sa>
-0.735661

> <r_i_glide_lipo>
-2.22073

> <r_i_glide_metal>
0

> <r_i_glide_rewards>
-0.901616

> <s_i_glide_gridfile>
wee1_glide-grid

> <s_m_Source_File>
wee1_decoys_glide_SP.sdf

> <s_m_Source_Path>
/Users/zhangxujun/Desktop

> <s_m_entry_id>
1929

> <s_m_entry_name>
wee1_decoys_glide_SP.1654

> <s_m_subgroup_title>
wee1_decoys_glide_SP

> <s_m_subgroupid>
wee1_decoys_glide_SP


$$$$
