@<TRIPOS>MOLECULE
ZINC03023312_5174
53   55    1
SMALL
USER_CHARGES


@<TRIPOS>ATOM
      1 C1          6.3109   55.2156   24.8112 C.3       1 UNK         0.0000 
      2 C2          5.9159   54.3405   26.0208 C.3       1 UNK         0.0000 
      3 H3          6.0627   53.2967   25.7372 H         1 UNK         0.0000 
      4 C4          6.8445   54.6221   27.2118 C.3       1 UNK         0.0000 
      5 C5          6.5578   53.6949   28.3907 C.3       1 UNK         0.0000 
      6 C6          5.1049   53.8606   28.8607 C.3       1 UNK         0.0000 
      7 C7          4.1127   53.6125   27.7100 C.3       1 UNK         0.0000 
      8 H8          4.1398   52.5590   27.4219 H         1 UNK         0.0000 
      9 C9          4.4296   54.4969   26.4662 C.3       1 UNK         0.0000 
     10 H10         4.3020   55.5366   26.7547 H         1 UNK         0.0000 
     11 C11         3.4595   54.2382   25.3120 C.3       1 UNK         0.0000 
     12 N12         2.7793   53.9777   28.2491 N.pl3     1 UNK         0.0000 
     13 S13         1.8733   52.8243   29.2320 S.o2      1 UNK         0.0000 
     14 O14         1.2083   53.5965   30.2856 O.2       1 UNK         0.0000 
     15 O15         2.7525   51.6981   29.5660 O.2       1 UNK         0.0000 
     16 C16         0.5851   52.1748   28.1750 C.ar      1 UNK         0.0000 
     17 C17        -0.6204   51.7446   28.7302 C.ar      1 UNK         0.0000 
     18 C18        -1.6454   51.2969   27.8973 C.ar      1 UNK         0.0000 
     19 C19        -1.4810   51.2821   26.5116 C.ar      1 UNK         0.0000 
     20 C20        -0.2672   51.7012   25.9449 C.ar      1 UNK         0.0000 
     21 C21         0.7695   52.1171   26.7931 C.ar      1 UNK         0.0000 
     22 C22        -0.0676   51.7218   24.4534 C.2       1 UNK         0.0000 
     23 O23        -0.9141   52.2219   23.7116 O.2       1 UNK         0.0000 
     24 N24         1.1041   51.2031   24.0353 N.am      1 UNK         0.0000 
     25 C25         1.6335   51.2755   22.7396 C.ar      1 UNK         0.0000 
     26 C26         2.0305   50.0731   22.1465 C.ar      1 UNK         0.0000 
     27 C27         2.6371   50.0757   20.8910 C.ar      1 UNK         0.0000 
     28 C28         2.8887   51.2771   20.2332 C.ar      1 UNK         0.0000 
     29 C29         2.5224   52.4819   20.8301 C.ar      1 UNK         0.0000 
     30 C30         1.8994   52.4941   22.0808 C.ar      1 UNK         0.0000 
     31 Br31        1.5041   54.1925   22.8558 Br        1 UNK         0.0000 
     32 F32        -2.5035   50.8508   25.7360 F         1 UNK         0.0000 
     33 H33         6.0802   56.2678   24.9836 H         1 UNK         0.0000 
     34 H34         7.3784   55.1431   24.5999 H         1 UNK         0.0000 
     35 H35         5.7993   54.9039   23.9009 H         1 UNK         0.0000 
     36 H36         6.7546   55.6663   27.5123 H         1 UNK         0.0000 
     37 H37         7.8830   54.4964   26.9116 H         1 UNK         0.0000 
     38 H38         7.2472   53.9059   29.2088 H         1 UNK         0.0000 
     39 H39         6.7401   52.6630   28.0829 H         1 UNK         0.0000 
     40 H40         4.9813   54.8669   29.2655 H         1 UNK         0.0000 
     41 H41         4.8941   53.1756   29.6808 H         1 UNK         0.0000 
     42 H42         3.5358   53.2175   24.9384 H         1 UNK         0.0000 
     43 H43         2.4285   54.4119   25.6161 H         1 UNK         0.0000 
     44 H44         3.6501   54.9121   24.4797 H         1 UNK         0.0000 
     45 H45         2.6472   54.9629   28.4859 H         1 UNK         0.0000 
     46 H46        -0.7682   51.7534   29.8022 H         1 UNK         0.0000 
     47 H47        -2.5687   50.9442   28.3323 H         1 UNK         0.0000 
     48 H48         1.7135   52.4325   26.3786 H         1 UNK         0.0000 
     49 H49         1.5860   50.5986   24.6826 H         1 UNK         0.0000 
     50 H50         1.8669   49.1309   22.6523 H         1 UNK         0.0000 
     51 H51         2.9276   49.1440   20.4267 H         1 UNK         0.0000 
     52 H52         3.3797   51.2726   19.2686 H         1 UNK         0.0000 
     53 H53         2.7350   53.4109   20.3240 H         1 UNK         0.0000 
@<TRIPOS>BOND
     1    1    2 1    
     2    1   33 1    
     3    1   34 1    
     4    1   35 1    
     5    2    3 1    
     6    2    9 1    
     7    2    4 1    
     8    4    5 1    
     9    4   36 1    
    10    4   37 1    
    11    5    6 1    
    12    5   38 1    
    13    5   39 1    
    14    6    7 1    
    15    6   40 1    
    16    6   41 1    
    17    7    8 1    
    18    7    9 1    
    19    7   12 1    
    20    9   10 1    
    21    9   11 1    
    22   11   42 1    
    23   11   43 1    
    24   11   44 1    
    25   12   13 1    
    26   12   45 1    
    27   13   14 2    
    28   13   15 2    
    29   13   16 1    
    30   16   21 ar   
    31   16   17 ar   
    32   17   18 ar   
    33   17   46 1    
    34   18   19 ar   
    35   18   47 1    
    36   19   20 ar   
    37   19   32 1    
    38   20   21 ar   
    39   20   22 1    
    40   21   48 1    
    41   22   23 2    
    42   22   24 am   BACKBONE|DICT|INTERRES
    43   24   25 1    
    44   24   49 1    
    45   25   30 ar   
    46   25   26 ar   
    47   26   27 ar   
    48   26   50 1    
    49   27   28 ar   
    50   27   51 1    
    51   28   29 ar   
    52   28   52 1    
    53   29   30 ar   
    54   29   53 1    
    55   30   31 1    
@<TRIPOS>SUBSTRUCTURE
     1 UNK         1 GROUP             0       ****    0 ROOT    
