@<TRIPOS>MOLECULE
ZINC38547532_5100
65   68    1
SMALL
USER_CHARGES


@<TRIPOS>ATOM
      1 C1         -2.0581   50.1496   19.3684 C.3       1 UNK         0.0000 
      2 C2         -0.7157   49.5361   19.7120 C.ar      1 UNK         0.0000 
      3 C3         -0.0484   48.6449   18.8648 C.ar      1 UNK         0.0000 
      4 C4          1.1933   48.1308   19.2512 C.ar      1 UNK         0.0000 
      5 C5          1.7404   48.5069   20.4816 C.ar      1 UNK         0.0000 
      6 C6          1.0546   49.4127   21.2964 C.ar      1 UNK         0.0000 
      7 N7         -0.1352   49.8873   20.8759 N.pl3     1 UNK         0.0000 
      8 N8          1.6345   49.8342   22.5240 N.pl3     1 UNK         0.0000 
      9 C9          1.2023   50.9503   23.3990 C.3       1 UNK         0.0000 
     10 H10         1.4968   50.5133   24.3529 H         1 UNK         0.0000 
     11 C11        -0.3189   51.1551   23.5919 C.ar      1 UNK         0.0000 
     12 C12        -0.8979   52.4273   23.4867 C.ar      1 UNK         0.0000 
     13 C13        -2.2627   52.6115   23.6815 C.ar      1 UNK         0.0000 
     14 C14        -3.0759   51.5253   23.9891 C.ar      1 UNK         0.0000 
     15 C15        -2.5287   50.2393   24.1173 C.ar      1 UNK         0.0000 
     16 C16        -1.1483   50.0686   23.9283 C.ar      1 UNK         0.0000 
     17 O17        -0.6052   48.8139   24.0464 O.3       1 UNK         0.0000 
     18 C18        -0.2034   48.4747   25.3646 C.3       1 UNK         0.0000 
     19 O19        -3.2726   49.1133   24.4217 O.3       1 UNK         0.0000 
     20 C20        -4.6669   49.2413   24.6809 C.3       1 UNK         0.0000 
     21 C21         2.0514   52.2281   23.2652 C.2       1 UNK         0.0000 
     22 C22         2.7061   52.7050   22.0916 C.2       1 UNK         0.0000 
     23 C23         3.5512   53.7907   22.3351 C.2       1 UNK         0.0000 
     24 S24         3.4375   54.3188   23.9765 S.3       1 UNK         0.0000 
     25 C25         2.3085   53.0611   24.3613 C.2       1 UNK         0.0000 
     26 N26         1.7759   52.8799   25.6361 N.am      1 UNK         0.0000 
     27 C27         2.1601   53.4295   26.8111 C.2       1 UNK         0.0000 
     28 O28         3.0940   54.2245   26.9397 O.2       1 UNK         0.0000 
     29 C29         1.3847   52.9633   28.0276 C.ar      1 UNK         0.0000 
     30 C30         0.1452   52.3065   27.9108 C.ar      1 UNK         0.0000 
     31 C31        -0.5320   51.8689   29.0452 C.ar      1 UNK         0.0000 
     32 C32         0.0110   52.0976   30.3052 C.ar      1 UNK         0.0000 
     33 C33         1.2333   52.7455   30.4430 C.ar      1 UNK         0.0000 
     34 C34         1.9165   53.1786   29.3092 C.ar      1 UNK         0.0000 
     35 C35         4.4792   54.4853   21.3635 C.3       1 UNK         0.0000 
     36 C36         2.5167   52.1636   20.6875 C.3       1 UNK         0.0000 
     37 H37        -2.5545   49.5985   18.5669 H         1 UNK         0.0000 
     38 H38        -2.7223   50.1424   20.2343 H         1 UNK         0.0000 
     39 H39        -1.9271   51.1810   19.0398 H         1 UNK         0.0000 
     40 H40        -0.4763   48.3613   17.9138 H         1 UNK         0.0000 
     41 H41         1.7325   47.4574   18.6002 H         1 UNK         0.0000 
     42 H42         2.7047   48.1198   20.7767 H         1 UNK         0.0000 
     43 H43         2.4923   49.3775   22.8023 H         1 UNK         0.0000 
     44 H44        -0.2931   53.2964   23.2791 H         1 UNK         0.0000 
     45 H45        -2.6911   53.6005   23.6046 H         1 UNK         0.0000 
     46 H46        -4.1306   51.7019   24.1338 H         1 UNK         0.0000 
     47 H47         0.5535   47.6980   25.2809 H         1 UNK         0.0000 
     48 H48         0.2351   49.3052   25.9232 H         1 UNK         0.0000 
     49 H49        -1.0421   48.0789   25.9377 H         1 UNK         0.0000 
     50 H50        -5.0764   48.2633   24.9295 H         1 UNK         0.0000 
     51 H51        -4.8593   49.9005   25.5294 H         1 UNK         0.0000 
     52 H52        -5.2040   49.6132   23.8065 H         1 UNK         0.0000 
     53 H53         1.0662   52.1677   25.7035 H         1 UNK         0.0000 
     54 H54        -0.3143   52.1189   26.9506 H         1 UNK         0.0000 
     55 H55        -1.4736   51.3448   28.9517 H         1 UNK         0.0000 
     56 H56        -0.5059   51.7508   31.1903 H         1 UNK         0.0000 
     57 H57         1.6471   52.8970   31.4288 H         1 UNK         0.0000 
     58 H58         2.8692   53.6749   29.4338 H         1 UNK         0.0000 
     59 H59         3.9310   54.8960   20.5170 H         1 UNK         0.0000 
     60 H60         5.0491   55.2947   21.8144 H         1 UNK         0.0000 
     61 H61         5.2061   53.7853   20.9511 H         1 UNK         0.0000 
     62 H62         3.0620   51.2355   20.5212 H         1 UNK         0.0000 
     63 H63         1.4666   51.9734   20.4816 H         1 UNK         0.0000 
     64 H64         2.8180   52.8684   19.9138 H         1 UNK         0.0000 
     65 H65        -0.6172   50.5325   21.4850 H         1 UNK         0.0000 
@<TRIPOS>BOND
     1    1    2 1    
     2    1   37 1    
     3    1   38 1    
     4    1   39 1    
     5    2    7 ar   
     6    2    3 ar   
     7    3    4 ar   
     8    3   40 1    
     9    4    5 ar   
    10    4   41 1    
    11    5    6 ar   
    12    5   42 1    
    13    6    7 ar   
    14    6    8 1    
    15    7   65 1    
    16    8    9 1    
    17    8   43 1    
    18    9   10 1    
    19    9   11 1    
    20    9   21 1    
    21   11   16 ar   
    22   11   12 ar   
    23   12   13 ar   
    24   12   44 1    
    25   13   14 ar   
    26   13   45 1    
    27   14   15 ar   
    28   14   46 1    
    29   15   16 ar   
    30   15   19 1    
    31   16   17 1    
    32   17   18 1    
    33   18   47 1    
    34   18   48 1    
    35   18   49 1    
    36   19   20 1    
    37   20   50 1    
    38   20   51 1    
    39   20   52 1    
    40   21   25 2    
    41   21   22 1    
    42   22   23 2    
    43   22   36 1    
    44   23   24 1    
    45   23   35 1    
    46   24   25 1    
    47   25   26 am   BACKBONE|DICT|INTERRES
    48   26   27 am   BACKBONE|DICT|INTERRES
    49   26   53 1    
    50   27   28 2    
    51   27   29 1    
    52   29   34 ar   
    53   29   30 ar   
    54   30   31 ar   
    55   30   54 1    
    56   31   32 ar   
    57   31   55 1    
    58   32   33 ar   
    59   32   56 1    
    60   33   34 ar   
    61   33   57 1    
    62   34   58 1    
    63   35   59 1    
    64   35   60 1    
    65   35   61 1    
    66   36   62 1    
    67   36   63 1    
    68   36   64 1    
@<TRIPOS>SUBSTRUCTURE
     1 UNK         1 GROUP             0       ****    0 ROOT    
