@<TRIPOS>MOLECULE
ZINC14470017_722
70   75    1
SMALL
USER_CHARGES


@<TRIPOS>ATOM
      1 C1          5.3580   59.5687   14.7583 C.3       1 UNK         0.0000 
      2 C2          6.5933   58.5948   16.7481 C.3       1 UNK         0.0000 
      3 C3          6.4123   57.9990   18.1602 C.3       1 UNK         0.0000 
      4 N4          5.5457   56.8021   18.0659 N.am      1 UNK         0.0000 
      5 C5          4.2074   57.0097   17.4615 C.3       1 UNK         0.0000 
      6 C6          4.3826   57.5998   16.0474 C.3       1 UNK         0.0000 
      7 C7          5.9021   55.6493   18.7034 C.2       1 UNK         0.0000 
      8 O8          6.9133   55.5502   19.4031 O.2       1 UNK         0.0000 
      9 C9          4.9884   54.4516   18.5642 C.ar      1 UNK         0.0000 
     10 C10         4.7813   53.9049   17.2908 C.ar      1 UNK         0.0000 
     11 C11         3.8475   52.8955   17.0989 C.ar      1 UNK         0.0000 
     12 C12         3.1120   52.4119   18.1753 C.ar      1 UNK         0.0000 
     13 C13         3.3256   52.8970   19.4689 C.ar      1 UNK         0.0000 
     14 C14         4.3039   53.9031   19.6710 C.ar      1 UNK         0.0000 
     15 N15         4.5346   54.4174   20.9747 N.pl3     1 UNK         0.0000 
     16 C16         3.7047   54.0534   22.1354 C.3       1 UNK         0.0000 
     17 H17         2.8553   54.7399   22.1494 H         1 UNK         0.0000 
     18 C18         3.1945   52.6076   21.9394 C.3       1 UNK         0.0000 
     19 H19         4.0884   51.9740   21.9126 H         1 UNK         0.0000 
     20 C20         2.4390   52.4782   20.6332 C.3       1 UNK         0.0000 
     21 H21         1.5937   53.1660   20.6125 H         1 UNK         0.0000 
     22 C22         1.8919   51.0725   20.7703 C.2       1 UNK         0.0000 
     23 C23         1.6867   50.8239   22.0811 C.2       1 UNK         0.0000 
     24 C24         2.2127   51.9746   22.9283 C.3       1 UNK         0.0000 
     25 C25         4.4208   54.2114   23.4793 C.ar      1 UNK         0.0000 
     26 C26         5.8061   54.0525   23.5913 C.ar      1 UNK         0.0000 
     27 C27         6.4155   54.0967   24.8406 C.ar      1 UNK         0.0000 
     28 C28         5.6618   54.2952   25.9978 C.ar      1 UNK         0.0000 
     29 C29         4.2894   54.5538   25.8680 C.ar      1 UNK         0.0000 
     30 C30         3.6733   54.4944   24.6219 C.ar      1 UNK         0.0000 
     31 O31         6.3543   54.1583   27.1894 O.3       1 UNK         0.0000 
     32 C32         5.8554   54.6162   28.4524 C.3       1 UNK         0.0000 
     33 C33         4.5005   54.0521   28.8878 C.ar      1 UNK         0.0000 
     34 C34         3.4542   54.8967   29.2817 C.ar      1 UNK         0.0000 
     35 C35         2.2322   54.3596   29.6787 C.ar      1 UNK         0.0000 
     36 C36         2.0539   52.9769   29.6819 C.ar      1 UNK         0.0000 
     37 C37         3.0888   52.1310   29.2908 C.ar      1 UNK         0.0000 
     38 C38         4.3104   52.6735   28.8988 C.ar      1 UNK         0.0000 
     39 H39         5.8891   58.8900   14.0899 H         1 UNK         0.0000 
     40 H40         4.3515   59.7907   14.3994 H         1 UNK         0.0000 
     41 H41         5.9088   60.4976   14.9171 H         1 UNK         0.0000 
     42 H42         7.1002   59.5604   16.8219 H         1 UNK         0.0000 
     43 H43         7.1534   57.9424   16.0740 H         1 UNK         0.0000 
     44 H44         7.3935   57.7675   18.5777 H         1 UNK         0.0000 
     45 H45         5.9515   58.7442   18.8104 H         1 UNK         0.0000 
     46 H46         3.6365   57.6971   18.0798 H         1 UNK         0.0000 
     47 H47         3.5959   56.1100   17.4039 H         1 UNK         0.0000 
     48 H48         3.4088   57.8907   15.6485 H         1 UNK         0.0000 
     49 H49         4.8659   56.9112   15.3506 H         1 UNK         0.0000 
     50 H50         5.3207   54.2846   16.4327 H         1 UNK         0.0000 
     51 H51         3.6873   52.4830   16.1129 H         1 UNK         0.0000 
     52 H52         2.3763   51.6416   17.9988 H         1 UNK         0.0000 
     53 H53         5.1608   55.1963   21.1178 H         1 UNK         0.0000 
     54 H54         1.6095   50.4512   19.9328 H         1 UNK         0.0000 
     55 H55         1.2408   49.9396   22.5126 H         1 UNK         0.0000 
     56 H56         2.7033   51.6440   23.8397 H         1 UNK         0.0000 
     57 H57         1.4276   52.6678   23.2327 H         1 UNK         0.0000 
     58 H58         6.4109   53.8418   22.7212 H         1 UNK         0.0000 
     59 H59         7.4778   53.9170   24.9118 H         1 UNK         0.0000 
     60 H60         3.6523   54.7546   26.7075 H         1 UNK         0.0000 
     61 H61         2.6051   54.6428   24.5506 H         1 UNK         0.0000 
     62 H62         6.5762   54.3009   29.2062 H         1 UNK         0.0000 
     63 H63         5.9011   55.6967   28.4626 H         1 UNK         0.0000 
     64 H64         3.5650   55.9689   29.2815 H         1 UNK         0.0000 
     65 H65         1.4237   55.0116   29.9778 H         1 UNK         0.0000 
     66 H66         1.1051   52.5581   29.9858 H         1 UNK         0.0000 
     67 H67         2.9402   51.0629   29.2809 H         1 UNK         0.0000 
     68 H68         5.1216   52.0378   28.5844 H         1 UNK         0.0000 
     69 N69         5.2102   58.8967   16.1382 N.4       1 UNK         0.0000 
     70 H70         4.7369   59.5705   16.7354 H         1 UNK         0.0000 
@<TRIPOS>BOND
     1    1   39 1    
     2    1   40 1    
     3    1   41 1    
     4    1   69 1    
     5    2    3 1    
     6    2   42 1    
     7    2   43 1    
     8    2   69 1    
     9    3    4 1    
    10    3   44 1    
    11    3   45 1    
    12    4    5 1    
    13    4    7 am   BACKBONE|DICT|INTERRES
    14    5    6 1    
    15    5   46 1    
    16    5   47 1    
    17    6   48 1    
    18    6   49 1    
    19    6   69 1    
    20    7    8 2    
    21    7    9 1    
    22    9   14 ar   
    23    9   10 ar   
    24   10   11 ar   
    25   10   50 1    
    26   11   12 ar   
    27   11   51 1    
    28   12   13 ar   
    29   12   52 1    
    30   13   20 1    
    31   13   14 ar   
    32   14   15 1    
    33   15   16 1    
    34   15   53 1    
    35   16   17 1    
    36   16   18 1    
    37   16   25 1    
    38   18   19 1    
    39   18   24 1    
    40   18   20 1    
    41   20   21 1    
    42   20   22 1    
    43   22   23 2    
    44   22   54 1    
    45   23   24 1    
    46   23   55 1    
    47   24   56 1    
    48   24   57 1    
    49   25   30 ar   
    50   25   26 ar   
    51   26   27 ar   
    52   26   58 1    
    53   27   28 ar   
    54   27   59 1    
    55   28   29 ar   
    56   28   31 1    
    57   29   30 ar   
    58   29   60 1    
    59   30   61 1    
    60   31   32 1    
    61   32   33 1    
    62   32   62 1    
    63   32   63 1    
    64   33   38 ar   
    65   33   34 ar   
    66   34   35 ar   
    67   34   64 1    
    68   35   36 ar   
    69   35   65 1    
    70   36   37 ar   
    71   36   66 1    
    72   37   38 ar   
    73   37   67 1    
    74   38   68 1    
    75   69   70 1    
@<TRIPOS>SUBSTRUCTURE
     1 UNK         1 GROUP             0       ****    0 ROOT    
