@<TRIPOS>MOLECULE
ZINC38680401_6008
54   57    1
SMALL
USER_CHARGES


@<TRIPOS>ATOM
      1 C1          1.3603   54.8688   29.5038 C.3       1 UNK         0.0000 
      2 C2          2.2461   53.6207   29.6816 C.3       1 UNK         0.0000 
      3 C3          1.6597   52.3102   29.1147 C.3       1 UNK         0.0000 
      4 O4          3.6202   53.8597   29.3501 O.3       1 UNK         0.0000 
      5 C5          4.0815   53.9827   28.0503 C.ar      1 UNK         0.0000 
      6 C6          5.4665   54.0374   27.8973 C.ar      1 UNK         0.0000 
      7 C7          6.0437   54.0958   26.6311 C.ar      1 UNK         0.0000 
      8 C8          5.2389   54.1071   25.4842 C.ar      1 UNK         0.0000 
      9 C9          3.8445   54.1003   25.6405 C.ar      1 UNK         0.0000 
     10 C10         3.2732   54.0423   26.9083 C.ar      1 UNK         0.0000 
     11 C11         5.8816   54.0983   24.1263 C.2       1 UNK         0.0000 
     12 O12         7.1033   54.0929   23.9565 O.2       1 UNK         0.0000 
     13 O13         4.9666   54.0641   23.1095 O.3       1 UNK         0.0000 
     14 C14         5.3298   54.2040   21.7857 C.ar      1 UNK         0.0000 
     15 C15         4.9075   53.2454   20.8642 C.ar      1 UNK         0.0000 
     16 C16         5.1741   53.4069   19.5043 C.ar      1 UNK         0.0000 
     17 C17         5.8386   54.5454   19.0215 C.ar      1 UNK         0.0000 
     18 C18         6.2333   55.5159   19.9620 C.ar      1 UNK         0.0000 
     19 C19         6.0124   55.3330   21.3224 C.ar      1 UNK         0.0000 
     20 O20         6.7793   56.7315   19.5890 O.3       1 UNK         0.0000 
     21 C21         6.6095   57.1376   18.3054 C.2       1 UNK         0.0000 
     22 C22         6.2661   56.3171   17.2900 C.2       1 UNK         0.0000 
     23 C23         6.1072   54.8075   17.5259 C.3       1 UNK         0.0000 
     24 H24         7.0992   54.3906   17.3423 H         1 UNK         0.0000 
     25 C25         5.1204   54.0982   16.5782 C.ar      1 UNK         0.0000 
     26 C26         5.5787   53.0681   15.7396 C.ar      1 UNK         0.0000 
     27 C27         4.6988   52.3994   14.8902 C.ar      1 UNK         0.0000 
     28 C28         3.3504   52.7448   14.8651 C.ar      1 UNK         0.0000 
     29 C29         2.8814   53.7640   15.6901 C.ar      1 UNK         0.0000 
     30 C30         3.7535   54.4420   16.5439 C.ar      1 UNK         0.0000 
     31 Cl31        3.0931   55.6946   17.5429 Cl        1 UNK         0.0000 
     32 F32         6.8810   52.7006   15.7440 F         1 UNK         0.0000 
     33 C33         6.1007   56.8391   15.9706 C.1       1 UNK         0.0000 
     34 N34         5.9898   57.2551   14.8961 N.1       1 UNK         0.0000 
     35 N35         6.7875   58.4957   18.2540 N.pl3     1 UNK         0.0000 
     36 H36         0.3353   54.6667   29.8143 H         1 UNK         0.0000 
     37 H37         1.7277   55.6898   30.1215 H         1 UNK         0.0000 
     38 H38         1.3244   55.2316   28.4787 H         1 UNK         0.0000 
     39 H39         2.2752   53.4528   30.7589 H         1 UNK         0.0000 
     40 H40         0.6613   52.1256   29.5160 H         1 UNK         0.0000 
     41 H41         1.5725   52.2947   28.0298 H         1 UNK         0.0000 
     42 H42         2.2789   51.4581   29.3981 H         1 UNK         0.0000 
     43 H43         6.1024   54.0117   28.7707 H         1 UNK         0.0000 
     44 H44         7.1213   54.1024   26.5502 H         1 UNK         0.0000 
     45 H45         3.1834   54.1170   24.7845 H         1 UNK         0.0000 
     46 H46         2.1990   54.0256   26.9658 H         1 UNK         0.0000 
     47 H47         4.3647   52.3759   21.2007 H         1 UNK         0.0000 
     48 H48         4.8488   52.6350   18.8197 H         1 UNK         0.0000 
     49 H49         6.3250   56.0984   22.0177 H         1 UNK         0.0000 
     50 H50         5.0634   51.6008   14.2621 H         1 UNK         0.0000 
     51 H51         2.6697   52.2184   14.2124 H         1 UNK         0.0000 
     52 H52         1.8343   54.0267   15.6702 H         1 UNK         0.0000 
     53 H53         6.6969   58.9889   17.3744 H         1 UNK         0.0000 
     54 H54         6.6410   59.0537   19.0813 H         1 UNK         0.0000 
@<TRIPOS>BOND
     1    1    2 1    
     2    1   36 1    
     3    1   37 1    
     4    1   38 1    
     5    2    3 1    
     6    2    4 1    
     7    2   39 1    
     8    3   40 1    
     9    3   41 1    
    10    3   42 1    
    11    4    5 1    
    12    5   10 ar   
    13    5    6 ar   
    14    6    7 ar   
    15    6   43 1    
    16    7    8 ar   
    17    7   44 1    
    18    8    9 ar   
    19    8   11 1    
    20    9   10 ar   
    21    9   45 1    
    22   10   46 1    
    23   11   12 2    
    24   11   13 1    
    25   13   14 1    
    26   14   19 ar   
    27   14   15 ar   
    28   15   16 ar   
    29   15   47 1    
    30   16   17 ar   
    31   16   48 1    
    32   17   23 1    
    33   17   18 ar   
    34   18   19 ar   
    35   18   20 1    
    36   19   49 1    
    37   20   21 1    
    38   21   22 2    
    39   21   35 1    
    40   22   23 1    
    41   22   33 1    
    42   23   24 1    
    43   23   25 1    
    44   25   30 ar   
    45   25   26 ar   
    46   26   27 ar   
    47   26   32 1    
    48   27   28 ar   
    49   27   50 1    
    50   28   29 ar   
    51   28   51 1    
    52   29   30 ar   
    53   29   52 1    
    54   30   31 1    
    55   33   34 3    
    56   35   53 1    
    57   35   54 1    
@<TRIPOS>SUBSTRUCTURE
     1 UNK         1 GROUP             0       ****    0 ROOT    
