@<TRIPOS>MOLECULE
ZINC01884936_3338
47   50    1
SMALL
USER_CHARGES


@<TRIPOS>ATOM
      1 C1         -5.0711   50.0969   21.0176 C.3       1 UNK         0.0000 
      2 C2         -3.8118   49.8729   21.8374 C.ar      1 UNK         0.0000 
      3 C3         -2.5753   50.3136   21.3579 C.ar      1 UNK         0.0000 
      4 C4         -1.4248   50.1067   22.1141 C.ar      1 UNK         0.0000 
      5 C5         -1.5152   49.4629   23.3518 C.ar      1 UNK         0.0000 
      6 C6         -2.7507   49.0284   23.8358 C.ar      1 UNK         0.0000 
      7 C7         -3.9001   49.2366   23.0769 C.ar      1 UNK         0.0000 
      8 S8         -0.0481   49.1631   24.3282 S.o2      1 UNK         0.0000 
      9 O9          1.1018   49.7205   23.6061 O.2       1 UNK         0.0000 
     10 O10        -0.0956   47.7299   24.6284 O.2       1 UNK         0.0000 
     11 N11        -0.2735   50.0558   25.8556 N.pl3     1 UNK         0.0000 
     12 C12        -0.4724   51.5498   25.9840 C.3       1 UNK         0.0000 
     13 C13         0.2237   52.0783   27.2157 C.ar      1 UNK         0.0000 
     14 C14        -0.0029   52.0095   28.5430 C.ar      1 UNK         0.0000 
     15 O15        -0.9462   51.4900   29.2347 O.co2     1 UNK         0.0000 
     16 N16         0.8240   52.6174   29.4356 N.pl3     1 UNK         0.0000 
     17 H17         0.6398   52.5106   30.4188 H         1 UNK         0.0000 
     18 C18         1.8721   53.4159   29.0816 C.ar      1 UNK         0.0000 
     19 O19         2.5097   53.9850   29.9697 O.2       1 UNK         0.0000 
     20 N20         2.0664   53.5423   27.7078 N.pl3     1 UNK         0.0000 
     21 C21         1.2983   52.8958   26.7433 C.ar      1 UNK         0.0000 
     22 N22         1.3707   53.0244   25.4785 N.am      1 UNK         0.0000 
     23 C23         0.3012   52.3566   24.9154 C.2       1 UNK         0.0000 
     24 O24        -0.0014   52.4165   23.7229 O.2       1 UNK         0.0000 
     25 C25         3.0072   54.6018   27.2725 C.3       1 UNK         0.0000 
     26 C26         4.4677   54.2498   27.4367 C.2       1 UNK         0.0000 
     27 C27         5.3506   54.2749   28.5005 C.2       1 UNK         0.0000 
     28 C28         6.5965   53.8935   28.0128 C.2       1 UNK         0.0000 
     29 C29         6.4299   53.6968   26.6558 C.2       1 UNK         0.0000 
     30 O30         5.1342   53.8995   26.3087 O.3       1 UNK         0.0000 
     31 C31        -2.0092   51.8914   25.9563 C.3       1 UNK         0.0000 
     32 F32        -2.5450   51.9029   24.7338 F         1 UNK         0.0000 
     33 F33        -2.7229   51.0114   26.6624 F         1 UNK         0.0000 
     34 F34        -2.2823   53.0855   26.4805 F         1 UNK         0.0000 
     35 H35        -4.9054   50.7859   20.1879 H         1 UNK         0.0000 
     36 H36        -5.4387   49.1486   20.6255 H         1 UNK         0.0000 
     37 H37        -5.8567   50.5222   21.6442 H         1 UNK         0.0000 
     38 H38        -2.5001   50.8141   20.4026 H         1 UNK         0.0000 
     39 H39        -0.4698   50.4536   21.7422 H         1 UNK         0.0000 
     40 H40        -2.8206   48.5353   24.7971 H         1 UNK         0.0000 
     41 H41        -4.8574   48.9035   23.4525 H         1 UNK         0.0000 
     42 H42        -0.6537   49.5053   26.6354 H         1 UNK         0.0000 
     43 H43         2.7887   55.5024   27.8461 H         1 UNK         0.0000 
     44 H44         2.8263   54.8963   26.2380 H         1 UNK         0.0000 
     45 H45         5.1163   54.5392   29.5218 H         1 UNK         0.0000 
     46 H46         7.5054   53.7972   28.5858 H         1 UNK         0.0000 
     47 H47         7.0950   53.4000   25.8572 H         1 UNK         0.0000 
@<TRIPOS>BOND
     1    1    2 1    
     2    1   35 1    
     3    1   36 1    
     4    1   37 1    
     5    2    7 ar   
     6    2    3 ar   
     7    3    4 ar   
     8    3   38 1    
     9    4    5 ar   
    10    4   39 1    
    11    5    6 ar   
    12    5    8 1    
    13    6    7 ar   
    14    6   40 1    
    15    7   41 1    
    16    8    9 2    
    17    8   10 2    
    18    8   11 1    
    19   11   12 1    
    20   11   42 1    
    21   12   23 1    
    22   12   13 1    
    23   12   31 1    
    24   13   21 ar   
    25   13   14 ar   
    26   14   15 1    
    27   14   16 ar   
    28   16   17 1    
    29   16   18 ar   
    30   18   19 2    
    31   18   20 ar   
    32   20   21 ar   
    33   20   25 1    
    34   21   22 2    
    35   22   23 am   BACKBONE|DICT|INTERRES
    36   23   24 2    
    37   25   26 1    
    38   25   43 1    
    39   25   44 1    
    40   26   30 1    
    41   26   27 2    
    42   27   28 1    
    43   27   45 1    
    44   28   29 2    
    45   28   46 1    
    46   29   30 1    
    47   29   47 1    
    48   31   32 1    
    49   31   33 1    
    50   31   34 1    
@<TRIPOS>SUBSTRUCTURE
     1 UNK         1 GROUP             0       ****    0 ROOT    
