@<TRIPOS>MOLECULE
ZINC40214972_4727
38   38    1
SMALL
USER_CHARGES


@<TRIPOS>ATOM
      1 C1          7.1045   54.7270   24.1459 C.3       1 UNK         0.0000 
      2 C2          5.7903   54.4961   24.8491 C.ar      1 UNK         0.0000 
      3 C3          5.7785   54.5886   26.2437 C.ar      1 UNK         0.0000 
      4 C4          4.6138   54.3524   26.9604 C.ar      1 UNK         0.0000 
      5 C5          3.4294   54.0290   26.2866 C.ar      1 UNK         0.0000 
      6 C6          3.4388   53.9454   24.8911 C.ar      1 UNK         0.0000 
      7 C7          4.6127   54.1657   24.1569 C.ar      1 UNK         0.0000 
      8 S8          4.5247   54.0206   22.3549 S.o2      1 UNK         0.0000 
      9 O9          3.1044   54.0377   22.0051 O.2       1 UNK         0.0000 
     10 O10         5.4742   54.9482   21.7350 O.2       1 UNK         0.0000 
     11 N11         5.1042   52.4376   21.9621 N.pl3     1 UNK         0.0000 
     12 N12         2.2320   53.6964   26.9414 N.am      1 UNK         0.0000 
     13 C13         1.8841   53.9522   28.2159 C.2       1 UNK         0.0000 
     14 O14         2.4671   54.7275   28.9757 O.2       1 UNK         0.0000 
     15 N15         0.8465   53.1825   28.5814 N.am      1 UNK         0.0000 
     16 C16         0.4554   52.7957   29.9431 C.3       1 UNK         0.0000 
     17 C17         1.6396   52.1680   30.7156 C.3       1 UNK         0.0000 
     18 C18        -0.6529   51.7312   29.8189 C.3       1 UNK         0.0000 
     19 C19        -0.0921   54.0128   30.7139 C.3       1 UNK         0.0000 
     20 H20         7.1049   55.6816   23.6196 H         1 UNK         0.0000 
     21 H21         7.9042   54.7265   24.8802 H         1 UNK         0.0000 
     22 H22         7.3165   53.9330   23.4294 H         1 UNK         0.0000 
     23 H23         6.6790   54.8276   26.7907 H         1 UNK         0.0000 
     24 H24         4.6624   54.3989   28.0376 H         1 UNK         0.0000 
     25 H25         2.5274   53.6813   24.3736 H         1 UNK         0.0000 
     26 H26         4.3429   51.8108   21.6914 H         1 UNK         0.0000 
     27 H27         5.8455   52.4706   21.2604 H         1 UNK         0.0000 
     28 H28         1.5687   53.1822   26.3837 H         1 UNK         0.0000 
     29 H29         0.3032   52.7504   27.8508 H         1 UNK         0.0000 
     30 H30         1.3284   51.7823   31.6882 H         1 UNK         0.0000 
     31 H31         2.4376   52.8872   30.8977 H         1 UNK         0.0000 
     32 H32         2.0717   51.3461   30.1461 H         1 UNK         0.0000 
     33 H33        -1.5355   52.0977   29.2960 H         1 UNK         0.0000 
     34 H34        -0.2987   50.8726   29.2525 H         1 UNK         0.0000 
     35 H35        -0.9804   51.3665   30.7951 H         1 UNK         0.0000 
     36 H36        -0.8809   54.4961   30.1381 H         1 UNK         0.0000 
     37 H37        -0.4954   53.7206   31.6851 H         1 UNK         0.0000 
     38 H38         0.6773   54.7624   30.9008 H         1 UNK         0.0000 
@<TRIPOS>BOND
     1    1    2 1    
     2    1   20 1    
     3    1   21 1    
     4    1   22 1    
     5    2    7 ar   
     6    2    3 ar   
     7    3    4 ar   
     8    3   23 1    
     9    4    5 ar   
    10    4   24 1    
    11    5    6 ar   
    12    5   12 1    
    13    6    7 ar   
    14    6   25 1    
    15    7    8 1    
    16    8    9 2    
    17    8   10 2    
    18    8   11 1    
    19   11   26 1    
    20   11   27 1    
    21   12   13 am   BACKBONE|DICT|INTERRES
    22   12   28 1    
    23   13   14 2    
    24   13   15 am   BACKBONE|DICT|INTERRES
    25   15   16 1    
    26   15   29 1    
    27   16   17 1    
    28   16   18 1    
    29   16   19 1    
    30   17   30 1    
    31   17   31 1    
    32   17   32 1    
    33   18   33 1    
    34   18   34 1    
    35   18   35 1    
    36   19   36 1    
    37   19   37 1    
    38   19   38 1    
@<TRIPOS>SUBSTRUCTURE
     1 UNK         1 GROUP             0       ****    0 ROOT    
