@<TRIPOS>MOLECULE
ZINC35970459_5653
53   56    1
SMALL
USER_CHARGES


@<TRIPOS>ATOM
      1 C1          6.4256   54.3208   24.3413 C.3       1 UNK         0.0000 
      2 C2          6.1040   54.4831   22.8691 C.ar      1 UNK         0.0000 
      3 C3          6.8926   55.3062   22.0643 C.ar      1 UNK         0.0000 
      4 C4          6.5851   55.4772   20.7138 C.ar      1 UNK         0.0000 
      5 C5          5.4944   54.8011   20.1649 C.ar      1 UNK         0.0000 
      6 C6          4.7215   53.9398   20.9463 C.ar      1 UNK         0.0000 
      7 C7          5.0283   53.7921   22.3042 C.ar      1 UNK         0.0000 
      8 N8          3.6376   53.2960   20.3263 N.pl3     1 UNK         0.0000 
      9 C9          3.1682   51.9956   20.3820 C.2       1 UNK         0.0000 
     10 O10         3.7725   51.2963   21.2800 O.co2     1 UNK         0.0000 
     11 C11         2.1934   51.6307   19.5257 C.2       1 UNK         0.0000 
     12 C12         1.6345   50.2944   19.3708 C.2       1 UNK         0.0000 
     13 C13         2.3995   49.1939   19.3119 C.2       1 UNK         0.0000 
     14 S14         1.4946   47.6962   19.1352 S.3       1 UNK         0.0000 
     15 C15         0.0065   48.6432   18.9970 C.2       1 UNK         0.0000 
     16 N16        -1.1419   48.1359   18.7621 N.2       1 UNK         0.0000 
     17 C17        -2.1959   48.9875   18.5879 C.2       1 UNK         0.0000 
     18 C18        -2.1503   50.3147   18.9441 C.2       1 UNK         0.0000 
     19 C19        -0.8427   50.8947   19.5728 C.3       1 UNK         0.0000 
     20 H20        -0.6021   51.8355   19.0738 H         1 UNK         0.0000 
     21 N21         0.2889   49.9827   19.2591 N.pl3     1 UNK         0.0000 
     22 C22        -0.9670   51.1268   21.0796 C.2       1 UNK         0.0000 
     23 C23        -1.7718   50.3860   21.9654 C.2       1 UNK         0.0000 
     24 C24        -1.6857   50.7980   23.2887 C.2       1 UNK         0.0000 
     25 S25        -0.5888   52.1182   23.4864 S.3       1 UNK         0.0000 
     26 C26        -0.2622   52.0971   21.7863 C.2       1 UNK         0.0000 
     27 C27        -3.2641   51.2792   18.7929 C.2       1 UNK         0.0000 
     28 O28        -3.0912   52.4963   18.8837 O.2       1 UNK         0.0000 
     29 O29        -4.4773   50.7185   18.5939 O.3       1 UNK         0.0000 
     30 C30        -5.6383   51.5093   18.3929 C.3       1 UNK         0.0000 
     31 C31        -3.3274   48.2534   17.8694 C.3       1 UNK         0.0000 
     32 C32         7.4488   56.3650   19.8351 C.3       1 UNK         0.0000 
     33 H33         7.5046   54.2812   24.4939 H         1 UNK         0.0000 
     34 H34         6.0300   55.1609   24.9149 H         1 UNK         0.0000 
     35 H35         6.0185   53.3901   24.7409 H         1 UNK         0.0000 
     36 H36         7.7410   55.8259   22.4863 H         1 UNK         0.0000 
     37 H37         5.2645   54.9273   19.1158 H         1 UNK         0.0000 
     38 H38         4.4201   53.1508   22.9243 H         1 UNK         0.0000 
     39 H39         3.3470   53.7789   19.4881 H         1 UNK         0.0000 
     40 H40         1.7983   52.3862   18.8634 H         1 UNK         0.0000 
     41 H41         3.4794   49.1871   19.3316 H         1 UNK         0.0000 
     42 H42        -2.3987   49.5679   21.6451 H         1 UNK         0.0000 
     43 H43        -2.2011   50.3862   24.1438 H         1 UNK         0.0000 
     44 H44         0.4515   52.7975   21.3752 H         1 UNK         0.0000 
     45 H45        -6.4920   50.8629   18.1883 H         1 UNK         0.0000 
     46 H46        -5.8609   52.0963   19.2829 H         1 UNK         0.0000 
     47 H47        -5.5115   52.1859   17.5467 H         1 UNK         0.0000 
     48 H48        -3.7715   48.8783   17.0921 H         1 UNK         0.0000 
     49 H49        -2.9960   47.3389   17.3689 H         1 UNK         0.0000 
     50 H50        -4.1048   47.9771   18.5839 H         1 UNK         0.0000 
     51 H51         8.4492   56.4915   20.2508 H         1 UNK         0.0000 
     52 H52         7.5790   55.9105   18.8511 H         1 UNK         0.0000 
     53 H53         6.9812   57.3407   19.6971 H         1 UNK         0.0000 
@<TRIPOS>BOND
     1    1    2 1    
     2    1   33 1    
     3    1   34 1    
     4    1   35 1    
     5    2    7 ar   
     6    2    3 ar   
     7    3    4 ar   
     8    3   36 1    
     9    4    5 ar   
    10    4   32 1    
    11    5    6 ar   
    12    5   37 1    
    13    6    7 ar   
    14    6    8 1    
    15    7   38 1    
    16    8    9 1    
    17    8   39 1    
    18    9   10 1    
    19    9   11 2    
    20   11   12 1    
    21   11   40 1    
    22   12   21 1    
    23   12   13 2    
    24   13   14 1    
    25   13   41 1    
    26   14   15 1    
    27   15   21 1    
    28   15   16 2    
    29   16   17 1    
    30   17   18 2    
    31   17   31 1    
    32   18   19 1    
    33   18   27 1    
    34   19   20 1    
    35   19   21 1    
    36   19   22 1    
    37   22   26 2    
    38   22   23 1    
    39   23   24 2    
    40   23   42 1    
    41   24   25 1    
    42   24   43 1    
    43   25   26 1    
    44   26   44 1    
    45   27   28 2    
    46   27   29 1    
    47   29   30 1    
    48   30   45 1    
    49   30   46 1    
    50   30   47 1    
    51   31   48 1    
    52   31   49 1    
    53   31   50 1    
    54   32   51 1    
    55   32   52 1    
    56   32   53 1    
@<TRIPOS>SUBSTRUCTURE
     1 UNK         1 GROUP             0       ****    0 ROOT    
