@<TRIPOS>MOLECULE
ZINC13078648_2591
53   55    1
SMALL
USER_CHARGES


@<TRIPOS>ATOM
      1 C1         -1.8455   51.5549   28.2887 C.3       1 UNK         0.0000 
      2 C2         -0.4956   52.0202   28.8044 C.ar      1 UNK         0.0000 
      3 C3         -0.1343   52.4062   30.0841 C.ar      1 UNK         0.0000 
      4 C4          1.1951   52.7991   30.0605 C.ar      1 UNK         0.0000 
      5 C5          1.6672   52.6501   28.7661 C.ar      1 UNK         0.0000 
      6 N6          0.6253   52.1419   27.9918 N.pl3     1 UNK         0.0000 
      7 C7          0.6823   51.8031   26.6156 C.ar      1 UNK         0.0000 
      8 C8          1.1057   52.7424   25.6714 C.ar      1 UNK         0.0000 
      9 C9          1.1564   52.4028   24.3214 C.ar      1 UNK         0.0000 
     10 C10         0.8058   51.1135   23.8998 C.ar      1 UNK         0.0000 
     11 C11         0.3685   50.1777   24.8512 C.ar      1 UNK         0.0000 
     12 C12         0.3044   50.5215   26.1984 C.ar      1 UNK         0.0000 
     13 C13         0.8975   50.7579   22.4335 C.2       1 UNK         0.0000 
     14 O14         0.7677   51.6273   21.5690 O.2       1 UNK         0.0000 
     15 N15         1.1562   49.4637   22.1591 N.am      1 UNK         0.0000 
     16 N16         1.1996   48.9730   20.8610 N.pl3     1 UNK         0.0000 
     17 S17        -0.3760   48.5139   20.1952 S.o2      1 UNK         0.0000 
     18 O18        -0.8280   49.5967   19.3156 O.2       1 UNK         0.0000 
     19 O19        -1.2221   48.0746   21.3131 O.2       1 UNK         0.0000 
     20 C20        -0.0307   47.0588   19.1759 C.ar      1 UNK         0.0000 
     21 C21        -0.4230   45.8154   19.6817 C.ar      1 UNK         0.0000 
     22 C22        -0.0972   44.6196   19.0329 C.ar      1 UNK         0.0000 
     23 C23         0.5564   44.6960   17.7984 C.ar      1 UNK         0.0000 
     24 C24         0.9381   45.9269   17.2529 C.ar      1 UNK         0.0000 
     25 C25         0.6583   47.1235   17.9459 C.ar      1 UNK         0.0000 
     26 C26         1.1252   48.4681   17.3847 C.3       1 UNK         0.0000 
     27 C27         1.6774   45.9189   15.9202 C.3       1 UNK         0.0000 
     28 C28        -0.3902   43.2966   19.6778 C.2       1 UNK         0.0000 
     29 O29        -0.8961   43.2966   20.8249 O.co2     1 UNK         0.0000 
     30 C30         3.0534   52.9428   28.2266 C.3       1 UNK         0.0000 
     31 H31        -2.6331   51.6931   29.0277 H         1 UNK         0.0000 
     32 H32        -2.1492   52.0963   27.3926 H         1 UNK         0.0000 
     33 H33        -1.8530   50.4969   28.0389 H         1 UNK         0.0000 
     34 H34        -0.7774   52.4002   30.9539 H         1 UNK         0.0000 
     35 H35         1.7592   53.1551   30.9098 H         1 UNK         0.0000 
     36 H36         1.3869   53.7392   25.9740 H         1 UNK         0.0000 
     37 H37         1.4858   53.1446   23.6065 H         1 UNK         0.0000 
     38 H38         0.0795   49.1755   24.5631 H         1 UNK         0.0000 
     39 H39        -0.0237   49.7728   26.9063 H         1 UNK         0.0000 
     40 H40         1.6420   48.8939   22.8370 H         1 UNK         0.0000 
     41 H41         1.7026   49.6335   20.2600 H         1 UNK         0.0000 
     42 H42        -0.9271   45.7701   20.6385 H         1 UNK         0.0000 
     43 H43         0.8064   43.7858   17.2722 H         1 UNK         0.0000 
     44 H44         1.5681   49.0847   18.1661 H         1 UNK         0.0000 
     45 H45         1.9042   48.3822   16.6276 H         1 UNK         0.0000 
     46 H46         0.2850   49.0162   16.9584 H         1 UNK         0.0000 
     47 H47         1.1971   46.5974   15.2141 H         1 UNK         0.0000 
     48 H48         2.7080   46.2499   16.0549 H         1 UNK         0.0000 
     49 H49         1.6912   44.9316   15.4565 H         1 UNK         0.0000 
     50 H50         3.7581   53.1745   29.0286 H         1 UNK         0.0000 
     51 H51         3.4701   52.0963   27.6824 H         1 UNK         0.0000 
     52 H52         3.0580   53.8012   27.5510 H         1 UNK         0.0000 
     53 O53        -0.0948   42.2451   19.0604 O.co2     1 UNK         0.0000 
@<TRIPOS>BOND
     1    1    2 1    
     2    1   31 1    
     3    1   32 1    
     4    1   33 1    
     5    2    6 ar   
     6    2    3 ar   
     7    3    4 ar   
     8    3   34 1    
     9    4    5 ar   
    10    4   35 1    
    11    5    6 ar   
    12    5   30 1    
    13    6    7 1    
    14    7   12 ar   
    15    7    8 ar   
    16    8    9 ar   
    17    8   36 1    
    18    9   10 ar   
    19    9   37 1    
    20   10   11 ar   
    21   10   13 1    
    22   11   12 ar   
    23   11   38 1    
    24   12   39 1    
    25   13   14 2    
    26   13   15 am   BACKBONE|DICT|INTERRES
    27   15   16 1    
    28   15   40 1    
    29   16   17 1    
    30   16   41 1    
    31   17   18 2    
    32   17   19 2    
    33   17   20 1    
    34   20   25 ar   
    35   20   21 ar   
    36   21   22 ar   
    37   21   42 1    
    38   22   23 ar   
    39   22   28 1    
    40   23   24 ar   
    41   23   43 1    
    42   24   25 ar   
    43   24   27 1    
    44   25   26 1    
    45   26   44 1    
    46   26   45 1    
    47   26   46 1    
    48   27   47 1    
    49   27   48 1    
    50   27   49 1    
    51   28   29 2    
    52   28   53 1    
    53   30   50 1    
    54   30   51 1    
    55   30   52 1    
@<TRIPOS>SUBSTRUCTURE
     1 UNK         1 GROUP             0       ****    0 ROOT    
