@<TRIPOS>MOLECULE
ZINC39696162_3696
68   71    1
SMALL
USER_CHARGES


@<TRIPOS>ATOM
      1 C1          2.4029   52.8345   30.4085 C.3       1 UNK         0.0000 
      2 C2          3.9046   53.0598   30.1519 C.3       1 UNK         0.0000 
      3 C3          4.3071   53.5173   28.7487 C.ar      1 UNK         0.0000 
      4 C4          3.3729   53.7264   27.7323 C.ar      1 UNK         0.0000 
      5 C5          3.7978   54.0970   26.4611 C.ar      1 UNK         0.0000 
      6 C6          5.1623   54.2538   26.1718 C.ar      1 UNK         0.0000 
      7 C7          6.0891   54.0812   27.2089 C.ar      1 UNK         0.0000 
      8 C8          5.6621   53.7200   28.4818 C.ar      1 UNK         0.0000 
      9 C9          5.6148   54.5644   24.7295 C.3       1 UNK         0.0000 
     10 H10         5.4916   55.6464   24.6432 H         1 UNK         0.0000 
     11 C11         7.1044   54.2731   24.4386 C.3       1 UNK         0.0000 
     12 N12         4.7013   53.9722   23.7439 N.am      1 UNK         0.0000 
     13 C13         4.6272   54.2414   22.4306 C.2       1 UNK         0.0000 
     14 O14         5.5009   54.8715   21.8360 O.2       1 UNK         0.0000 
     15 C15         3.3264   53.8501   21.6876 C.3       1 UNK         0.0000 
     16 H16         3.2118   54.6822   21.0043 H         1 UNK         0.0000 
     17 C17         2.0753   53.8460   22.5824 C.3       1 UNK         0.0000 
     18 N18         1.6686   52.4446   22.6401 N.am      1 UNK         0.0000 
     19 C19         2.5271   51.5590   21.8355 C.3       1 UNK         0.0000 
     20 C20         3.3236   52.5025   20.9053 C.3       1 UNK         0.0000 
     21 C21         2.4800   52.5506   19.5918 C.3       1 UNK         0.0000 
     22 C22         3.0948   53.4487   18.5021 C.3       1 UNK         0.0000 
     23 N23         4.4966   52.8968   18.1790 N.4       1 UNK         0.0000 
     24 C24         5.4025   52.7704   19.4172 C.3       1 UNK         0.0000 
     25 C25         4.6850   51.8975   20.4797 C.3       1 UNK         0.0000 
     26 C26         0.5078   52.1026   23.2523 C.2       1 UNK         0.0000 
     27 O27        -0.1445   52.8946   23.9370 O.2       1 UNK         0.0000 
     28 C28        -0.0511   50.7249   23.0106 C.ar      1 UNK         0.0000 
     29 C29         0.0244   49.7747   24.0385 C.ar      1 UNK         0.0000 
     30 C30        -0.5541   48.5161   23.8826 C.ar      1 UNK         0.0000 
     31 C31        -1.2067   48.1903   22.6987 C.ar      1 UNK         0.0000 
     32 C32        -1.2879   49.1241   21.6693 C.ar      1 UNK         0.0000 
     33 C33        -0.7273   50.3979   21.8130 C.ar      1 UNK         0.0000 
     34 C34        -0.9228   51.3852   20.6638 C.3       1 UNK         0.0000 
     35 F35        -0.4952   47.6106   24.8815 F         1 UNK         0.0000 
     36 H36         2.2293   52.4965   31.4316 H         1 UNK         0.0000 
     37 H37         1.9932   52.0715   29.7429 H         1 UNK         0.0000 
     38 H38         1.8282   53.7506   30.2641 H         1 UNK         0.0000 
     39 H39         4.2893   53.7894   30.8651 H         1 UNK         0.0000 
     40 H40         4.4320   52.1262   30.3587 H         1 UNK         0.0000 
     41 H41         2.3163   53.5931   27.9044 H         1 UNK         0.0000 
     42 H42         3.0470   54.2433   25.6995 H         1 UNK         0.0000 
     43 H43         7.1486   54.2056   27.0520 H         1 UNK         0.0000 
     44 H44         6.3858   53.5973   29.2810 H         1 UNK         0.0000 
     45 H45         7.7457   54.9094   25.0419 H         1 UNK         0.0000 
     46 H46         7.3655   53.2421   24.6558 H         1 UNK         0.0000 
     47 H47         7.3817   54.4656   23.4030 H         1 UNK         0.0000 
     48 H48         3.9532   53.4247   24.1419 H         1 UNK         0.0000 
     49 H49         2.2152   54.3255   23.5521 H         1 UNK         0.0000 
     50 H50         1.2936   54.4128   22.0817 H         1 UNK         0.0000 
     51 H51         2.0331   50.7551   21.2873 H         1 UNK         0.0000 
     52 H52         3.2628   51.0954   22.4817 H         1 UNK         0.0000 
     53 H53         2.3403   51.5469   19.1840 H         1 UNK         0.0000 
     54 H54         1.4687   52.8967   19.8049 H         1 UNK         0.0000 
     55 H55         2.5307   53.4148   17.5684 H         1 UNK         0.0000 
     56 H56         3.2231   54.4903   18.7989 H         1 UNK         0.0000 
     57 H57         4.4320   51.9519   17.8003 H         1 UNK         0.0000 
     58 H58         6.3057   52.2899   19.0480 H         1 UNK         0.0000 
     59 H59         5.6414   53.7865   19.7165 H         1 UNK         0.0000 
     60 H60         5.3334   51.7611   21.3458 H         1 UNK         0.0000 
     61 H61         4.5328   50.8950   20.0818 H         1 UNK         0.0000 
     62 H62         0.5146   50.0070   24.9741 H         1 UNK         0.0000 
     63 H63        -1.6537   47.2144   22.5849 H         1 UNK         0.0000 
     64 H64        -1.8049   48.8575   20.7585 H         1 UNK         0.0000 
     65 H65        -1.9227   51.2784   20.2423 H         1 UNK         0.0000 
     66 H66        -0.8418   52.4288   20.9681 H         1 UNK         0.0000 
     67 H67        -0.2088   51.1843   19.8670 H         1 UNK         0.0000 
     68 H68         4.9497   53.4596   17.4729 H         1 UNK         0.0000 
@<TRIPOS>BOND
     1    1    2 1    
     2    1   36 1    
     3    1   37 1    
     4    1   38 1    
     5    2    3 1    
     6    2   39 1    
     7    2   40 1    
     8    3    8 ar   
     9    3    4 ar   
    10    4    5 ar   
    11    4   41 1    
    12    5    6 ar   
    13    5   42 1    
    14    6    7 ar   
    15    6    9 1    
    16    7    8 ar   
    17    7   43 1    
    18    8   44 1    
    19    9   10 1    
    20    9   11 1    
    21    9   12 1    
    22   11   45 1    
    23   11   46 1    
    24   11   47 1    
    25   12   13 am   BACKBONE|DICT|INTERRES
    26   12   48 1    
    27   13   14 2    
    28   13   15 1    
    29   15   16 1    
    30   15   20 1    
    31   15   17 1    
    32   17   18 1    
    33   17   49 1    
    34   17   50 1    
    35   18   19 1    
    36   18   26 am   BACKBONE|DICT|INTERRES
    37   19   20 1    
    38   19   51 1    
    39   19   52 1    
    40   20   25 1    
    41   20   21 1    
    42   21   22 1    
    43   21   53 1    
    44   21   54 1    
    45   22   23 1    
    46   22   55 1    
    47   22   56 1    
    48   23   24 1    
    49   23   57 1    
    50   23   68 1    
    51   24   25 1    
    52   24   58 1    
    53   24   59 1    
    54   25   60 1    
    55   25   61 1    
    56   26   27 2    
    57   26   28 1    
    58   28   33 ar   
    59   28   29 ar   
    60   29   30 ar   
    61   29   62 1    
    62   30   31 ar   
    63   30   35 1    
    64   31   32 ar   
    65   31   63 1    
    66   32   33 ar   
    67   32   64 1    
    68   33   34 1    
    69   34   65 1    
    70   34   66 1    
    71   34   67 1    
@<TRIPOS>SUBSTRUCTURE
     1 UNK         1 GROUP             0       ****    0 ROOT    
