ZINC63425574_1112
                    3D
 Schrodinger Suite 2024-2.
 61 64  0  0  1  0            999 V2000
    2.3324   49.9640   18.6005 C   0  0  0  0  0  0
    0.9108   50.3923   18.1640 C   0  0  0  0  0  0
    0.7958   51.9264   17.9803 C   0  0  0  0  0  0
    0.5796   49.7063   16.8239 C   0  0  0  0  0  0
   -0.0703   49.8665   19.0796 O   0  0  0  0  0  0
   -0.0825   49.9889   20.4442 C   0  0  0  0  0  0
   -0.5865   49.1188   21.1478 O   0  0  0  0  0  0
    0.4973   51.1752   20.8901 N   0  0  0  0  0  0
    0.7629   51.5312   22.2906 C   0  0  1  0  0  0
    1.5414   50.8474   22.6380 H   0  0  0  0  0  0
    1.3269   52.9862   22.3708 C   0  0  0  0  0  0
    2.8192   53.1834   22.1247 C   0  0  0  0  0  0
    3.7781   53.6606   22.9410 C   0  0  0  0  0  0
    3.7170   54.1015   24.3431 C   0  0  0  0  0  0
    4.8308   54.5032   24.9903 C   0  0  0  0  0  0
    6.0865   54.5025   24.2572 C   0  0  0  0  0  0
    6.1566   54.1208   22.9555 C   0  0  0  0  0  0
    5.0074   53.6933   22.2766 C   0  0  0  0  0  0
    4.8701   53.2808   21.0404 N   0  3  0  0  0  0
    3.4752   52.8885   20.7918 C   0  0  0  0  0  0
   -0.4552   51.3204   23.2465 C   0  0  2  0  0  0
   -0.8711   50.3145   23.1961 H   0  0  0  0  0  0
   -1.5156   52.2571   23.0034 N   0  0  0  0  0  0
   -1.7541   52.8960   24.0561 N   0  0  0  0  0  0
   -0.8845   52.4490   25.1037 C   0  0  2  0  0  0
   -0.2965   53.2966   25.4358 H   0  0  0  0  0  0
   -0.0010   51.4985   24.5628 O   0  0  0  0  0  0
   -1.8356   51.8353   26.5186 S   0  0  0  0  0  0
   -0.5377   51.0529   27.5284 C   0  0  0  0  0  0
    0.4810   52.0427   28.0949 C   0  0  0  0  0  0
    1.5726   52.4239   27.3079 C   0  0  0  0  0  0
    2.5382   53.2939   27.8033 C   0  0  0  0  0  0
    2.4179   53.8122   29.0877 C   0  0  0  0  0  0
    1.3375   53.4434   29.8853 C   0  0  0  0  0  0
    0.3776   52.5525   29.3999 C   0  0  0  0  0  0
   -0.8955   52.0852   30.4613 Cl  0  0  0  0  0  0
    3.6185   54.8950   29.6820 Cl  0  0  0  0  0  0
    2.5313   50.1143   19.6579 H   0  0  0  0  0  0
    2.5070   48.9027   18.4208 H   0  0  0  0  0  0
    3.1000   50.5256   18.0721 H   0  0  0  0  0  0
    1.3548   52.2549   17.1031 H   0  0  0  0  0  0
   -0.2417   52.2250   17.8273 H   0  0  0  0  0  0
    1.1831   52.5023   18.8184 H   0  0  0  0  0  0
    0.6110   48.6184   16.9101 H   0  0  0  0  0  0
   -0.4179   49.9727   16.4718 H   0  0  0  0  0  0
    1.2947   49.9869   16.0468 H   0  0  0  0  0  0
    0.8741   51.7838   20.1811 H   0  0  0  0  0  0
    0.7845   53.6347   21.6850 H   0  0  0  0  0  0
    1.1245   53.4034   23.3552 H   0  0  0  0  0  0
    2.7852   54.1176   24.8886 H   0  0  0  0  0  0
    4.7986   54.8446   26.0139 H   0  0  0  0  0  0
    6.9920   54.8200   24.7596 H   0  0  0  0  0  0
    7.1227   54.1484   22.4732 H   0  0  0  0  0  0
    3.4798   51.8319   20.5290 H   0  0  0  0  0  0
    3.1049   53.4836   19.9565 H   0  0  0  0  0  0
   -1.0195   50.4970   28.3293 H   0  0  0  0  0  0
   -0.0280   50.2901   26.9380 H   0  0  0  0  0  0
    1.6871   52.0389   26.3070 H   0  0  0  0  0  0
    3.3875   53.5557   27.1948 H   0  0  0  0  0  0
    1.2404   53.8349   30.8871 H   0  0  0  0  0  0
    5.6103   53.2147   20.3461 H   0  0  0  0  0  0
  1  2  1  0  0  0
  1 38  1  0  0  0
  1 39  1  0  0  0
  1 40  1  0  0  0
  2  3  1  0  0  0
  2  4  1  0  0  0
  2  5  1  0  0  0
  3 41  1  0  0  0
  3 42  1  0  0  0
  3 43  1  0  0  0
  4 44  1  0  0  0
  4 45  1  0  0  0
  4 46  1  0  0  0
  5  6  1  0  0  0
  6  7  2  0  0  0
  6  8  1  0  0  0
  8  9  1  0  0  0
  8 47  1  0  0  0
  9 10  1  0  0  0
  9 11  1  0  0  0
  9 21  1  0  0  0
 11 12  1  0  0  0
 11 48  1  0  0  0
 11 49  1  0  0  0
 12 20  1  0  0  0
 12 13  2  0  0  0
 13 18  1  0  0  0
 13 14  1  0  0  0
 14 15  2  0  0  0
 14 50  1  0  0  0
 15 16  1  0  0  0
 15 51  1  0  0  0
 16 17  2  0  0  0
 16 52  1  0  0  0
 17 18  1  0  0  0
 17 53  1  0  0  0
 18 19  2  0  0  0
 19 20  1  0  0  0
 19 61  1  0  0  0
 20 54  1  0  0  0
 20 55  1  0  0  0
 21 22  1  0  0  0
 21 27  1  0  0  0
 21 23  1  0  0  0
 23 24  2  0  0  0
 24 25  1  0  0  0
 25 26  1  0  0  0
 25 27  1  0  0  0
 25 28  1  0  0  0
 28 29  1  0  0  0
 29 30  1  0  0  0
 29 56  1  0  0  0
 29 57  1  0  0  0
 30 35  2  0  0  0
 30 31  1  0  0  0
 31 32  2  0  0  0
 31 58  1  0  0  0
 32 33  1  0  0  0
 32 59  1  0  0  0
 33 34  2  0  0  0
 33 37  1  0  0  0
 34 35  1  0  0  0
 34 60  1  0  0  0
 35 36  1  0  0  0
M  CHG  1  19   1
M  END
> <i_i_glide_confnum>
36

> <i_i_glide_lignum>
1113

> <i_i_glide_posenum>
340

> <i_i_glide_rotatable_bonds>
10

> <i_m_Source_File_Index>
92

> <b_m_subgroup_collapsed>
0

> <r_i_docking_score>
-2.96455

> <r_i_glide_ecoul>
-2.57691

> <r_i_glide_eff_state_penalty>
0

> <r_i_glide_einternal>
9.29888

> <r_i_glide_emodel>
-43.2541

> <r_i_glide_energy>
-42.028

> <r_i_glide_erotb>
0.678004

> <r_i_glide_esite>
-0.00460453

> <r_i_glide_evdw>
-39.4511

> <r_i_glide_gscore>
-2.96455

> <r_i_glide_hbond>
0

> <r_i_glide_ligand_efficiency>
-0.0871926

> <r_i_glide_ligand_efficiency_ln>
-0.654952

> <r_i_glide_ligand_efficiency_sa>
-0.28247

> <r_i_glide_lipo>
-2.61676

> <r_i_glide_metal>
0

> <r_i_glide_rewards>
1.3379

> <s_i_glide_gridfile>
wee1_glide-grid

> <s_m_Source_File>
wee1_decoys_glide_SP.sdf

> <s_m_Source_Path>
/Users/zhangxujun/Desktop

> <s_m_entry_id>
367

> <s_m_entry_name>
wee1_decoys_glide_SP.92

> <s_m_subgroup_title>
wee1_decoys_glide_SP

> <s_m_subgroupid>
wee1_decoys_glide_SP


$$$$
