ZINC35098011_5396
                    3D
 Schrodinger Suite 2024-2.
 64 65  0  0  1  0            999 V2000
   -3.7988   51.4009   27.3585 C   0  0  0  0  0  0
   -2.3115   51.0787   27.1296 C   0  0  0  0  0  0
   -1.5326   52.1865   26.3732 C   0  0  2  0  0  0
   -1.6373   53.0901   26.9718 H   0  0  0  0  0  0
   -2.1937   52.5084   25.0108 C   0  0  0  0  0  0
    0.0121   51.9484   26.2367 C   0  0  2  0  0  0
    0.4587   52.8711   25.8982 H   0  0  0  0  0  0
    0.3066   50.7556   25.2725 C   0  0  0  0  0  0
    0.0568   49.6190   25.6812 O   0  0  0  0  0  0
    0.8822   50.9729   24.0539 N   0  0  0  0  0  0
    1.1556   52.3052   23.4618 C   0  0  0  0  0  0
    0.6491   52.3317   21.9970 C   0  0  0  0  0  0
    1.2319   51.1745   21.2887 N   0  0  0  0  0  0
    0.8169   49.8618   21.8346 C   0  0  1  0  0  0
    1.3191   49.0655   21.2845 H   0  0  0  0  0  0
    1.3735   49.8062   23.2800 C   0  0  0  0  0  0
   -0.6913   49.5470   21.7550 C   0  0  0  0  0  0
    2.3250   51.2642   20.4752 C   0  0  0  0  0  0
    2.9778   50.2761   20.1376 O   0  0  0  0  0  0
    2.6347   52.4963   20.0219 N   0  0  0  0  0  0
    3.8157   52.8375   19.2264 C   0  0  0  0  0  0
    3.6334   54.1984   18.5409 C   0  0  0  0  0  0
    5.1079   52.7950   20.0646 C   0  0  0  0  0  0
    0.6846   51.6137   27.5237 N   0  0  0  0  0  0
    1.2734   52.8617   28.6196 S   0  0  0  0  0  0
    1.4801   52.2283   29.9271 O   0  0  0  0  0  0
    0.4142   54.0418   28.4817 O   0  0  0  0  0  0
    2.8961   53.3289   28.0004 C   0  0  0  0  0  0
    4.0402   53.1293   28.7803 C   0  0  0  0  0  0
    5.2870   53.5167   28.2916 C   0  0  0  0  0  0
    5.3895   54.0966   27.0291 C   0  0  0  0  0  0
    4.2547   54.3011   26.2506 C   0  0  0  0  0  0
    3.0089   53.9217   26.7386 C   0  0  0  0  0  0
    7.0961   54.6056   26.3621 Br  0  0  0  0  0  0
   -4.1290   51.0408   28.3353 H   0  0  0  0  0  0
   -4.0015   52.4709   27.3067 H   0  0  0  0  0  0
   -4.4188   50.9160   26.6022 H   0  0  0  0  0  0
   -2.2528   50.1342   26.5889 H   0  0  0  0  0  0
   -1.8454   50.8913   28.0988 H   0  0  0  0  0  0
   -2.2267   51.6340   24.3607 H   0  0  0  0  0  0
   -3.2187   52.8583   25.1284 H   0  0  0  0  0  0
   -1.6512   53.2941   24.4826 H   0  0  0  0  0  0
    0.6598   53.1293   23.9636 H   0  0  0  0  0  0
    2.2334   52.4737   23.4795 H   0  0  0  0  0  0
   -0.4328   52.2099   21.9999 H   0  0  0  0  0  0
    0.8288   53.2875   21.5032 H   0  0  0  0  0  0
    2.4640   49.8391   23.2467 H   0  0  0  0  0  0
    1.1053   48.8484   23.7294 H   0  0  0  0  0  0
   -0.8861   48.5482   22.1458 H   0  0  0  0  0  0
   -1.2910   50.2247   22.3595 H   0  0  0  0  0  0
   -1.0522   49.5745   20.7267 H   0  0  0  0  0  0
    2.0001   53.2582   20.2088 H   0  0  0  0  0  0
    3.9043   52.0962   18.4270 H   0  0  0  0  0  0
    4.5110   54.4494   17.9433 H   0  0  0  0  0  0
    2.7767   54.1986   17.8658 H   0  0  0  0  0  0
    3.5126   55.0006   19.2698 H   0  0  0  0  0  0
    5.9608   53.0968   19.4571 H   0  0  0  0  0  0
    5.0618   53.4773   20.9132 H   0  0  0  0  0  0
    5.3219   51.7874   20.4232 H   0  0  0  0  0  0
    0.3484   50.7581   27.9753 H   0  0  0  0  0  0
    3.9718   52.6746   29.7587 H   0  0  0  0  0  0
    6.1794   53.3676   28.8791 H   0  0  0  0  0  0
    4.3410   54.7506   25.2726 H   0  0  0  0  0  0
    2.1387   54.0967   26.1321 H   0  0  0  0  0  0
  1  2  1  0  0  0
  1 35  1  0  0  0
  1 36  1  0  0  0
  1 37  1  0  0  0
  2  3  1  0  0  0
  2 38  1  0  0  0
  2 39  1  0  0  0
  3  4  1  0  0  0
  3  5  1  0  0  0
  3  6  1  0  0  0
  5 40  1  0  0  0
  5 41  1  0  0  0
  5 42  1  0  0  0
  6  7  1  0  0  0
  6  8  1  0  0  0
  6 24  1  0  0  0
  8  9  2  0  0  0
  8 10  1  0  0  0
 10 16  1  0  0  0
 10 11  1  0  0  0
 11 12  1  0  0  0
 11 43  1  0  0  0
 11 44  1  0  0  0
 12 13  1  0  0  0
 12 45  1  0  0  0
 12 46  1  0  0  0
 13 14  1  0  0  0
 13 18  1  0  0  0
 14 15  1  0  0  0
 14 16  1  0  0  0
 14 17  1  0  0  0
 16 47  1  0  0  0
 16 48  1  0  0  0
 17 49  1  0  0  0
 17 50  1  0  0  0
 17 51  1  0  0  0
 18 19  2  0  0  0
 18 20  1  0  0  0
 20 21  1  0  0  0
 20 52  1  0  0  0
 21 22  1  0  0  0
 21 23  1  0  0  0
 21 53  1  0  0  0
 22 54  1  0  0  0
 22 55  1  0  0  0
 22 56  1  0  0  0
 23 57  1  0  0  0
 23 58  1  0  0  0
 23 59  1  0  0  0
 24 25  1  0  0  0
 24 60  1  0  0  0
 25 26  2  0  0  0
 25 27  2  0  0  0
 25 28  1  0  0  0
 28 33  2  0  0  0
 28 29  1  0  0  0
 29 30  2  0  0  0
 29 61  1  0  0  0
 30 31  1  0  0  0
 30 62  1  0  0  0
 31 32  2  0  0  0
 31 34  1  0  0  0
 32 33  1  0  0  0
 32 63  1  0  0  0
 33 64  1  0  0  0
M  END
> <i_i_glide_confnum>
152

> <i_i_glide_lignum>
5397

> <i_i_glide_posenum>
139

> <i_i_glide_rotatable_bonds>
10

> <i_m_Source_File_Index>
5832

> <b_m_subgroup_collapsed>
0

> <r_i_docking_score>
-3.73086

> <r_i_glide_ecoul>
-1.41975

> <r_i_glide_eff_state_penalty>
0

> <r_i_glide_einternal>
14.9553

> <r_i_glide_emodel>
-46.6238

> <r_i_glide_energy>
-45.8067

> <r_i_glide_erotb>
0.536718

> <r_i_glide_esite>
-0.0415784

> <r_i_glide_evdw>
-44.3869

> <r_i_glide_gscore>
-3.73086

> <r_i_glide_hbond>
-0.289281

> <r_i_glide_ligand_efficiency>
-0.12035

> <r_i_glide_ligand_efficiency_ln>
-0.841424

> <r_i_glide_ligand_efficiency_sa>
-0.378067

> <r_i_glide_lipo>
-1.81981

> <r_i_glide_metal>
0

> <r_i_glide_rewards>
0.315396

> <s_i_glide_gridfile>
wee1_glide-grid

> <s_m_Source_File>
wee1_decoys_glide_SP.sdf

> <s_m_Source_Path>
/Users/zhangxujun/Desktop

> <s_m_entry_id>
6107

> <s_m_entry_name>
wee1_decoys_glide_SP.5832

> <s_m_subgroup_title>
wee1_decoys_glide_SP

> <s_m_subgroupid>
wee1_decoys_glide_SP


$$$$
