@<TRIPOS>MOLECULE
ZINC38845452_1093
68   70    1
SMALL
USER_CHARGES


@<TRIPOS>ATOM
      1 C1          2.3034   51.1734   18.2724 C.3       1 UNK         0.0000 
      2 C2          2.6810   52.6607   18.1486 C.3       1 UNK         0.0000 
      3 N3          4.1120   52.8083   17.5642 N.4       1 UNK         0.0000 
      4 C4          4.1339   52.4968   16.0420 C.3       1 UNK         0.0000 
      5 C5          5.5658   52.4236   15.4812 C.3       1 UNK         0.0000 
      6 C6          4.7868   54.1662   17.8925 C.3       1 UNK         0.0000 
      7 C7          4.8054   54.4892   19.4110 C.3       1 UNK         0.0000 
      8 N8          5.9597   55.2881   19.9002 N.am      1 UNK         0.0000 
      9 C9          6.5334   56.2365   19.0347 C.2       1 UNK         0.0000 
     10 N10         7.8241   56.4142   18.8895 N.2       1 UNK         0.0000 
     11 C11         8.0961   57.3848   17.9776 C.ar      1 UNK         0.0000 
     12 C12         9.3812   57.7952   17.5969 C.ar      1 UNK         0.0000 
     13 C13         9.4982   58.7903   16.6232 C.ar      1 UNK         0.0000 
     14 C14         8.3684   59.3714   16.0371 C.ar      1 UNK         0.0000 
     15 C15         7.0816   58.9792   16.4097 C.ar      1 UNK         0.0000 
     16 C16         6.9574   57.9896   17.3878 C.ar      1 UNK         0.0000 
     17 S17         5.5068   57.2958   18.0815 S.3       1 UNK         0.0000 
     18 S18         8.5696   60.6002   14.7502 S.o2      1 UNK         0.0000 
     19 O19         8.1817   59.9486   13.4958 O.2       1 UNK         0.0000 
     20 O20         9.9103   61.1752   14.9050 O.2       1 UNK         0.0000 
     21 C21         7.3124   61.9502   15.1261 C.3       1 UNK         0.0000 
     22 C22         6.3172   55.2967   21.2256 C.2       1 UNK         0.0000 
     23 O23         7.1593   56.0732   21.6818 O.2       1 UNK         0.0000 
     24 C24         5.6409   54.3092   22.2121 C.3       1 UNK         0.0000 
     25 C25         6.3306   54.0923   23.5873 C.3       1 UNK         0.0000 
     26 C26         6.4061   55.3095   24.5312 C.3       1 UNK         0.0000 
     27 S27         6.7044   54.8966   26.2737 S.3       1 UNK         0.0000 
     28 C28         5.2327   54.2542   27.0212 C.ar      1 UNK         0.0000 
     29 C29         4.0211   54.1962   26.3268 C.ar      1 UNK         0.0000 
     30 C30         2.8850   53.6961   26.9593 C.ar      1 UNK         0.0000 
     31 C31         2.9606   53.2527   28.2812 C.ar      1 UNK         0.0000 
     32 C32         4.1726   53.3079   28.9712 C.ar      1 UNK         0.0000 
     33 C33         5.3063   53.8147   28.3422 C.ar      1 UNK         0.0000 
     34 C34         1.7270   52.6818   28.9587 C.3       1 UNK         0.0000 
     35 H35         1.3530   51.0578   18.7926 H         1 UNK         0.0000 
     36 H36         2.1974   50.6804   17.3063 H         1 UNK         0.0000 
     37 H37         3.0551   50.6201   18.8367 H         1 UNK         0.0000 
     38 H38         2.6762   53.1104   19.1409 H         1 UNK         0.0000 
     39 H39         2.0088   53.2335   17.5068 H         1 UNK         0.0000 
     40 H40         3.6507   51.5262   15.9231 H         1 UNK         0.0000 
     41 H41         3.5262   53.2598   15.5524 H         1 UNK         0.0000 
     42 H42         5.5549   52.0192   14.4686 H         1 UNK         0.0000 
     43 H43         6.0402   53.4028   15.4241 H         1 UNK         0.0000 
     44 H44         6.2000   51.7694   16.0804 H         1 UNK         0.0000 
     45 H45         4.2247   54.9022   17.3145 H         1 UNK         0.0000 
     46 H46         5.8036   54.0815   17.5101 H         1 UNK         0.0000 
     47 H47         4.7687   53.5340   19.9314 H         1 UNK         0.0000 
     48 H48         3.8895   55.0180   19.6787 H         1 UNK         0.0000 
     49 H49        10.2568   57.3425   18.0399 H         1 UNK         0.0000 
     50 H50        10.4851   59.1025   16.3084 H         1 UNK         0.0000 
     51 H51         6.2027   59.4334   15.9734 H         1 UNK         0.0000 
     52 H52         7.3861   62.7102   14.3523 H         1 UNK         0.0000 
     53 H53         7.5392   62.3860   16.0945 H         1 UNK         0.0000 
     54 H54         6.3069   61.5324   15.1376 H         1 UNK         0.0000 
     55 H55         4.6105   54.6286   22.3702 H         1 UNK         0.0000 
     56 H56         5.6009   53.3223   21.7532 H         1 UNK         0.0000 
     57 H57         5.7876   53.3002   24.1024 H         1 UNK         0.0000 
     58 H58         7.3376   53.6967   23.4395 H         1 UNK         0.0000 
     59 H59         7.2183   55.9643   24.2172 H         1 UNK         0.0000 
     60 H60         5.5042   55.9111   24.4820 H         1 UNK         0.0000 
     61 H61         3.9413   54.5325   25.3055 H         1 UNK         0.0000 
     62 H62         1.9501   53.6484   26.4209 H         1 UNK         0.0000 
     63 H63         4.2399   52.9604   29.9915 H         1 UNK         0.0000 
     64 H64         6.2432   53.8661   28.8794 H         1 UNK         0.0000 
     65 H65         1.1226   52.1156   28.2473 H         1 UNK         0.0000 
     66 H66         1.9945   51.9881   29.7574 H         1 UNK         0.0000 
     67 H67         1.1095   53.4797   29.3741 H         1 UNK         0.0000 
     68 H68         4.6647   52.0568   17.9883 H         1 UNK         0.0000 
@<TRIPOS>BOND
     1    1    2 1    
     2    1   35 1    
     3    1   36 1    
     4    1   37 1    
     5    2    3 1    
     6    2   38 1    
     7    2   39 1    
     8    3    4 1    
     9    3    6 1    
    10    3   68 1    
    11    4    5 1    
    12    4   40 1    
    13    4   41 1    
    14    5   42 1    
    15    5   43 1    
    16    5   44 1    
    17    6    7 1    
    18    6   45 1    
    19    6   46 1    
    20    7    8 1    
    21    7   47 1    
    22    7   48 1    
    23    8    9 am   BACKBONE|DICT|INTERRES
    24    8   22 am   BACKBONE|DICT|INTERRES
    25    9   17 1    
    26    9   10 2    
    27   10   11 1    
    28   11   16 ar   
    29   11   12 ar   
    30   12   13 ar   
    31   12   49 1    
    32   13   14 ar   
    33   13   50 1    
    34   14   15 ar   
    35   14   18 1    
    36   15   16 ar   
    37   15   51 1    
    38   16   17 1    
    39   18   19 2    
    40   18   20 2    
    41   18   21 1    
    42   21   52 1    
    43   21   53 1    
    44   21   54 1    
    45   22   23 2    
    46   22   24 1    
    47   24   25 1    
    48   24   55 1    
    49   24   56 1    
    50   25   26 1    
    51   25   57 1    
    52   25   58 1    
    53   26   27 1    
    54   26   59 1    
    55   26   60 1    
    56   27   28 1    
    57   28   33 ar   
    58   28   29 ar   
    59   29   30 ar   
    60   29   61 1    
    61   30   31 ar   
    62   30   62 1    
    63   31   32 ar   
    64   31   34 1    
    65   32   33 ar   
    66   32   63 1    
    67   33   64 1    
    68   34   65 1    
    69   34   66 1    
    70   34   67 1    
@<TRIPOS>SUBSTRUCTURE
     1 UNK         1 GROUP             0       ****    0 ROOT    
