@<TRIPOS>MOLECULE
ZINC20213473_5635
60   64    1
SMALL
USER_CHARGES


@<TRIPOS>ATOM
      1 C1          5.6568   51.6156   13.7142 C.3       1 UNK         0.0000 
      2 C2          7.1188   51.3427   14.0454 C.ar      1 UNK         0.0000 
      3 C3          7.8932   50.6116   13.1389 C.ar      1 UNK         0.0000 
      4 C4          9.2230   50.3107   13.4240 C.ar      1 UNK         0.0000 
      5 C5          9.7889   50.7317   14.6243 C.ar      1 UNK         0.0000 
      6 C6          9.0358   51.4643   15.5465 C.ar      1 UNK         0.0000 
      7 C7          7.6977   51.7888   15.2500 C.ar      1 UNK         0.0000 
      8 N8          6.9157   52.4968   16.1891 N.pl3     1 UNK         0.0000 
      9 C9          6.6944   53.8468   16.3077 C.2       1 UNK         0.0000 
     10 S10         7.4423   54.9616   15.2896 S.2       1 UNK         0.0000 
     11 N11         5.8255   54.2089   17.3226 N.pl3     1 UNK         0.0000 
     12 C12         5.8290   55.5571   17.9606 C.3       1 UNK         0.0000 
     13 C13         5.9969   55.3436   19.4839 C.3       1 UNK         0.0000 
     14 C14         4.8720   54.4380   20.0309 C.3       1 UNK         0.0000 
     15 C15         4.9464   53.0770   19.3137 C.3       1 UNK         0.0000 
     16 C16         4.7510   53.2895   17.7918 C.3       1 UNK         0.0000 
     17 C17         4.8372   54.3235   21.5603 C.ar      1 UNK         0.0000 
     18 C18         5.9162   54.4965   22.3700 C.ar      1 UNK         0.0000 
     19 C19         5.8553   54.4655   23.8151 C.ar      1 UNK         0.0000 
     20 N20         4.5284   54.1881   24.2650 N.pl3     1 UNK         0.0000 
     21 C21         3.4178   53.9853   23.4629 C.ar      1 UNK         0.0000 
     22 N22         3.5648   54.0843   22.0843 N.pl3     1 UNK         0.0000 
     23 C23         2.3750   53.7154   24.3269 C.ar      1 UNK         0.0000 
     24 C24         2.9270   53.8024   25.6163 C.ar      1 UNK         0.0000 
     25 N25         4.2106   54.0972   25.5659 N.2       1 UNK         0.0000 
     26 C26         2.2466   53.6100   26.9279 C.ar      1 UNK         0.0000 
     27 C27         2.5841   54.4208   28.0174 C.ar      1 UNK         0.0000 
     28 C28         1.9671   54.2284   29.2477 C.ar      1 UNK         0.0000 
     29 C29         1.0269   53.2125   29.3952 C.ar      1 UNK         0.0000 
     30 C30         0.6764   52.4042   28.3156 C.ar      1 UNK         0.0000 
     31 C31         1.2808   52.6097   27.0779 C.ar      1 UNK         0.0000 
     32 Cl32        0.3045   52.9480   30.9349 Cl        1 UNK         0.0000 
     33 O33         6.7711   54.6609   24.6159 O.2       1 UNK         0.0000 
     34 C34         9.6801   51.8762   16.8609 C.3       1 UNK         0.0000 
     35 H35         5.0156   51.2346   14.5112 H         1 UNK         0.0000 
     36 H36         5.4815   52.6888   13.6361 H         1 UNK         0.0000 
     37 H37         5.3460   51.1451   12.7804 H         1 UNK         0.0000 
     38 H38         7.4648   50.2665   12.2099 H         1 UNK         0.0000 
     39 H39         9.8180   49.7455   12.7191 H         1 UNK         0.0000 
     40 H40        10.8176   50.4786   14.8353 H         1 UNK         0.0000 
     41 H41         6.4733   51.9119   16.8871 H         1 UNK         0.0000 
     42 H42         6.6168   56.2212   17.6050 H         1 UNK         0.0000 
     43 H43         4.8765   56.0405   17.7379 H         1 UNK         0.0000 
     44 H44         6.9809   54.9029   19.6564 H         1 UNK         0.0000 
     45 H45         5.9824   56.3136   19.9835 H         1 UNK         0.0000 
     46 H46         3.9290   54.9050   19.7359 H         1 UNK         0.0000 
     47 H47         4.1710   52.4017   19.6791 H         1 UNK         0.0000 
     48 H48         5.9042   52.5817   19.4814 H         1 UNK         0.0000 
     49 H49         3.7945   53.7791   17.6017 H         1 UNK         0.0000 
     50 H50         4.7045   52.3372   17.2635 H         1 UNK         0.0000 
     51 H51         6.8871   54.7005   21.9469 H         1 UNK         0.0000 
     52 H52         1.3502   53.4983   24.0663 H         1 UNK         0.0000 
     53 H53         3.3227   55.2028   27.9115 H         1 UNK         0.0000 
     54 H54         2.2237   54.8623   30.0817 H         1 UNK         0.0000 
     55 H55        -0.0534   51.6158   28.4378 H         1 UNK         0.0000 
     56 H56         1.0157   51.9749   26.2450 H         1 UNK         0.0000 
     57 H57         9.1095   51.4462   17.6820 H         1 UNK         0.0000 
     58 H58        10.7133   51.5371   16.9474 H         1 UNK         0.0000 
     59 H59         9.6624   52.9609   16.9770 H         1 UNK         0.0000 
     60 H60         2.7719   53.9979   21.4619 H         1 UNK         0.0000 
@<TRIPOS>BOND
     1    1    2 1    
     2    1   35 1    
     3    1   36 1    
     4    1   37 1    
     5    2    7 ar   
     6    2    3 ar   
     7    3    4 ar   
     8    3   38 1    
     9    4    5 ar   
    10    4   39 1    
    11    5    6 ar   
    12    5   40 1    
    13    6    7 ar   
    14    6   34 1    
    15    7    8 1    
    16    8    9 1    
    17    8   41 1    
    18    9   10 2    
    19    9   11 1    
    20   11   16 1    
    21   11   12 1    
    22   12   13 1    
    23   12   42 1    
    24   12   43 1    
    25   13   14 1    
    26   13   44 1    
    27   13   45 1    
    28   14   15 1    
    29   14   17 1    
    30   14   46 1    
    31   15   16 1    
    32   15   47 1    
    33   15   48 1    
    34   16   49 1    
    35   16   50 1    
    36   17   22 ar   
    37   17   18 ar   
    38   18   19 ar   
    39   18   51 1    
    40   19   20 ar   
    41   19   33 2    
    42   20   25 ar   
    43   20   21 ar   
    44   21   22 ar   
    45   21   23 ar   
    46   22   60 1    
    47   23   24 ar   
    48   23   52 1    
    49   24   25 ar   
    50   24   26 1    
    51   26   31 ar   
    52   26   27 ar   
    53   27   28 ar   
    54   27   53 1    
    55   28   29 ar   
    56   28   54 1    
    57   29   30 ar   
    58   29   32 1    
    59   30   31 ar   
    60   30   55 1    
    61   31   56 1    
    62   34   57 1    
    63   34   58 1    
    64   34   59 1    
@<TRIPOS>SUBSTRUCTURE
     1 UNK         1 GROUP             0       ****    0 ROOT    
