ZINC09236853_2032
                    3D
 Schrodinger Suite 2024-2.
 49 52  0  0  1  0            999 V2000
    6.4262   54.0836   28.2978 C   0  0  0  0  0  0
    5.2516   54.0809   27.3386 C   0  0  0  0  0  0
    5.4799   54.1929   25.9623 C   0  0  0  0  0  0
    4.4040   54.1837   25.0606 C   0  0  0  0  0  0
    3.1020   54.0923   25.5572 C   0  0  0  0  0  0
    2.8712   53.9801   26.9256 C   0  0  0  0  0  0
    3.9392   53.9692   27.8188 C   0  0  0  0  0  0
    3.5680   53.7938   29.6817 Br  0  0  0  0  0  0
    4.5257   54.2567   23.6629 N   0  0  0  0  0  0
    5.5924   54.0056   22.8764 C   0  0  0  0  0  0
    6.7044   53.6967   23.3060 O   0  0  0  0  0  0
    5.3861   54.0786   21.3419 C   0  0  1  0  0  0
    5.9023   53.2009   20.9689 H   0  0  0  0  0  0
    3.9072   53.9989   20.8249 C   0  0  1  0  0  0
    3.3872   54.8851   21.1876 H   0  0  0  0  0  0
    3.9047   54.0308   19.3613 N   0  0  0  0  0  0
    4.4918   55.1724   18.8278 N   0  0  0  0  0  0
    4.1168   55.8332   17.6822 C   0  0  0  0  0  0
    4.8985   56.8624   17.4685 N   0  0  0  0  0  0
    5.8261   56.8964   18.5045 N   0  0  0  0  0  0
    5.5615   55.8931   19.3059 C   0  0  0  0  0  0
    6.3857   55.5291   20.8186 S   0  0  0  0  0  0
    2.9537   55.4326   16.8027 C   0  0  0  0  0  0
    3.1282   52.7716   21.3255 C   0  0  0  0  0  0
    3.4637   51.4867   20.8834 C   0  0  0  0  0  0
    2.7613   50.3815   21.3554 C   0  0  0  0  0  0
    1.7447   50.5295   22.2965 C   0  0  0  0  0  0
    1.3930   51.8180   22.7230 C   0  0  0  0  0  0
    2.0675   52.9295   22.2236 C   0  0  0  0  0  0
    1.1460   49.3669   22.7416 O   0  0  0  0  0  0
    0.2648   49.4239   23.8587 C   0  0  0  0  0  0
    7.3868   54.2016   27.7958 H   0  0  0  0  0  0
    6.4423   53.1613   28.8754 H   0  0  0  0  0  0
    6.3034   54.8966   29.0091 H   0  0  0  0  0  0
    6.4957   54.2812   25.6106 H   0  0  0  0  0  0
    2.2555   54.0913   24.8871 H   0  0  0  0  0  0
    1.8593   53.8969   27.2946 H   0  0  0  0  0  0
    3.6610   54.4231   23.1749 H   0  0  0  0  0  0
    2.9371   54.0319   19.0655 H   0  0  0  0  0  0
    2.8335   56.1034   15.9512 H   0  0  0  0  0  0
    3.0800   54.4267   16.4020 H   0  0  0  0  0  0
    2.0133   55.4480   17.3513 H   0  0  0  0  0  0
    4.2627   51.3420   20.1672 H   0  0  0  0  0  0
    3.0289   49.3924   21.0088 H   0  0  0  0  0  0
    0.5965   51.9729   23.4355 H   0  0  0  0  0  0
    1.7679   53.9166   22.5462 H   0  0  0  0  0  0
   -0.0361   48.4124   24.1316 H   0  0  0  0  0  0
    0.7511   49.8682   24.7294 H   0  0  0  0  0  0
   -0.6405   49.9879   23.6271 H   0  0  0  0  0  0
  1  2  1  0  0  0
  1 32  1  0  0  0
  1 33  1  0  0  0
  1 34  1  0  0  0
  2  7  2  0  0  0
  2  3  1  0  0  0
  3  4  2  0  0  0
  3 35  1  0  0  0
  4  5  1  0  0  0
  4  9  1  0  0  0
  5  6  2  0  0  0
  5 36  1  0  0  0
  6  7  1  0  0  0
  6 37  1  0  0  0
  7  8  1  0  0  0
  9 10  1  0  0  0
  9 38  1  0  0  0
 10 11  2  0  0  0
 10 12  1  0  0  0
 12 13  1  0  0  0
 12 22  1  0  0  0
 12 14  1  0  0  0
 14 15  1  0  0  0
 14 16  1  0  0  0
 14 24  1  0  0  0
 16 17  1  0  0  0
 16 39  1  0  0  0
 17 21  1  0  0  0
 17 18  1  0  0  0
 18 19  2  0  0  0
 18 23  1  0  0  0
 19 20  1  0  0  0
 20 21  2  0  0  0
 21 22  1  0  0  0
 23 40  1  0  0  0
 23 41  1  0  0  0
 23 42  1  0  0  0
 24 29  2  0  0  0
 24 25  1  0  0  0
 25 26  2  0  0  0
 25 43  1  0  0  0
 26 27  1  0  0  0
 26 44  1  0  0  0
 27 28  2  0  0  0
 27 30  1  0  0  0
 28 29  1  0  0  0
 28 45  1  0  0  0
 29 46  1  0  0  0
 30 31  1  0  0  0
 31 47  1  0  0  0
 31 48  1  0  0  0
 31 49  1  0  0  0
M  END
> <i_i_glide_confnum>
16

> <i_i_glide_lignum>
2033

> <i_i_glide_posenum>
219

> <i_i_glide_rotatable_bonds>
5

> <i_m_Source_File_Index>
3317

> <b_m_subgroup_collapsed>
0

> <r_i_docking_score>
-5.87768

> <r_i_glide_ecoul>
-2.99568

> <r_i_glide_eff_state_penalty>
0

> <r_i_glide_einternal>
3.61065

> <r_i_glide_emodel>
-60.9839

> <r_i_glide_energy>
-46.7403

> <r_i_glide_erotb>
0.359674

> <r_i_glide_esite>
-0.0175684

> <r_i_glide_evdw>
-43.7446

> <r_i_glide_gscore>
-5.87768

> <r_i_glide_hbond>
-0.0811704

> <r_i_glide_ligand_efficiency>
-0.202678

> <r_i_glide_ligand_efficiency_ln>
-1.34584

> <r_i_glide_ligand_efficiency_sa>
-0.622693

> <r_i_glide_lipo>
-2.5451

> <r_i_glide_metal>
0

> <r_i_glide_rewards>
-0.956926

> <s_i_glide_gridfile>
wee1_glide-grid

> <s_m_Source_File>
wee1_decoys_glide_SP.sdf

> <s_m_Source_Path>
/Users/zhangxujun/Desktop

> <s_m_entry_id>
3592

> <s_m_entry_name>
wee1_decoys_glide_SP.3317

> <s_m_subgroup_title>
wee1_decoys_glide_SP

> <s_m_subgroupid>
wee1_decoys_glide_SP


$$$$
