ZINC65349076_1717
                    3D
 Schrodinger Suite 2024-2.
 40 42  0  0  1  0            999 V2000
    6.5366   54.5171   24.8546 C   0  0  0  0  0  0
    5.4267   54.2964   25.6606 C   0  0  0  0  0  0
    4.1585   54.0790   25.1022 C   0  0  0  0  0  0
    4.0459   54.0971   23.7021 C   0  0  0  0  0  0
    5.1680   54.2553   22.8683 C   0  0  0  0  0  0
    6.4099   54.4963   23.4714 C   0  0  0  0  0  0
    5.0792   54.2516   21.3536 C   0  0  0  0  0  0
    5.8393   54.9971   20.7283 O   0  0  0  0  0  0
    4.1990   53.4330   20.7140 N   0  0  0  0  0  0
    4.1405   53.3962   19.2448 C   0  0  0  0  0  0
    3.0252   52.3953   18.9552 C   0  0  0  0  0  0
    3.0895   51.4467   20.1338 C   0  0  0  0  0  0
    3.3892   52.3626   21.3177 C   0  0  0  0  0  0
    2.9917   53.7360   25.9738 C   0  0  0  0  0  0
    2.9287   54.1755   27.3049 C   0  0  0  0  0  0
    1.9154   53.7462   28.1764 C   0  0  0  0  0  0
    0.9356   52.8672   27.6718 C   0  0  0  0  0  0
    0.9960   52.4968   26.3804 N   0  3  0  0  0  0
    1.9587   52.8979   25.5282 C   0  0  0  0  0  0
   -0.0987   52.3162   28.4616 N   0  0  0  0  0  0
    1.9463   54.1969   29.6034 C   0  0  0  0  0  0
    3.0682   54.4854   30.0817 O   0  0  0  0  0  0
    0.8671   54.2421   30.2353 O   0  5  0  0  0  0
    7.5047   54.6779   25.2987 H   0  0  0  0  0  0
    5.5767   54.2669   26.7285 H   0  0  0  0  0  0
    3.0654   53.9906   23.2662 H   0  0  0  0  0  0
    7.2967   54.6557   22.8716 H   0  0  0  0  0  0
    5.0842   53.0127   18.8479 H   0  0  0  0  0  0
    3.9253   54.3763   18.8159 H   0  0  0  0  0  0
    3.1565   51.8976   17.9942 H   0  0  0  0  0  0
    2.0615   52.9070   18.9356 H   0  0  0  0  0  0
    2.1803   50.8614   20.2724 H   0  0  0  0  0  0
    3.9053   50.7381   19.9959 H   0  0  0  0  0  0
    2.4333   52.7603   21.6614 H   0  0  0  0  0  0
    3.9248   51.7958   22.0816 H   0  0  0  0  0  0
    3.6950   54.8400   27.6821 H   0  0  0  0  0  0
    1.9046   52.4720   24.5363 H   0  0  0  0  0  0
   -0.1704   52.6339   29.4259 H   0  0  0  0  0  0
   -0.6968   51.5732   28.1261 H   0  0  0  0  0  0
    0.2863   51.8593   26.0434 H   0  0  0  0  0  0
  1  6  2  0  0  0
  1  2  1  0  0  0
  1 24  1  0  0  0
  2  3  2  0  0  0
  2 25  1  0  0  0
  3  4  1  0  0  0
  3 14  1  0  0  0
  4  5  2  0  0  0
  4 26  1  0  0  0
  5  6  1  0  0  0
  5  7  1  0  0  0
  6 27  1  0  0  0
  7  8  2  0  0  0
  7  9  1  0  0  0
  9 13  1  0  0  0
  9 10  1  0  0  0
 10 11  1  0  0  0
 10 28  1  0  0  0
 10 29  1  0  0  0
 11 12  1  0  0  0
 11 30  1  0  0  0
 11 31  1  0  0  0
 12 13  1  0  0  0
 12 32  1  0  0  0
 12 33  1  0  0  0
 13 34  1  0  0  0
 13 35  1  0  0  0
 14 19  2  0  0  0
 14 15  1  0  0  0
 15 16  2  0  0  0
 15 36  1  0  0  0
 16 17  1  0  0  0
 16 21  1  0  0  0
 17 18  2  0  0  0
 17 20  1  0  0  0
 18 19  1  0  0  0
 18 40  1  0  0  0
 19 37  1  0  0  0
 20 38  1  0  0  0
 20 39  1  0  0  0
 21 22  2  0  0  0
 21 23  1  0  0  0
M  CHG  2  18   1  23  -1
M  END
> <i_i_glide_confnum>
1

> <i_i_glide_lignum>
1718

> <i_i_glide_posenum>
279

> <i_i_glide_rotatable_bonds>
4

> <i_m_Source_File_Index>
703

> <b_m_subgroup_collapsed>
0

> <r_i_docking_score>
-5.96472

> <r_i_glide_ecoul>
-3.8703

> <r_i_glide_eff_state_penalty>
0

> <r_i_glide_einternal>
0.982618

> <r_i_glide_emodel>
-52.2685

> <r_i_glide_energy>
-35.6449

> <r_i_glide_erotb>
0.573936

> <r_i_glide_esite>
0

> <r_i_glide_evdw>
-31.7746

> <r_i_glide_gscore>
-5.96472

> <r_i_glide_hbond>
-0.16

> <r_i_glide_ligand_efficiency>
-0.259336

> <r_i_glide_ligand_efficiency_ln>
-1.44232

> <r_i_glide_ligand_efficiency_sa>
-0.737516

> <r_i_glide_lipo>
-2.45971

> <r_i_glide_metal>
0

> <r_i_glide_rewards>
-1.74967

> <s_i_glide_gridfile>
wee1_glide-grid

> <s_m_Source_File>
wee1_decoys_glide_SP.sdf

> <s_m_Source_Path>
/Users/zhangxujun/Desktop

> <s_m_entry_id>
978

> <s_m_entry_name>
wee1_decoys_glide_SP.703

> <s_m_subgroup_title>
wee1_decoys_glide_SP

> <s_m_subgroupid>
wee1_decoys_glide_SP


$$$$
