ZINC36027399_4863
                    3D
 Schrodinger Suite 2024-2.
 66 69  0  0  1  0            999 V2000
    0.0770   51.5205   21.1919 C   0  0  0  0  0  0
   -0.5644   51.8593   22.5473 C   0  0  0  0  0  0
    0.3756   51.6500   23.7598 C   0  0  2  0  0  0
    1.3577   52.0008   23.4359 H   0  0  0  0  0  0
    0.5203   50.1525   24.1056 C   0  0  0  0  0  0
    0.0209   52.5553   24.9774 C   0  0  0  0  0  0
   -0.9546   52.0508   25.9626 N   0  0  0  0  0  0
   -2.2638   51.8952   25.6611 C   0  0  0  0  0  0
   -2.8311   52.1799   24.6080 O   0  0  0  0  0  0
   -2.9725   51.2284   26.8529 C   0  0  1  0  0  0
   -3.0434   50.1564   26.6560 H   0  0  0  0  0  0
   -1.9437   51.2728   27.9278 N   0  3  0  0  0  0
   -0.6706   51.9242   27.3991 C   0  0  0  0  0  0
    0.4608   50.9383   27.7718 C   0  0  0  0  0  0
    1.8698   51.5307   27.8840 C   0  0  0  0  0  0
    1.8674   52.7778   28.6643 N   0  0  0  0  0  0
    0.9477   53.8320   28.1782 C   0  0  0  0  0  0
   -0.4955   53.2931   28.1272 C   0  0  0  0  0  0
    3.4446   53.2803   29.2961 S   0  0  0  0  0  0
    3.2289   54.4969   30.0816 O   0  0  0  0  0  0
    4.0731   52.1012   29.9042 O   0  0  0  0  0  0
    4.5060   53.7666   27.9289 C   0  0  0  0  0  0
    5.8306   54.0980   28.2232 C   0  0  0  0  0  0
    6.7044   54.4840   27.2093 C   0  0  0  0  0  0
    6.2640   54.5430   25.8874 C   0  0  0  0  0  0
    4.9403   54.2234   25.5863 C   0  0  0  0  0  0
    4.0639   53.8415   26.6025 C   0  0  0  0  0  0
    4.3834   54.2827   23.9540 Cl  0  0  0  0  0  0
   -4.3460   51.8107   27.2471 C   0  0  0  0  0  0
   -5.5094   51.4065   26.3618 C   0  0  0  0  0  0
   -6.0822   50.1237   26.4943 C   0  0  0  0  0  0
   -7.1048   49.7284   25.6420 C   0  0  0  0  0  0
   -7.5503   50.5830   24.6423 C   0  0  0  0  0  0
   -6.9699   51.8348   24.4787 C   0  0  0  0  0  0
   -5.9431   52.2482   25.3164 C   0  0  0  0  0  0
   -0.6338   51.6655   20.3781 H   0  0  0  0  0  0
    0.9364   52.1610   20.9911 H   0  0  0  0  0  0
    0.4138   50.4851   21.1497 H   0  0  0  0  0  0
   -1.4673   51.2599   22.6646 H   0  0  0  0  0  0
   -0.9040   52.8936   22.5152 H   0  0  0  0  0  0
   -0.4498   49.6841   24.2775 H   0  0  0  0  0  0
    1.0221   49.6027   23.3071 H   0  0  0  0  0  0
    1.1062   50.0030   25.0068 H   0  0  0  0  0  0
   -0.2919   53.5396   24.6271 H   0  0  0  0  0  0
    0.9462   52.7371   25.5144 H   0  0  0  0  0  0
   -2.2643   51.7353   28.7640 H   0  0  0  0  0  0
    0.2501   50.5151   28.7547 H   0  0  0  0  0  0
    0.4503   50.0920   27.0953 H   0  0  0  0  0  0
    2.5301   50.8130   28.3631 H   0  0  0  0  0  0
    2.1915   51.7542   26.8759 H   0  0  0  0  0  0
    1.0062   54.7081   28.8273 H   0  0  0  0  0  0
    1.2027   54.0990   27.1555 H   0  0  0  0  0  0
   -1.1427   54.0446   27.6816 H   0  0  0  0  0  0
   -0.8258   53.2028   29.1651 H   0  0  0  0  0  0
    6.1882   54.0721   29.2426 H   0  0  0  0  0  0
    7.7226   54.7331   27.4642 H   0  0  0  0  0  0
    6.9430   54.8323   25.0978 H   0  0  0  0  0  0
    3.0536   53.6026   26.3277 H   0  0  0  0  0  0
   -4.2985   52.8969   27.2802 H   0  0  0  0  0  0
   -4.5978   51.4863   28.2579 H   0  0  0  0  0  0
   -5.7323   49.4472   27.2609 H   0  0  0  0  0  0
   -7.5507   48.7505   25.7537 H   0  0  0  0  0  0
   -8.3434   50.2678   23.9800 H   0  0  0  0  0  0
   -7.3081   52.4827   23.6823 H   0  0  0  0  0  0
   -5.4846   53.2146   25.1640 H   0  0  0  0  0  0
   -1.7186   50.3183   28.2077 H   0  0  0  0  0  0
  1  2  1  0  0  0
  1 36  1  0  0  0
  1 37  1  0  0  0
  1 38  1  0  0  0
  2  3  1  0  0  0
  2 39  1  0  0  0
  2 40  1  0  0  0
  3  4  1  0  0  0
  3  5  1  0  0  0
  3  6  1  0  0  0
  5 41  1  0  0  0
  5 42  1  0  0  0
  5 43  1  0  0  0
  6  7  1  0  0  0
  6 44  1  0  0  0
  6 45  1  0  0  0
  7 13  1  0  0  0
  7  8  1  0  0  0
  8  9  2  0  0  0
  8 10  1  0  0  0
 10 11  1  0  0  0
 10 12  1  0  0  0
 10 29  1  0  0  0
 12 13  1  0  0  0
 12 46  1  0  0  0
 12 66  1  0  0  0
 13 18  1  0  0  0
 13 14  1  0  0  0
 14 15  1  0  0  0
 14 47  1  0  0  0
 14 48  1  0  0  0
 15 16  1  0  0  0
 15 49  1  0  0  0
 15 50  1  0  0  0
 16 17  1  0  0  0
 16 19  1  0  0  0
 17 18  1  0  0  0
 17 51  1  0  0  0
 17 52  1  0  0  0
 18 53  1  0  0  0
 18 54  1  0  0  0
 19 20  2  0  0  0
 19 21  2  0  0  0
 19 22  1  0  0  0
 22 27  2  0  0  0
 22 23  1  0  0  0
 23 24  2  0  0  0
 23 55  1  0  0  0
 24 25  1  0  0  0
 24 56  1  0  0  0
 25 26  2  0  0  0
 25 57  1  0  0  0
 26 27  1  0  0  0
 26 28  1  0  0  0
 27 58  1  0  0  0
 29 30  1  0  0  0
 29 59  1  0  0  0
 29 60  1  0  0  0
 30 35  2  0  0  0
 30 31  1  0  0  0
 31 32  2  0  0  0
 31 61  1  0  0  0
 32 33  1  0  0  0
 32 62  1  0  0  0
 33 34  2  0  0  0
 33 63  1  0  0  0
 34 35  1  0  0  0
 34 64  1  0  0  0
 35 65  1  0  0  0
M  CHG  1  12   1
M  END
> <i_i_glide_confnum>
46

> <i_i_glide_lignum>
4864

> <i_i_glide_posenum>
213

> <i_i_glide_rotatable_bonds>
7

> <i_m_Source_File_Index>
5934

> <b_m_subgroup_collapsed>
0

> <r_i_docking_score>
-3.19691

> <r_i_glide_ecoul>
-5.80089

> <r_i_glide_eff_state_penalty>
0

> <r_i_glide_einternal>
13.718

> <r_i_glide_emodel>
-33.8681

> <r_i_glide_energy>
-40.5688

> <r_i_glide_erotb>
0.506455

> <r_i_glide_esite>
-0.221088

> <r_i_glide_evdw>
-34.7679

> <r_i_glide_gscore>
-3.19691

> <r_i_glide_hbond>
-0.2

> <r_i_glide_ligand_efficiency>
-0.096876

> <r_i_glide_ligand_efficiency_ln>
-0.710976

> <r_i_glide_ligand_efficiency_sa>
-0.310733

> <r_i_glide_lipo>
-2.40051

> <r_i_glide_metal>
0

> <r_i_glide_rewards>
1.72677

> <s_i_glide_gridfile>
wee1_glide-grid

> <s_m_Source_File>
wee1_decoys_glide_SP.sdf

> <s_m_Source_Path>
/Users/zhangxujun/Desktop

> <s_m_entry_id>
6209

> <s_m_entry_name>
wee1_decoys_glide_SP.5934

> <s_m_subgroup_title>
wee1_decoys_glide_SP

> <s_m_subgroupid>
wee1_decoys_glide_SP


$$$$
