@<TRIPOS>MOLECULE
ZINC19979766_1883
29   30    1
SMALL
USER_CHARGES


@<TRIPOS>ATOM
      1 C1          2.7669   53.3193   22.8233 C.ar      1 UNK         0.0000 
      2 C2          3.7600   53.8216   21.9881 C.ar      1 UNK         0.0000 
      3 C3          4.3024   53.0118   20.9951 C.ar      1 UNK         0.0000 
      4 C4          3.8715   51.6967   20.8446 C.ar      1 UNK         0.0000 
      5 C5          2.8709   51.1981   21.6753 C.ar      1 UNK         0.0000 
      6 C6          2.3043   52.0065   22.6640 C.ar      1 UNK         0.0000 
      7 N7          1.2974   51.4314   23.4564 N.pl3     1 UNK         0.0000 
      8 S8          0.1069   52.3131   24.4349 S.o2      1 UNK         0.0000 
      9 O9         -1.1095   51.4943   24.4004 O.2       1 UNK         0.0000 
     10 O10         0.0608   53.6967   23.9612 O.2       1 UNK         0.0000 
     11 C11         0.7609   52.3449   26.1196 C.ar      1 UNK         0.0000 
     12 C12         1.7413   53.2962   26.4303 C.ar      1 UNK         0.0000 
     13 C13         2.2774   53.3733   27.7149 C.ar      1 UNK         0.0000 
     14 C14         1.8330   52.5043   28.7065 C.ar      1 UNK         0.0000 
     15 C15         0.8535   51.5603   28.4125 C.ar      1 UNK         0.0000 
     16 C16         0.3218   51.4677   27.1262 C.ar      1 UNK         0.0000 
     17 N17        -0.6428   50.4968   26.8817 N.pl3     1 UNK         0.0000 
     18 F18         2.3520   52.5769   29.9536 F         1 UNK         0.0000 
     19 Cl19        5.5043   53.6500   19.9365 Cl        1 UNK         0.0000 
     20 H20         2.3706   53.9783   23.5736 H         1 UNK         0.0000 
     21 H21         4.0961   54.8419   22.1004 H         1 UNK         0.0000 
     22 H22         4.3015   51.0701   20.0772 H         1 UNK         0.0000 
     23 H23         2.5376   50.1790   21.5397 H         1 UNK         0.0000 
     24 H24         1.1004   50.4527   23.3149 H         1 UNK         0.0000 
     25 H25         2.0887   53.9925   25.6846 H         1 UNK         0.0000 
     26 H26         3.0345   54.1085   27.9440 H         1 UNK         0.0000 
     27 H27         0.5073   50.8972   29.1912 H         1 UNK         0.0000 
     28 H28        -1.0701   50.4730   25.9629 H         1 UNK         0.0000 
     29 H29        -0.8955   49.7969   27.5839 H         1 UNK         0.0000 
@<TRIPOS>BOND
     1    1    6 ar   
     2    1    2 ar   
     3    1   20 1    
     4    2    3 ar   
     5    2   21 1    
     6    3    4 ar   
     7    3   19 1    
     8    4    5 ar   
     9    4   22 1    
    10    5    6 ar   
    11    5   23 1    
    12    6    7 1    
    13    7    8 1    
    14    7   24 1    
    15    8    9 2    
    16    8   10 2    
    17    8   11 1    
    18   11   16 ar   
    19   11   12 ar   
    20   12   13 ar   
    21   12   25 1    
    22   13   14 ar   
    23   13   26 1    
    24   14   15 ar   
    25   14   18 1    
    26   15   16 ar   
    27   15   27 1    
    28   16   17 1    
    29   17   28 1    
    30   17   29 1    
@<TRIPOS>SUBSTRUCTURE
     1 UNK         1 GROUP             0       ****    0 ROOT    
