ZINC32072164_48
                    3D
 Schrodinger Suite 2024-2.
 49 52  0  0  1  0            999 V2000
    6.6190   54.4951   26.8827 C   0  0  0  0  0  0
    5.2026   54.2100   26.4333 C   0  0  0  0  0  0
    4.6502   54.1552   25.1223 C   0  0  0  0  0  0
    3.3753   53.8262   25.1703 N   0  0  0  0  0  0
    3.0767   53.5592   26.4429 N   0  0  0  0  0  0
    4.1536   53.8011   27.2495 C   0  0  0  0  0  0
    4.0469   53.5685   28.6064 N   0  0  0  0  0  0
    3.0545   52.8962   29.2253 C   0  0  0  0  0  0
    3.0659   52.7101   30.4392 O   0  0  0  0  0  0
    1.9642   52.3258   28.2737 C   0  0  0  0  0  0
    1.7497   53.1581   26.9488 C   0  0  2  0  0  0
    1.2069   54.0672   27.2119 H   0  0  0  0  0  0
    0.8418   52.4645   25.8856 C   0  0  0  0  0  0
    0.5859   53.0759   24.8483 O   0  0  0  0  0  0
    0.4138   51.2044   26.1272 N   0  0  0  0  0  0
   -0.2730   50.3131   25.2785 C   0  0  0  0  0  0
   -0.2785   48.9797   25.6817 C   0  0  0  0  0  0
   -0.9237   48.0113   24.9206 C   0  0  0  0  0  0
   -1.5807   48.3560   23.7349 C   0  0  0  0  0  0
   -1.5736   49.6978   23.3258 C   0  0  0  0  0  0
   -0.9296   50.6696   24.0907 C   0  0  0  0  0  0
   -2.2806   47.2862   22.9509 C   0  0  0  0  0  0
   -2.3295   46.1024   23.2942 O   0  0  0  0  0  0
   -2.9732   47.6849   21.6483 C   0  0  0  0  0  0
    5.2698   54.4171   23.7669 C   0  0  0  0  0  0
    4.5556   54.0946   22.5972 C   0  0  0  0  0  0
    5.0662   54.3911   21.3368 C   0  0  0  0  0  0
    6.3036   55.0140   21.2276 C   0  0  0  0  0  0
    7.0410   55.3100   22.3672 C   0  0  0  0  0  0
    6.5309   55.0109   23.6288 C   0  0  0  0  0  0
    6.9305   55.4280   19.6751 Cl  0  0  0  0  0  0
    7.3413   53.9879   26.2467 H   0  0  0  0  0  0
    6.8485   55.5589   26.8449 H   0  0  0  0  0  0
    6.8175   54.1389   27.8941 H   0  0  0  0  0  0
    4.7639   53.9032   29.2318 H   0  0  0  0  0  0
    2.2714   51.3015   28.0594 H   0  0  0  0  0  0
    1.0428   52.3064   28.8582 H   0  0  0  0  0  0
    0.6914   50.7925   27.0039 H   0  0  0  0  0  0
    0.2098   48.6704   26.5951 H   0  0  0  0  0  0
   -0.9075   46.9916   25.2809 H   0  0  0  0  0  0
   -2.0692   50.0146   22.4195 H   0  0  0  0  0  0
   -0.9655   51.6887   23.7419 H   0  0  0  0  0  0
   -2.2494   48.1099   20.9535 H   0  0  0  0  0  0
   -3.4462   46.8230   21.1780 H   0  0  0  0  0  0
   -3.7364   48.4380   21.8444 H   0  0  0  0  0  0
    3.5820   53.6290   22.6513 H   0  0  0  0  0  0
    4.4937   54.1540   20.4513 H   0  0  0  0  0  0
    7.9980   55.7990   22.2719 H   0  0  0  0  0  0
    7.1179   55.2960   24.4839 H   0  0  0  0  0  0
  1  2  1  0  0  0
  1 32  1  0  0  0
  1 33  1  0  0  0
  1 34  1  0  0  0
  2  6  2  0  0  0
  2  3  1  0  0  0
  3  4  2  0  0  0
  3 25  1  0  0  0
  4  5  1  0  0  0
  5 11  1  0  0  0
  5  6  1  0  0  0
  6  7  1  0  0  0
  7  8  1  0  0  0
  7 35  1  0  0  0
  8  9  2  0  0  0
  8 10  1  0  0  0
 10 11  1  0  0  0
 10 36  1  0  0  0
 10 37  1  0  0  0
 11 12  1  0  0  0
 11 13  1  0  0  0
 13 14  2  0  0  0
 13 15  1  0  0  0
 15 16  1  0  0  0
 15 38  1  0  0  0
 16 21  2  0  0  0
 16 17  1  0  0  0
 17 18  2  0  0  0
 17 39  1  0  0  0
 18 19  1  0  0  0
 18 40  1  0  0  0
 19 20  2  0  0  0
 19 22  1  0  0  0
 20 21  1  0  0  0
 20 41  1  0  0  0
 21 42  1  0  0  0
 22 23  2  0  0  0
 22 24  1  0  0  0
 24 43  1  0  0  0
 24 44  1  0  0  0
 24 45  1  0  0  0
 25 30  2  0  0  0
 25 26  1  0  0  0
 26 27  2  0  0  0
 26 46  1  0  0  0
 27 28  1  0  0  0
 27 47  1  0  0  0
 28 29  2  0  0  0
 28 31  1  0  0  0
 29 30  1  0  0  0
 29 48  1  0  0  0
 30 49  1  0  0  0
M  END
> <i_i_glide_confnum>
70

> <i_i_glide_lignum>
49

> <i_i_glide_posenum>
67

> <i_i_glide_rotatable_bonds>
5

> <i_m_Source_File_Index>
2223

> <b_m_subgroup_collapsed>
0

> <r_i_docking_score>
-6.46087

> <r_i_glide_ecoul>
-4.55807

> <r_i_glide_eff_state_penalty>
0

> <r_i_glide_einternal>
6.01987

> <r_i_glide_emodel>
-65.66

> <r_i_glide_energy>
-49.0226

> <r_i_glide_erotb>
0.443238

> <r_i_glide_esite>
-0.020202

> <r_i_glide_evdw>
-44.4646

> <r_i_glide_gscore>
-6.46087

> <r_i_glide_hbond>
-0.154843

> <r_i_glide_ligand_efficiency>
-0.215362

> <r_i_glide_ligand_efficiency_ln>
-1.46798

> <r_i_glide_ligand_efficiency_sa>
-0.66918

> <r_i_glide_lipo>
-2.61419

> <r_i_glide_metal>
0

> <r_i_glide_rewards>
-1.20793

> <s_i_glide_gridfile>
wee1_glide-grid

> <s_m_Source_File>
wee1_decoys_glide_SP.sdf

> <s_m_Source_Path>
/Users/zhangxujun/Desktop

> <s_m_entry_id>
2498

> <s_m_entry_name>
wee1_decoys_glide_SP.2223

> <s_m_subgroup_title>
wee1_decoys_glide_SP

> <s_m_subgroupid>
wee1_decoys_glide_SP


$$$$
