ZINC63480170_3090
                    3D
 Schrodinger Suite 2024-2.
 66 70  0  0  1  0            999 V2000
   -4.6791   48.7022   28.7109 C   0  0  0  0  0  0
   -4.9167   49.6985   27.5579 C   0  0  0  0  0  0
   -5.8730   50.8427   27.9467 C   0  0  0  0  0  0
   -3.6721   50.1678   26.9441 N   0  0  0  0  0  0
   -2.7095   50.8967   27.5387 C   0  0  0  0  0  0
   -2.7966   51.2968   28.6957 O   0  0  0  0  0  0
   -1.4102   51.1714   26.7299 C   0  0  2  0  0  0
   -0.7093   50.3884   27.0251 H   0  0  0  0  0  0
   -0.7662   52.5546   27.0377 C   0  0  0  0  0  0
    0.2267   52.5698   28.1977 C   0  0  0  0  0  0
    1.5372   52.8831   28.2119 C   0  0  0  0  0  0
    2.4361   53.2947   27.1214 C   0  0  0  0  0  0
    3.7358   53.5599   27.3614 C   0  0  0  0  0  0
    4.2247   53.4135   28.7251 C   0  0  0  0  0  0
    3.4069   53.0457   29.7470 C   0  0  0  0  0  0
    2.0469   52.7972   29.5131 C   0  0  0  0  0  0
    1.0947   52.4789   30.3578 N   0  3  0  0  0  0
   -0.1718   52.2944   29.6334 C   0  0  0  0  0  0
   -1.5748   50.9915   25.2768 N   0  0  0  0  0  0
   -2.3655   51.7297   24.4706 C   0  0  0  0  0  0
   -3.1030   52.6211   24.8908 O   0  0  0  0  0  0
   -2.3278   51.4509   22.9466 C   0  0  2  0  0  0
   -2.9224   52.2406   22.4863 H   0  0  0  0  0  0
   -2.9740   50.0470   22.5484 C   0  0  0  0  0  0
   -1.6597   49.1255   21.6809 S   0  0  0  0  0  0
   -0.9440   50.6489   21.0809 C   0  0  1  0  0  0
   -1.5294   51.0141   20.2357 H   0  0  0  0  0  0
   -1.0218   51.5026   22.2442 N   0  0  0  0  0  0
    0.1451   52.0958   22.6110 C   0  0  0  0  0  0
    0.3365   52.8870   23.5353 O   0  0  0  0  0  0
    1.1461   51.5414   21.6447 C   0  0  0  0  0  0
    0.5218   50.6480   20.7873 C   0  0  0  0  0  0
    1.2577   49.9892   19.8020 C   0  0  0  0  0  0
    2.6244   50.2451   19.6820 C   0  0  0  0  0  0
    3.2508   51.1498   20.5448 C   0  0  0  0  0  0
    2.5142   51.8004   21.5391 C   0  0  0  0  0  0
   -3.4877   49.1025   23.6677 C   0  0  0  0  0  0
   -4.1329   50.2702   21.5502 C   0  0  0  0  0  0
   -5.6237   48.3711   29.1421 H   0  0  0  0  0  0
   -4.1502   47.8124   28.3671 H   0  0  0  0  0  0
   -4.1063   49.1470   29.5260 H   0  0  0  0  0  0
   -5.4217   49.1363   26.7702 H   0  0  0  0  0  0
   -6.7864   50.4477   28.3913 H   0  0  0  0  0  0
   -5.4334   51.5060   28.6916 H   0  0  0  0  0  0
   -6.1673   51.4298   27.0766 H   0  0  0  0  0  0
   -3.4881   49.8479   26.0070 H   0  0  0  0  0  0
   -1.5351   53.3020   27.2075 H   0  0  0  0  0  0
   -0.2225   52.8967   26.1578 H   0  0  0  0  0  0
    2.0827   53.3923   26.1039 H   0  0  0  0  0  0
    4.4012   53.8552   26.5623 H   0  0  0  0  0  0
    5.2734   53.5885   28.9225 H   0  0  0  0  0  0
    3.8333   52.9341   30.7336 H   0  0  0  0  0  0
   -0.5248   51.2801   29.8095 H   0  0  0  0  0  0
   -0.8955   52.9993   30.0357 H   0  0  0  0  0  0
   -0.9915   50.2789   24.8616 H   0  0  0  0  0  0
    0.7834   49.3046   19.1146 H   0  0  0  0  0  0
    3.1931   49.7532   18.9045 H   0  0  0  0  0  0
    4.3056   51.3496   20.4273 H   0  0  0  0  0  0
    3.0055   52.5014   22.1990 H   0  0  0  0  0  0
   -4.2810   49.5713   24.2507 H   0  0  0  0  0  0
   -3.9084   48.1861   23.2511 H   0  0  0  0  0  0
   -2.6968   48.7922   24.3506 H   0  0  0  0  0  0
   -4.9776   50.7599   22.0368 H   0  0  0  0  0  0
   -3.8389   50.8963   20.7073 H   0  0  0  0  0  0
   -4.5003   49.3287   21.1392 H   0  0  0  0  0  0
    1.1924   52.3620   31.3640 H   0  0  0  0  0  0
  1  2  1  0  0  0
  1 39  1  0  0  0
  1 40  1  0  0  0
  1 41  1  0  0  0
  2  3  1  0  0  0
  2  4  1  0  0  0
  2 42  1  0  0  0
  3 43  1  0  0  0
  3 44  1  0  0  0
  3 45  1  0  0  0
  4  5  1  0  0  0
  4 46  1  0  0  0
  5  6  2  0  0  0
  5  7  1  0  0  0
  7  8  1  0  0  0
  7  9  1  0  0  0
  7 19  1  0  0  0
  9 10  1  0  0  0
  9 47  1  0  0  0
  9 48  1  0  0  0
 10 18  1  0  0  0
 10 11  2  0  0  0
 11 16  1  0  0  0
 11 12  1  0  0  0
 12 13  2  0  0  0
 12 49  1  0  0  0
 13 14  1  0  0  0
 13 50  1  0  0  0
 14 15  2  0  0  0
 14 51  1  0  0  0
 15 16  1  0  0  0
 15 52  1  0  0  0
 16 17  2  0  0  0
 17 18  1  0  0  0
 17 66  1  0  0  0
 18 53  1  0  0  0
 18 54  1  0  0  0
 19 20  1  0  0  0
 19 55  1  0  0  0
 20 21  2  0  0  0
 20 22  1  0  0  0
 22 23  1  0  0  0
 22 28  1  0  0  0
 22 24  1  0  0  0
 24 25  1  0  0  0
 24 37  1  0  0  0
 24 38  1  0  0  0
 25 26  1  0  0  0
 26 27  1  0  0  0
 26 32  1  0  0  0
 26 28  1  0  0  0
 28 29  1  0  0  0
 29 30  2  0  0  0
 29 31  1  0  0  0
 31 36  2  0  0  0
 31 32  1  0  0  0
 32 33  2  0  0  0
 33 34  1  0  0  0
 33 56  1  0  0  0
 34 35  2  0  0  0
 34 57  1  0  0  0
 35 36  1  0  0  0
 35 58  1  0  0  0
 36 59  1  0  0  0
 37 60  1  0  0  0
 37 61  1  0  0  0
 37 62  1  0  0  0
 38 63  1  0  0  0
 38 64  1  0  0  0
 38 65  1  0  0  0
M  CHG  1  17   1
M  END
> <i_i_glide_confnum>
111

> <i_i_glide_lignum>
3091

> <i_i_glide_posenum>
112

> <i_i_glide_rotatable_bonds>
8

> <i_m_Source_File_Index>
5726

> <b_m_subgroup_collapsed>
0

> <r_i_docking_score>
-3.13415

> <r_i_glide_ecoul>
-1.3865

> <r_i_glide_eff_state_penalty>
0

> <r_i_glide_einternal>
3.09668

> <r_i_glide_emodel>
-43.4399

> <r_i_glide_energy>
-37.6251

> <r_i_glide_erotb>
0.5054

> <r_i_glide_esite>
-0.205322

> <r_i_glide_evdw>
-36.2386

> <r_i_glide_gscore>
-3.13415

> <r_i_glide_hbond>
0

> <r_i_glide_ligand_efficiency>
-0.0895473

> <r_i_glide_ligand_efficiency_ln>
-0.688017

> <r_i_glide_ligand_efficiency_sa>
-0.292915

> <r_i_glide_lipo>
-1.29337

> <r_i_glide_metal>
0

> <r_i_glide_rewards>
-0.120955

> <s_i_glide_gridfile>
wee1_glide-grid

> <s_m_Source_File>
wee1_decoys_glide_SP.sdf

> <s_m_Source_Path>
/Users/zhangxujun/Desktop

> <s_m_entry_id>
6001

> <s_m_entry_name>
wee1_decoys_glide_SP.5726

> <s_m_subgroup_title>
wee1_decoys_glide_SP

> <s_m_subgroupid>
wee1_decoys_glide_SP


$$$$
