ZINC46621178_3747
                    3D
 Schrodinger Suite 2024-2.
 47 50  0  0  1  0            999 V2000
    3.5187   52.6599   20.2357 C   0  0  0  0  0  0
    3.8515   53.2199   21.4664 C   0  0  0  0  0  0
    2.9470   53.1754   22.5282 C   0  0  0  0  0  0
    1.6980   52.5605   22.3417 C   0  0  0  0  0  0
    1.3658   52.0071   21.1130 C   0  0  0  0  0  0
    2.2682   52.0488   20.0471 C   0  0  0  0  0  0
    1.8935   51.3979   18.7373 C   0  0  0  0  0  0
    1.0619   50.4848   18.7145 O   0  0  0  0  0  0
    2.5265   51.8793   17.6428 N   0  0  0  0  0  0
    2.3207   51.2966   16.3856 N   0  0  0  0  0  0
    1.1649   51.4685   15.7014 C   0  0  0  0  0  0
    0.2567   52.2220   16.0652 O   0  0  0  0  0  0
    1.0585   50.7076   14.3951 C   0  0  0  0  0  0
    1.9335   49.6352   14.0843 C   0  0  0  0  0  0
    1.8282   48.9340   12.8751 C   0  0  0  0  0  0
    0.8396   49.3310   11.9845 C   0  0  0  0  0  0
   -0.0150   50.3559   12.2701 C   0  0  0  0  0  0
    0.0580   51.0618   13.4660 C   0  0  0  0  0  0
   -0.8966   50.5046   11.2463 O   0  0  0  0  0  0
   -0.4120   49.6898   10.2134 C   0  0  0  0  0  0
    0.5232   48.8050   10.7721 O   0  0  0  0  0  0
    3.3987   53.6968   23.7573 N   0  0  0  0  0  0
    2.7261   53.8126   24.9240 C   0  0  0  0  0  0
    1.5044   53.6960   25.0241 O   0  0  0  0  0  0
    3.5502   54.0842   26.1669 C   0  0  0  0  0  0
    4.9542   54.1872   26.1403 C   0  0  0  0  0  0
    5.6735   54.3899   27.3197 C   0  0  0  0  0  0
    5.0098   54.4965   28.5384 C   0  0  0  0  0  0
    3.6226   54.3924   28.5808 C   0  0  0  0  0  0
    2.9017   54.1904   27.4080 C   0  0  0  0  0  0
    2.7866   54.5012   30.0817 Cl  0  0  0  0  0  0
    7.3909   54.4967   27.2806 Cl  0  0  0  0  0  0
    4.2536   52.6855   19.4430 H   0  0  0  0  0  0
    4.8256   53.6708   21.5878 H   0  0  0  0  0  0
    0.9704   52.4670   23.1302 H   0  0  0  0  0  0
    0.4022   51.5289   21.0020 H   0  0  0  0  0  0
    2.9000   52.8143   17.5817 H   0  0  0  0  0  0
    2.9075   50.4728   16.2765 H   0  0  0  0  0  0
    2.7030   49.3200   14.7772 H   0  0  0  0  0  0
    2.4960   48.1154   12.6538 H   0  0  0  0  0  0
   -0.6374   51.8641   13.6706 H   0  0  0  0  0  0
    0.0874   50.3144    9.4705 H   0  0  0  0  0  0
   -1.2242   49.1437    9.7367 H   0  0  0  0  0  0
    4.3772   53.9317   23.7782 H   0  0  0  0  0  0
    5.5101   54.0934   25.2199 H   0  0  0  0  0  0
    5.5734   54.6659   29.4438 H   0  0  0  0  0  0
    1.8259   54.1051   27.4768 H   0  0  0  0  0  0
  1  6  2  0  0  0
  1  2  1  0  0  0
  1 33  1  0  0  0
  2  3  2  0  0  0
  2 34  1  0  0  0
  3  4  1  0  0  0
  3 22  1  0  0  0
  4  5  2  0  0  0
  4 35  1  0  0  0
  5  6  1  0  0  0
  5 36  1  0  0  0
  6  7  1  0  0  0
  7  8  2  0  0  0
  7  9  1  0  0  0
  9 10  1  0  0  0
  9 37  1  0  0  0
 10 11  1  0  0  0
 10 38  1  0  0  0
 11 12  2  0  0  0
 11 13  1  0  0  0
 13 18  2  0  0  0
 13 14  1  0  0  0
 14 15  2  0  0  0
 14 39  1  0  0  0
 15 16  1  0  0  0
 15 40  1  0  0  0
 16 21  1  0  0  0
 16 17  2  0  0  0
 17 18  1  0  0  0
 17 19  1  0  0  0
 18 41  1  0  0  0
 19 20  1  0  0  0
 20 21  1  0  0  0
 20 42  1  0  0  0
 20 43  1  0  0  0
 22 23  1  0  0  0
 22 44  1  0  0  0
 23 24  2  0  0  0
 23 25  1  0  0  0
 25 30  2  0  0  0
 25 26  1  0  0  0
 26 27  2  0  0  0
 26 45  1  0  0  0
 27 28  1  0  0  0
 27 32  1  0  0  0
 28 29  2  0  0  0
 28 46  1  0  0  0
 29 30  1  0  0  0
 29 31  1  0  0  0
 30 47  1  0  0  0
M  END
> <i_i_glide_confnum>
4

> <i_i_glide_lignum>
3748

> <i_i_glide_posenum>
298

> <i_i_glide_rotatable_bonds>
8

> <i_m_Source_File_Index>
5975

> <b_m_subgroup_collapsed>
0

> <r_i_docking_score>
-4.52505

> <r_i_glide_ecoul>
-5.84376

> <r_i_glide_eff_state_penalty>
0

> <r_i_glide_einternal>
4.37058

> <r_i_glide_emodel>
-51.4751

> <r_i_glide_energy>
-37.7085

> <r_i_glide_erotb>
0.634543

> <r_i_glide_esite>
-0.236283

> <r_i_glide_evdw>
-31.8647

> <r_i_glide_gscore>
-4.52505

> <r_i_glide_hbond>
-0.16

> <r_i_glide_ligand_efficiency>
-0.141408

> <r_i_glide_ligand_efficiency_ln>
-1.01328

> <r_i_glide_ligand_efficiency_sa>
-0.448942

> <r_i_glide_lipo>
-1.72556

> <r_i_glide_metal>
0

> <r_i_glide_rewards>
-0.567953

> <s_i_glide_gridfile>
wee1_glide-grid

> <s_m_Source_File>
wee1_decoys_glide_SP.sdf

> <s_m_Source_Path>
/Users/zhangxujun/Desktop

> <s_m_entry_id>
6250

> <s_m_entry_name>
wee1_decoys_glide_SP.5975

> <s_m_subgroup_title>
wee1_decoys_glide_SP

> <s_m_subgroupid>
wee1_decoys_glide_SP


$$$$
