ZINC53778479_1334
                    3D
 Schrodinger Suite 2024-2.
 55 58  0  0  1  0            999 V2000
    2.5891   53.5500   25.1038 C   0  0  0  0  0  0
    3.3590   53.7508   23.9584 C   0  0  0  0  0  0
    4.6563   54.2320   24.0807 C   0  0  0  0  0  0
    5.1623   54.5613   25.3475 C   0  0  0  0  0  0
    4.3996   54.3416   26.4880 C   0  0  0  0  0  0
    3.1047   53.8075   26.3955 C   0  0  0  0  0  0
    2.3060   53.5631   27.7069 C   0  0  0  0  0  0
    1.9359   54.9105   28.3952 C   0  0  0  0  0  0
    2.7827   54.9987   29.6675 C   0  0  0  0  0  0
    2.9604   53.5470   30.1009 C   0  0  0  0  0  0
    3.1217   52.7805   28.7864 C   0  0  0  0  0  0
    1.1171   52.7725   27.3441 N   0  0  0  0  0  0
    0.0854   52.3305   28.0901 C   0  0  0  0  0  0
   -0.0870   52.6546   29.2613 O   0  0  0  0  0  0
   -0.9020   51.3434   27.4426 C   0  0  0  0  0  0
   -0.3733   50.7997   26.0788 N   0  3  2  0  0  0
   -1.0023   51.5812   24.8952 C   0  0  0  0  0  0
   -0.4161   51.0599   23.5654 C   0  0  0  0  0  0
   -0.5845   49.5339   23.4171 C   0  0  0  0  0  0
    0.0314   48.8023   24.6216 C   0  0  1  0  0  0
    1.0974   49.0408   24.6563 H   0  0  0  0  0  0
   -0.6136   49.2769   25.9412 C   0  0  0  0  0  0
   -0.1008   47.4073   24.4817 O   0  0  0  0  0  0
    6.4243   55.0882   25.5175 O   0  0  0  0  0  0
    6.8983   55.7322   24.3378 C   0  0  0  0  0  0
    6.7491   54.7892   23.1222 C   0  0  0  0  0  0
    5.3674   54.4653   22.9182 O   0  0  0  0  0  0
    1.5854   53.1913   24.9496 H   0  0  0  0  0  0
    2.9510   53.5443   22.9796 H   0  0  0  0  0  0
    4.8268   54.5949   27.4468 H   0  0  0  0  0  0
    2.1254   55.7729   27.7580 H   0  0  0  0  0  0
    0.8828   54.9596   28.6734 H   0  0  0  0  0  0
    3.7529   55.4438   29.4426 H   0  0  0  0  0  0
    2.3046   55.6138   30.4318 H   0  0  0  0  0  0
    3.8181   53.4024   30.7600 H   0  0  0  0  0  0
    2.0707   53.2098   30.6353 H   0  0  0  0  0  0
    2.8116   51.7398   28.8978 H   0  0  0  0  0  0
    4.1842   52.7387   28.5455 H   0  0  0  0  0  0
    1.0922   52.5488   26.3658 H   0  0  0  0  0  0
   -1.8987   51.7641   27.3067 H   0  0  0  0  0  0
   -0.9958   50.4968   28.1194 H   0  0  0  0  0  0
   -0.7596   52.6359   25.0347 H   0  0  0  0  0  0
   -2.0846   51.4457   24.9529 H   0  0  0  0  0  0
    0.6406   51.3236   23.4960 H   0  0  0  0  0  0
   -0.9032   51.5650   22.7299 H   0  0  0  0  0  0
   -0.1374   49.1794   22.4867 H   0  0  0  0  0  0
   -1.6488   49.2997   23.3551 H   0  0  0  0  0  0
   -1.6929   49.1168   26.0014 H   0  0  0  0  0  0
   -0.0954   48.8211   26.7885 H   0  0  0  0  0  0
    0.2002   47.0126   25.3176 H   0  0  0  0  0  0
    7.9044   56.0910   24.4815 H   0  0  0  0  0  0
    6.3044   56.6225   24.1605 H   0  0  0  0  0  0
    7.3113   53.8721   23.3086 H   0  0  0  0  0  0
    7.1575   55.2510   22.2231 H   0  0  0  0  0  0
    0.6312   50.9065   26.0759 H   0  0  0  0  0  0
  1  6  2  0  0  0
  1  2  1  0  0  0
  1 28  1  0  0  0
  2  3  2  0  0  0
  2 29  1  0  0  0
  3 27  1  0  0  0
  3  4  1  0  0  0
  4  5  2  0  0  0
  4 24  1  0  0  0
  5  6  1  0  0  0
  5 30  1  0  0  0
  6  7  1  0  0  0
  7 11  1  0  0  0
  7  8  1  0  0  0
  7 12  1  0  0  0
  8  9  1  0  0  0
  8 31  1  0  0  0
  8 32  1  0  0  0
  9 10  1  0  0  0
  9 33  1  0  0  0
  9 34  1  0  0  0
 10 11  1  0  0  0
 10 35  1  0  0  0
 10 36  1  0  0  0
 11 37  1  0  0  0
 11 38  1  0  0  0
 12 13  1  0  0  0
 12 39  1  0  0  0
 13 14  2  0  0  0
 13 15  1  0  0  0
 15 16  1  0  0  0
 15 40  1  0  0  0
 15 41  1  0  0  0
 16 22  1  0  0  0
 16 17  1  0  0  0
 16 55  1  0  0  0
 17 18  1  0  0  0
 17 42  1  0  0  0
 17 43  1  0  0  0
 18 19  1  0  0  0
 18 44  1  0  0  0
 18 45  1  0  0  0
 19 20  1  0  0  0
 19 46  1  0  0  0
 19 47  1  0  0  0
 20 21  1  0  0  0
 20 22  1  0  0  0
 20 23  1  0  0  0
 22 48  1  0  0  0
 22 49  1  0  0  0
 23 50  1  0  0  0
 24 25  1  0  0  0
 25 26  1  0  0  0
 25 51  1  0  0  0
 25 52  1  0  0  0
 26 27  1  0  0  0
 26 53  1  0  0  0
 26 54  1  0  0  0
M  CHG  1  16   1
M  END
> <i_i_glide_confnum>
534

> <i_i_glide_lignum>
1335

> <i_i_glide_posenum>
225

> <i_i_glide_rotatable_bonds>
6

> <i_m_Source_File_Index>
2149

> <b_m_subgroup_collapsed>
0

> <r_i_docking_score>
-6.09589

> <r_i_glide_ecoul>
-7.47761

> <r_i_glide_eff_state_penalty>
0

> <r_i_glide_einternal>
10.831

> <r_i_glide_emodel>
-52.0354

> <r_i_glide_energy>
-40.7606

> <r_i_glide_erotb>
0.734433

> <r_i_glide_esite>
-0.0413949

> <r_i_glide_evdw>
-33.283

> <r_i_glide_gscore>
-6.09589

> <r_i_glide_hbond>
-0.457073

> <r_i_glide_ligand_efficiency>
-0.234457

> <r_i_glide_ligand_efficiency_ln>
-1.4316

> <r_i_glide_ligand_efficiency_sa>
-0.694579

> <r_i_glide_lipo>
-2.40689

> <r_i_glide_metal>
0

> <r_i_glide_rewards>
-1.13918

> <s_i_glide_gridfile>
wee1_glide-grid

> <s_m_Source_File>
wee1_decoys_glide_SP.sdf

> <s_m_Source_Path>
/Users/zhangxujun/Desktop

> <s_m_entry_id>
2424

> <s_m_entry_name>
wee1_decoys_glide_SP.2149

> <s_m_subgroup_title>
wee1_decoys_glide_SP

> <s_m_subgroupid>
wee1_decoys_glide_SP


$$$$
