@<TRIPOS>MOLECULE
ZINC03840495_1264
70   73    1
SMALL
USER_CHARGES


@<TRIPOS>ATOM
      1 C1         -0.4126   52.8064   25.2421 C.3       1 UNK         0.0000 
      2 C2          0.6273   52.5183   26.3635 C.3       1 UNK         0.0000 
      3 H3          1.0396   51.5285   26.1601 H         1 UNK         0.0000 
      4 C4         -0.0420   52.3938   27.7258 C.2       1 UNK         0.0000 
      5 C5          0.4220   53.0394   28.8706 C.2       1 UNK         0.0000 
      6 S6         -0.4853   52.4960   30.2363 S.3       1 UNK         0.0000 
      7 C7         -1.4749   51.5813   29.1479 C.2       1 UNK         0.0000 
      8 N8         -1.1026   51.6292   27.8968 N.2       1 UNK         0.0000 
      9 N9         -2.5610   50.8967   29.6346 N.pl3     1 UNK         0.0000 
     10 C10        -3.6307   50.3253   28.8268 C.3       1 UNK         0.0000 
     11 C11        -4.6067   51.2967   28.2004 C.2       1 UNK         0.0000 
     12 C12        -5.9314   51.3003   28.4201 C.2       1 UNK         0.0000 
     13 C13         1.5432   54.0517   28.8961 C.3       1 UNK         0.0000 
     14 C14         2.5844   53.6352   27.8224 C.3       1 UNK         0.0000 
     15 C15         1.8528   53.5131   26.4267 C.3       1 UNK         0.0000 
     16 H16         1.4495   54.4967   26.2429 H         1 UNK         0.0000 
     17 C17         2.8956   53.2911   25.2966 C.3       1 UNK         0.0000 
     18 H18         3.5041   52.4967   25.6521 H         1 UNK         0.0000 
     19 C19         3.9438   54.4301   25.1518 C.3       1 UNK         0.0000 
     20 H20         3.3651   55.3357   25.0098 H         1 UNK         0.0000 
     21 C21         4.6486   54.5913   26.5331 C.3       1 UNK         0.0000 
     22 C22         3.6405   54.7681   27.6984 C.3       1 UNK         0.0000 
     23 C23         4.9364   54.2481   23.9323 C.3       1 UNK         0.0000 
     24 H24         5.2841   53.2186   23.9580 H         1 UNK         0.0000 
     25 C25         6.2232   55.1077   24.0281 C.3       1 UNK         0.0000 
     26 C26         4.2383   54.3941   22.5507 C.2       1 UNK         0.0000 
     27 O27         3.1045   54.8610   22.4820 O.2       1 UNK         0.0000 
     28 N28         4.8253   53.9325   21.4353 N.am      1 UNK         0.0000 
     29 C29         5.6588   54.8078   20.5950 C.3       1 UNK         0.0000 
     30 C30         5.0874   54.7614   19.1544 C.3       1 UNK         0.0000 
     31 C31         3.9889   52.5336   19.6610 C.3       1 UNK         0.0000 
     32 C32         4.6394   52.5247   21.0596 C.3       1 UNK         0.0000 
     33 C33         4.3257   53.2408   17.2592 C.3       1 UNK         0.0000 
     34 O34         2.3389   52.7916   24.0939 O.3       1 UNK         0.0000 
     35 C35         3.2652   52.3231   28.3001 C.3       1 UNK         0.0000 
     36 H36        -0.7422   51.8774   24.7793 H         1 UNK         0.0000 
     37 H37        -1.3116   53.2960   25.6195 H         1 UNK         0.0000 
     38 H38        -0.0273   53.4447   24.4493 H         1 UNK         0.0000 
     39 H39        -2.3561   50.2499   30.3931 H         1 UNK         0.0000 
     40 H40        -4.1826   49.6440   29.4748 H         1 UNK         0.0000 
     41 H41        -3.2338   49.6964   28.0320 H         1 UNK         0.0000 
     42 H42        -4.1756   52.0218   27.5255 H         1 UNK         0.0000 
     43 H43        -6.3938   50.5842   29.0855 H         1 UNK         0.0000 
     44 H44        -6.5750   52.0203   27.9360 H         1 UNK         0.0000 
     45 H45         1.1127   55.0298   28.6776 H         1 UNK         0.0000 
     46 H46         1.9860   54.1395   29.8883 H         1 UNK         0.0000 
     47 H47         5.2981   53.7355   26.7181 H         1 UNK         0.0000 
     48 H48         5.3251   55.4438   26.5140 H         1 UNK         0.0000 
     49 H49         3.0977   55.6966   27.5517 H         1 UNK         0.0000 
     50 H50         4.1775   54.8937   28.6402 H         1 UNK         0.0000 
     51 H51         6.8296   55.0663   23.1224 H         1 UNK         0.0000 
     52 H52         6.0009   56.1518   24.2367 H         1 UNK         0.0000 
     53 H53         6.8699   54.7510   24.8306 H         1 UNK         0.0000 
     54 H54         5.6203   55.8386   20.9552 H         1 UNK         0.0000 
     55 H55         6.7027   54.4970   20.6056 H         1 UNK         0.0000 
     56 H56         5.7953   55.2159   18.4593 H         1 UNK         0.0000 
     57 H57         4.1266   55.2758   19.0698 H         1 UNK         0.0000 
     58 H58         3.9039   51.5136   19.2815 H         1 UNK         0.0000 
     59 H59         2.9991   52.9979   19.6529 H         1 UNK         0.0000 
     60 H60         5.5911   51.9975   21.0398 H         1 UNK         0.0000 
     61 H61         3.9942   51.9943   21.7640 H         1 UNK         0.0000 
     62 H62         3.3433   53.7167   17.2692 H         1 UNK         0.0000 
     63 H63         5.0180   53.7644   16.5977 H         1 UNK         0.0000 
     64 H64         4.2563   52.1861   16.9785 H         1 UNK         0.0000 
     65 H65         2.1999   53.5409   23.5005 H         1 UNK         0.0000 
     66 H66         4.1709   52.0970   27.7468 H         1 UNK         0.0000 
     67 H67         3.5669   52.3899   29.3464 H         1 UNK         0.0000 
     68 H68         2.6064   51.4587   28.2117 H         1 UNK         0.0000 
     69 N69         4.9120   53.2967   18.6857 N.4       1 UNK         0.0000 
     70 H70         5.8031   52.8149   18.6740 H         1 UNK         0.0000 
@<TRIPOS>BOND
     1    1    2 1    
     2    1   36 1    
     3    1   37 1    
     4    1   38 1    
     5    2    3 1    
     6    2   15 1    
     7    2    4 1    
     8    4    8 1    
     9    4    5 2    
    10    5    6 1    
    11    5   13 1    
    12    6    7 1    
    13    7    8 2    
    14    7    9 1    
    15    9   10 1    
    16    9   39 1    
    17   10   11 1    
    18   10   40 1    
    19   10   41 1    
    20   11   12 2    
    21   11   42 1    
    22   12   43 1    
    23   12   44 1    
    24   13   14 1    
    25   13   45 1    
    26   13   46 1    
    27   14   22 1    
    28   14   15 1    
    29   14   35 1    
    30   15   16 1    
    31   15   17 1    
    32   17   18 1    
    33   17   19 1    
    34   17   34 1    
    35   19   20 1    
    36   19   21 1    
    37   19   23 1    
    38   21   22 1    
    39   21   47 1    
    40   21   48 1    
    41   22   49 1    
    42   22   50 1    
    43   23   24 1    
    44   23   25 1    
    45   23   26 1    
    46   25   51 1    
    47   25   52 1    
    48   25   53 1    
    49   26   27 2    
    50   26   28 am   BACKBONE|DICT|INTERRES
    51   28   32 1    
    52   28   29 1    
    53   29   30 1    
    54   29   54 1    
    55   29   55 1    
    56   30   56 1    
    57   30   57 1    
    58   30   69 1    
    59   31   32 1    
    60   31   58 1    
    61   31   59 1    
    62   31   69 1    
    63   32   60 1    
    64   32   61 1    
    65   33   62 1    
    66   33   63 1    
    67   33   64 1    
    68   33   69 1    
    69   34   65 1    
    70   35   66 1    
    71   35   67 1    
    72   35   68 1    
    73   69   70 1    
@<TRIPOS>SUBSTRUCTURE
     1 UNK         1 GROUP             0       ****    0 ROOT    
