@<TRIPOS>MOLECULE
ZINC37066399_1576
45   46    1
SMALL
USER_CHARGES


@<TRIPOS>ATOM
      1 C1         -0.4741   51.7552   22.1115 C.3       1 UNK         0.0000 
      2 C2          0.7419   52.1944   22.9499 C.3       1 UNK         0.0000 
      3 C3          0.2717   53.1333   24.0811 C.3       1 UNK         0.0000 
      4 C4          1.4272   50.9304   23.5011 C.3       1 UNK         0.0000 
      5 O5          1.5894   52.8624   22.0009 O.3       1 UNK         0.0000 
      6 C6          2.8854   53.2884   22.2679 C.ar      1 UNK         0.0000 
      7 C7          3.8083   53.3195   21.2125 C.ar      1 UNK         0.0000 
      8 C8          5.1041   53.7499   21.4744 C.ar      1 UNK         0.0000 
      9 C9          5.4691   54.0968   22.7737 C.ar      1 UNK         0.0000 
     10 C10         4.5187   54.0340   23.8073 C.ar      1 UNK         0.0000 
     11 N11         3.2372   53.6369   23.5406 N.ar      1 UNK         0.0000 
     12 N12         4.8799   54.1866   25.1537 N.pl3     1 UNK         0.0000 
     13 C13         6.1472   54.8229   25.5918 C.3       1 UNK         0.0000 
     14 C14         6.6836   54.2769   26.9422 C.3       1 UNK         0.0000 
     15 C15         5.6471   54.2654   28.0784 C.3       1 UNK         0.0000 
     16 C16         4.3554   53.6551   27.5164 C.3       1 UNK         0.0000 
     17 H17         4.5675   52.6146   27.2618 H         1 UNK         0.0000 
     18 C18         3.8916   54.3911   26.2329 C.3       1 UNK         0.0000 
     19 C19         3.2188   53.4841   28.5459 C.2       1 UNK         0.0000 
     20 O20         3.2604   54.0305   29.6478 O.2       1 UNK         0.0000 
     21 N21         2.1902   52.7046   28.2133 N.am      1 UNK         0.0000 
     22 N22         3.4737   52.8968   19.9232 N.pl3     1 UNK         0.0000 
     23 H23        -1.2023   51.2082   22.7118 H         1 UNK         0.0000 
     24 H24        -0.1713   51.1050   21.2893 H         1 UNK         0.0000 
     25 H25        -0.9867   52.6062   21.6661 H         1 UNK         0.0000 
     26 H26         1.0462   53.3189   24.8215 H         1 UNK         0.0000 
     27 H27        -0.0338   54.0992   23.6823 H         1 UNK         0.0000 
     28 H28        -0.5799   52.7141   24.6186 H         1 UNK         0.0000 
     29 H29         2.3044   51.1863   24.0819 H         1 UNK         0.0000 
     30 H30         0.7618   50.3571   24.1480 H         1 UNK         0.0000 
     31 H31         1.7595   50.2731   22.6962 H         1 UNK         0.0000 
     32 H32         5.8355   53.7899   20.6808 H         1 UNK         0.0000 
     33 H33         6.4946   54.3799   22.9417 H         1 UNK         0.0000 
     34 H34         6.9427   54.6250   24.8776 H         1 UNK         0.0000 
     35 H35         6.0231   55.9069   25.6229 H         1 UNK         0.0000 
     36 H36         7.0976   53.2795   26.7856 H         1 UNK         0.0000 
     37 H37         7.5290   54.8834   27.2627 H         1 UNK         0.0000 
     38 H38         6.0684   53.6622   28.8829 H         1 UNK         0.0000 
     39 H39         5.4971   55.2968   28.3924 H         1 UNK         0.0000 
     40 H40         3.8180   55.4643   26.4065 H         1 UNK         0.0000 
     41 H41         2.8884   54.0689   25.9567 H         1 UNK         0.0000 
     42 H42         2.1580   52.2469   27.3152 H         1 UNK         0.0000 
     43 H43         1.4385   52.5760   28.8734 H         1 UNK         0.0000 
     44 H44         4.1962   52.7155   19.2387 H         1 UNK         0.0000 
     45 H45         2.5178   52.6231   19.7449 H         1 UNK         0.0000 
@<TRIPOS>BOND
     1    1    2 1    
     2    1   23 1    
     3    1   24 1    
     4    1   25 1    
     5    2    3 1    
     6    2    4 1    
     7    2    5 1    
     8    3   26 1    
     9    3   27 1    
    10    3   28 1    
    11    4   29 1    
    12    4   30 1    
    13    4   31 1    
    14    5    6 1    
    15    6   11 ar   
    16    6    7 ar   
    17    7    8 ar   
    18    7   22 1    
    19    8    9 ar   
    20    8   32 1    
    21    9   10 ar   
    22    9   33 1    
    23   10   11 ar   
    24   10   12 1    
    25   12   18 1    
    26   12   13 1    
    27   13   14 1    
    28   13   34 1    
    29   13   35 1    
    30   14   15 1    
    31   14   36 1    
    32   14   37 1    
    33   15   16 1    
    34   15   38 1    
    35   15   39 1    
    36   16   17 1    
    37   16   18 1    
    38   16   19 1    
    39   18   40 1    
    40   18   41 1    
    41   19   20 2    
    42   19   21 am   BACKBONE|DICT|INTERRES
    43   21   42 1    
    44   21   43 1    
    45   22   44 1    
    46   22   45 1    
@<TRIPOS>SUBSTRUCTURE
     1 UNK         1 GROUP             0       ****    0 ROOT    
