@<TRIPOS>MOLECULE
ZINC09732811_4703
39   41    1
SMALL
USER_CHARGES


@<TRIPOS>ATOM
      1 C1          1.8872   53.6836   24.7948 C.ar      1 UNK         0.0000 
      2 C2          1.1947   52.5980   24.2570 C.ar      1 UNK         0.0000 
      3 C3          1.6079   52.0340   23.0494 C.ar      1 UNK         0.0000 
      4 C4          2.7042   52.5739   22.3711 C.ar      1 UNK         0.0000 
      5 C5          3.3638   53.6957   22.8843 C.ar      1 UNK         0.0000 
      6 C6          2.9773   54.2270   24.1147 C.ar      1 UNK         0.0000 
      7 C7          4.5280   54.0778   21.9926 C.3       1 UNK         0.0000 
      8 C8          4.2460   53.2998   20.7075 C.3       1 UNK         0.0000 
      9 C9          3.4264   52.0794   21.1323 C.3       1 UNK         0.0000 
     10 H10         4.1199   51.2918   21.4406 H         1 UNK         0.0000 
     11 N11         2.5162   51.6410   20.0743 N.am      1 UNK         0.0000 
     12 C12         2.2191   50.3552   19.8395 C.2       1 UNK         0.0000 
     13 O13         2.2931   49.4759   20.7030 O.2       1 UNK         0.0000 
     14 N14         1.8678   50.1674   18.5551 N.am      1 UNK         0.0000 
     15 N15         1.9044   48.8619   18.0821 N.am      1 UNK         0.0000 
     16 C16         0.7886   48.3449   17.5271 C.2       1 UNK         0.0000 
     17 O17        -0.3146   48.9013   17.5327 O.2       1 UNK         0.0000 
     18 C18         0.9523   46.9735   16.9073 C.ar      1 UNK         0.0000 
     19 C19         2.2120   46.4970   16.5049 C.ar      1 UNK         0.0000 
     20 C20         2.3410   45.2220   15.9630 C.ar      1 UNK         0.0000 
     21 C21         1.2170   44.4192   15.8017 C.ar      1 UNK         0.0000 
     22 C22        -0.0400   44.8838   16.1763 C.ar      1 UNK         0.0000 
     23 C23        -0.1726   46.1564   16.7263 C.ar      1 UNK         0.0000 
     24 F24         1.3481   43.1785   15.2809 F         1 UNK         0.0000 
     25 H25         1.5814   54.0953   25.7453 H         1 UNK         0.0000 
     26 H26         0.3561   52.1737   24.7907 H         1 UNK         0.0000 
     27 H27         1.0984   51.1617   22.6649 H         1 UNK         0.0000 
     28 H28         3.5120   55.0584   24.5474 H         1 UNK         0.0000 
     29 H29         5.4754   53.7633   22.4316 H         1 UNK         0.0000 
     30 H30         4.5914   55.1468   21.7903 H         1 UNK         0.0000 
     31 H31         5.1423   53.0319   20.1466 H         1 UNK         0.0000 
     32 H32         3.6543   53.9369   20.0455 H         1 UNK         0.0000 
     33 H33         2.1772   52.3533   19.4443 H         1 UNK         0.0000 
     34 H34         2.1732   50.8166   17.8447 H         1 UNK         0.0000 
     35 H35         2.8158   48.6653   17.6771 H         1 UNK         0.0000 
     36 H36         3.1052   47.0983   16.6126 H         1 UNK         0.0000 
     37 H37         3.3173   44.8549   15.6825 H         1 UNK         0.0000 
     38 H38        -0.9084   44.2565   16.0426 H         1 UNK         0.0000 
     39 H39        -1.1555   46.5000   17.0178 H         1 UNK         0.0000 
@<TRIPOS>BOND
     1    1    6 ar   
     2    1    2 ar   
     3    1   25 1    
     4    2    3 ar   
     5    2   26 1    
     6    3    4 ar   
     7    3   27 1    
     8    4    9 1    
     9    4    5 ar   
    10    5    6 ar   
    11    5    7 1    
    12    6   28 1    
    13    7    8 1    
    14    7   29 1    
    15    7   30 1    
    16    8    9 1    
    17    8   31 1    
    18    8   32 1    
    19    9   10 1    
    20    9   11 1    
    21   11   12 am   BACKBONE|DICT|INTERRES
    22   11   33 1    
    23   12   13 2    
    24   12   14 am   BACKBONE|DICT|INTERRES
    25   14   15 1    
    26   14   34 1    
    27   15   16 am   BACKBONE|DICT|INTERRES
    28   15   35 1    
    29   16   17 2    
    30   16   18 1    
    31   18   23 ar   
    32   18   19 ar   
    33   19   20 ar   
    34   19   36 1    
    35   20   21 ar   
    36   20   37 1    
    37   21   22 ar   
    38   21   24 1    
    39   22   23 ar   
    40   22   38 1    
    41   23   39 1    
@<TRIPOS>SUBSTRUCTURE
     1 UNK         1 GROUP             0       ****    0 ROOT    
