@<TRIPOS>MOLECULE
ZINC43407931_4688
35   37    1
SMALL
USER_CHARGES


@<TRIPOS>ATOM
      1 C1          5.3536   53.6998   27.4705 C.ar      1 UNK         0.0000 
      2 C2          6.2163   54.1699   26.4821 C.ar      1 UNK         0.0000 
      3 C3          5.6842   54.7251   25.3200 C.ar      1 UNK         0.0000 
      4 C4          4.3131   54.8349   25.1510 C.ar      1 UNK         0.0000 
      5 C5          3.4609   54.3768   26.1402 C.ar      1 UNK         0.0000 
      6 C6          3.9692   53.7725   27.2951 C.ar      1 UNK         0.0000 
      7 O7          3.1809   53.2721   28.3155 O.3       1 UNK         0.0000 
      8 C8          1.9043   52.7277   28.1929 C.ar      1 UNK         0.0000 
      9 C9          1.1922   52.3619   29.3614 C.ar      1 UNK         0.0000 
     10 C10        -0.1077   51.8418   29.1741 C.ar      1 UNK         0.0000 
     11 C11        -0.6429   51.6966   27.8964 C.ar      1 UNK         0.0000 
     12 C12         0.1406   52.0622   26.8148 C.ar      1 UNK         0.0000 
     13 N13         1.3940   52.5436   26.9411 N.ar      1 UNK         0.0000 
     14 C14        -0.6142   51.9158   25.5159 C.3       1 UNK         0.0000 
     15 C15        -1.8454   51.0993   25.9220 C.3       1 UNK         0.0000 
     16 C16        -2.0260   51.2970   27.4313 C.3       1 UNK         0.0000 
     17 C17         1.7763   52.4433   30.7372 C.2       1 UNK         0.0000 
     18 N18         1.1462   52.6827   31.8158 N.2       1 UNK         0.0000 
     19 O19        -0.0956   53.2967   31.6817 O.3       1 UNK         0.0000 
     20 N20         3.1063   52.0968   30.7462 N.pl3     1 UNK         0.0000 
     21 Cl21        6.7044   55.2898   24.0610 Cl        1 UNK         0.0000 
     22 H22         5.7605   53.2567   28.3673 H         1 UNK         0.0000 
     23 H23         7.2846   54.0906   26.6146 H         1 UNK         0.0000 
     24 H24         3.9073   55.2806   24.2549 H         1 UNK         0.0000 
     25 H25         2.4027   54.4964   25.9841 H         1 UNK         0.0000 
     26 H26        -0.7047   51.5310   30.0208 H         1 UNK         0.0000 
     27 H27        -0.0384   51.4035   24.7449 H         1 UNK         0.0000 
     28 H28        -0.9037   52.8914   25.1249 H         1 UNK         0.0000 
     29 H29        -1.6543   50.0413   25.7294 H         1 UNK         0.0000 
     30 H30        -2.7367   51.3684   25.3535 H         1 UNK         0.0000 
     31 H31        -2.7421   52.0964   27.6212 H         1 UNK         0.0000 
     32 H32        -2.4187   50.4035   27.9154 H         1 UNK         0.0000 
     33 H33        -0.6302   52.8128   32.3444 H         1 UNK         0.0000 
     34 H34         3.6064   52.0969   31.6227 H         1 UNK         0.0000 
     35 H35         3.6211   52.1283   29.8761 H         1 UNK         0.0000 
@<TRIPOS>BOND
     1    1    6 ar   
     2    1    2 ar   
     3    1   22 1    
     4    2    3 ar   
     5    2   23 1    
     6    3    4 ar   
     7    3   21 1    
     8    4    5 ar   
     9    4   24 1    
    10    5    6 ar   
    11    5   25 1    
    12    6    7 1    
    13    7    8 1    
    14    8   13 ar   
    15    8    9 ar   
    16    9   10 ar   
    17    9   17 1    
    18   10   11 ar   
    19   10   26 1    
    20   11   16 1    
    21   11   12 ar   
    22   12   13 ar   
    23   12   14 1    
    24   14   15 1    
    25   14   27 1    
    26   14   28 1    
    27   15   16 1    
    28   15   29 1    
    29   15   30 1    
    30   16   31 1    
    31   16   32 1    
    32   17   18 2    
    33   17   20 1    
    34   18   19 1    
    35   19   33 1    
    36   20   34 1    
    37   20   35 1    
@<TRIPOS>SUBSTRUCTURE
     1 UNK         1 GROUP             0       ****    0 ROOT    
