@<TRIPOS>MOLECULE
ZINC03040696_2005
60   64    1
SMALL
USER_CHARGES


@<TRIPOS>ATOM
      1 C1          7.1673   54.9761   21.9971 C.3       1 UNK         0.0000 
      2 O2          5.8569   54.4978   22.2649 O.3       1 UNK         0.0000 
      3 C3          5.4019   54.4953   23.5676 C.ar      1 UNK         0.0000 
      4 C4          6.1623   54.8963   24.6787 C.ar      1 UNK         0.0000 
      5 C5          5.6009   54.8940   25.9545 C.ar      1 UNK         0.0000 
      6 C6          4.2841   54.4746   26.1362 C.ar      1 UNK         0.0000 
      7 C7          3.5203   54.0453   25.0470 C.ar      1 UNK         0.0000 
      8 C8          4.0826   54.0856   23.7622 C.ar      1 UNK         0.0000 
      9 N9          2.2416   53.5405   25.3421 N.am      1 UNK         0.0000 
     10 C10         1.5050   52.6489   24.6419 C.2       1 UNK         0.0000 
     11 O11         1.6274   52.4476   23.4373 O.2       1 UNK         0.0000 
     12 N12         0.6079   51.9149   25.3384 N.am      1 UNK         0.0000 
     13 C13         0.3042   51.8701   26.7202 C.ar      1 UNK         0.0000 
     14 C14         1.3115   52.0626   27.6820 C.ar      1 UNK         0.0000 
     15 C15         1.0117   52.1444   29.0415 C.ar      1 UNK         0.0000 
     16 C16        -0.3095   51.9862   29.4559 C.ar      1 UNK         0.0000 
     17 C17        -1.2979   51.6965   28.5220 C.ar      1 UNK         0.0000 
     18 C18        -1.0212   51.6010   27.1507 C.ar      1 UNK         0.0000 
     19 N19        -2.0811   51.2219   26.3193 N.pl3     1 UNK         0.0000 
     20 C20        -3.3365   51.9961   26.2974 C.3       1 UNK         0.0000 
     21 C21        -4.6030   51.1666   25.9389 C.3       1 UNK         0.0000 
     22 H22        -5.4726   51.8135   25.8173 H         1 UNK         0.0000 
     23 C23        -4.3983   50.5317   24.5585 C.3       1 UNK         0.0000 
     24 C24        -3.1448   49.6555   24.6359 C.3       1 UNK         0.0000 
     25 H25        -2.9620   49.2580   23.6360 H         1 UNK         0.0000 
     26 C26        -1.9154   50.5082   25.0405 C.3       1 UNK         0.0000 
     27 C27        -3.3656   48.4952   25.6203 C.ar      1 UNK         0.0000 
     28 C28        -2.7808   47.2910   25.4132 C.ar      1 UNK         0.0000 
     29 C29        -2.9729   46.2470   26.3981 C.ar      1 UNK         0.0000 
     30 C30        -3.7761   46.4826   27.4521 C.ar      1 UNK         0.0000 
     31 C31        -4.4961   47.7353   27.6394 C.ar      1 UNK         0.0000 
     32 O32        -5.3407   47.8212   28.5351 O.2       1 UNK         0.0000 
     33 N33        -4.1984   48.7375   26.7303 N.pl3     1 UNK         0.0000 
     34 C34        -4.8944   50.0356   26.9646 C.3       1 UNK         0.0000 
     35 C35         2.0894   52.4001   30.0314 C.2       1 UNK         0.0000 
     36 O36         3.1211   51.6969   29.9581 O.co2     1 UNK         0.0000 
     37 O37         1.8893   53.2966   30.8737 O.co2     1 UNK         0.0000 
     38 H38         7.3612   54.9241   20.9257 H         1 UNK         0.0000 
     39 H39         7.2977   56.0125   22.3118 H         1 UNK         0.0000 
     40 H40         7.9045   54.3509   22.4964 H         1 UNK         0.0000 
     41 H41         7.1856   55.2207   24.5659 H         1 UNK         0.0000 
     42 H42         6.1875   55.2068   26.8061 H         1 UNK         0.0000 
     43 H43         3.8760   54.4535   27.1373 H         1 UNK         0.0000 
     44 H44         3.5179   53.7877   22.8927 H         1 UNK         0.0000 
     45 H45         1.9371   53.7013   26.2893 H         1 UNK         0.0000 
     46 H46         0.0042   51.3413   24.7694 H         1 UNK         0.0000 
     47 H47         2.3475   52.1503   27.3876 H         1 UNK         0.0000 
     48 H48        -0.5676   52.0314   30.5071 H         1 UNK         0.0000 
     49 H49        -2.2932   51.4924   28.8891 H         1 UNK         0.0000 
     50 H50        -3.5132   52.4268   27.2826 H         1 UNK         0.0000 
     51 H51        -3.2330   52.8589   25.6373 H         1 UNK         0.0000 
     52 H52        -5.2695   49.9453   24.2591 H         1 UNK         0.0000 
     53 H53        -4.2740   51.3053   23.7985 H         1 UNK         0.0000 
     54 H54        -1.7272   51.2597   24.2720 H         1 UNK         0.0000 
     55 H55        -1.0442   49.8527   25.0868 H         1 UNK         0.0000 
     56 H56        -2.1352   47.1287   24.5638 H         1 UNK         0.0000 
     57 H57        -2.4170   45.3239   26.3456 H         1 UNK         0.0000 
     58 H58        -3.8674   45.7312   28.2212 H         1 UNK         0.0000 
     59 H59        -4.6618   50.3821   27.9733 H         1 UNK         0.0000 
     60 H60        -5.9701   49.8567   27.0036 H         1 UNK         0.0000 
@<TRIPOS>BOND
     1    1    2 1    
     2    1   38 1    
     3    1   39 1    
     4    1   40 1    
     5    2    3 1    
     6    3    8 ar   
     7    3    4 ar   
     8    4    5 ar   
     9    4   41 1    
    10    5    6 ar   
    11    5   42 1    
    12    6    7 ar   
    13    6   43 1    
    14    7    8 ar   
    15    7    9 1    
    16    8   44 1    
    17    9   10 am   BACKBONE|DICT|INTERRES
    18    9   45 1    
    19   10   11 2    
    20   10   12 am   BACKBONE|DICT|INTERRES
    21   12   13 1    
    22   12   46 1    
    23   13   18 ar   
    24   13   14 ar   
    25   14   15 ar   
    26   14   47 1    
    27   15   16 ar   
    28   15   35 1    
    29   16   17 ar   
    30   16   48 1    
    31   17   18 ar   
    32   17   49 1    
    33   18   19 1    
    34   19   26 1    
    35   19   20 1    
    36   20   21 1    
    37   20   50 1    
    38   20   51 1    
    39   21   22 1    
    40   21   34 1    
    41   21   23 1    
    42   23   24 1    
    43   23   52 1    
    44   23   53 1    
    45   24   25 1    
    46   24   26 1    
    47   24   27 1    
    48   26   54 1    
    49   26   55 1    
    50   27   33 ar   
    51   27   28 ar   
    52   28   29 ar   
    53   28   56 1    
    54   29   30 ar   
    55   29   57 1    
    56   30   31 ar   
    57   30   58 1    
    58   31   32 2    
    59   31   33 ar   
    60   33   34 1    
    61   34   59 1    
    62   34   60 1    
    63   35   36 2    
    64   35   37 1    
@<TRIPOS>SUBSTRUCTURE
     1 UNK         1 GROUP             0       ****    0 ROOT    
