ZINC30975039_4833
                    3D
 Schrodinger Suite 2024-2.
 66 69  0  0  1  0            999 V2000
    6.8392   55.5371   19.3714 C   0  0  0  0  0  0
    6.0143   54.8993   20.4748 C   0  0  0  0  0  0
    4.8693   54.1664   20.1629 C   0  0  0  0  0  0
    4.1134   53.5862   21.1799 C   0  0  0  0  0  0
    4.5012   53.7341   22.5107 C   0  0  0  0  0  0
    5.6489   54.4679   22.8491 C   0  0  0  0  0  0
    6.3991   55.0476   21.8129 C   0  0  0  0  0  0
    6.0469   54.6560   24.2886 C   0  0  0  0  0  0
    5.3916   54.0970   25.2869 N   0  0  0  0  0  0
    6.0668   54.4928   26.3342 C   0  0  0  0  0  0
    7.1026   55.2968   26.0321 O   0  0  0  0  0  0
    7.0658   55.4073   24.6459 N   0  0  0  0  0  0
    5.8156   54.1881   27.8002 C   0  0  0  0  0  0
    4.3764   53.6407   27.9696 N   0  3  1  0  0  0
    4.1923   52.9249   29.3258 C   0  0  0  0  0  0
    2.8005   52.2685   29.3264 C   0  0  0  0  0  0
    1.7045   53.3254   29.0418 C   0  0  1  0  0  0
    1.9512   54.1589   27.7610 C   0  0  0  0  0  0
    3.3470   54.7879   27.8075 C   0  0  0  0  0  0
    0.3319   52.6376   28.9584 C   0  0  0  0  0  0
   -0.4954   52.8470   29.8385 O   0  0  0  0  0  0
    0.1114   51.8370   27.9021 N   0  0  0  0  0  0
   -1.1149   51.0886   27.6501 C   0  0  0  0  0  0
   -2.0452   51.7702   26.6307 C   0  0  0  0  0  0
   -3.4142   51.0815   26.4708 C   0  0  0  0  0  0
   -4.5727   51.2945   27.8566 S   0  0  0  0  0  0
   -4.3228   49.7694   28.8203 C   0  0  0  0  0  0
   -5.2664   49.7126   30.0098 C   0  0  0  0  0  0
   -4.8255   50.1271   31.2745 C   0  0  0  0  0  0
   -5.6956   50.0962   32.3652 C   0  0  0  0  0  0
   -7.0025   49.6431   32.2060 C   0  0  0  0  0  0
   -7.4442   49.2231   30.9499 C   0  0  0  0  0  0
   -6.5821   49.2597   29.8537 C   0  0  0  0  0  0
   -7.0314   48.8575   28.6431 F   0  0  0  0  0  0
    6.2273   55.7592   18.4958 H   0  0  0  0  0  0
    7.2646   56.4869   19.7007 H   0  0  0  0  0  0
    7.6571   54.8805   19.0734 H   0  0  0  0  0  0
    4.5575   54.0418   19.1358 H   0  0  0  0  0  0
    3.2234   53.0249   20.9344 H   0  0  0  0  0  0
    3.8903   53.2850   23.2797 H   0  0  0  0  0  0
    7.2899   55.6151   22.0405 H   0  0  0  0  0  0
    5.9049   55.0542   28.4593 H   0  0  0  0  0  0
    6.4921   53.4076   28.1596 H   0  0  0  0  0  0
    4.3070   53.6658   30.1193 H   0  0  0  0  0  0
    4.9715   52.1636   29.4057 H   0  0  0  0  0  0
    2.6619   51.8211   30.3096 H   0  0  0  0  0  0
    2.8348   51.5044   28.5478 H   0  0  0  0  0  0
    1.6340   54.0039   29.8962 H   0  0  0  0  0  0
    1.9433   53.5421   26.8607 H   0  0  0  0  0  0
    1.2365   54.9787   27.6822 H   0  0  0  0  0  0
    3.4790   55.4856   28.6365 H   0  0  0  0  0  0
    3.5477   55.2940   26.8646 H   0  0  0  0  0  0
    0.8598   51.6825   27.2457 H   0  0  0  0  0  0
   -1.6415   50.9062   28.5875 H   0  0  0  0  0  0
   -0.8587   50.0969   27.2818 H   0  0  0  0  0  0
   -1.5417   51.7825   25.6639 H   0  0  0  0  0  0
   -2.1984   52.8177   26.8934 H   0  0  0  0  0  0
   -3.2817   50.0159   26.2702 H   0  0  0  0  0  0
   -3.9048   51.4882   25.5863 H   0  0  0  0  0  0
   -3.2966   49.6948   29.1713 H   0  0  0  0  0  0
   -4.4742   48.8967   28.1832 H   0  0  0  0  0  0
   -3.8090   50.4749   31.4167 H   0  0  0  0  0  0
   -5.3444   50.4273   33.3321 H   0  0  0  0  0  0
   -7.6722   49.6162   33.0506 H   0  0  0  0  0  0
   -8.4563   48.8715   30.8223 H   0  0  0  0  0  0
    4.2470   52.9634   27.2270 H   0  0  0  0  0  0
  1  2  1  0  0  0
  1 35  1  0  0  0
  1 36  1  0  0  0
  1 37  1  0  0  0
  2  7  2  0  0  0
  2  3  1  0  0  0
  3  4  2  0  0  0
  3 38  1  0  0  0
  4  5  1  0  0  0
  4 39  1  0  0  0
  5  6  2  0  0  0
  5 40  1  0  0  0
  6  7  1  0  0  0
  6  8  1  0  0  0
  7 41  1  0  0  0
  8 12  2  0  0  0
  8  9  1  0  0  0
  9 10  2  0  0  0
 10 11  1  0  0  0
 10 13  1  0  0  0
 11 12  1  0  0  0
 13 14  1  0  0  0
 13 42  1  0  0  0
 13 43  1  0  0  0
 14 19  1  0  0  0
 14 15  1  0  0  0
 14 66  1  0  0  0
 15 16  1  0  0  0
 15 44  1  0  0  0
 15 45  1  0  0  0
 16 17  1  0  0  0
 16 46  1  0  0  0
 16 47  1  0  0  0
 17 18  1  0  0  0
 17 20  1  0  0  0
 17 48  1  0  0  0
 18 19  1  0  0  0
 18 49  1  0  0  0
 18 50  1  0  0  0
 19 51  1  0  0  0
 19 52  1  0  0  0
 20 21  2  0  0  0
 20 22  1  0  0  0
 22 23  1  0  0  0
 22 53  1  0  0  0
 23 24  1  0  0  0
 23 54  1  0  0  0
 23 55  1  0  0  0
 24 25  1  0  0  0
 24 56  1  0  0  0
 24 57  1  0  0  0
 25 26  1  0  0  0
 25 58  1  0  0  0
 25 59  1  0  0  0
 26 27  1  0  0  0
 27 28  1  0  0  0
 27 60  1  0  0  0
 27 61  1  0  0  0
 28 33  2  0  0  0
 28 29  1  0  0  0
 29 30  2  0  0  0
 29 62  1  0  0  0
 30 31  1  0  0  0
 30 63  1  0  0  0
 31 32  2  0  0  0
 31 64  1  0  0  0
 32 33  1  0  0  0
 32 65  1  0  0  0
 33 34  1  0  0  0
M  CHG  1  14   1
M  END
> <i_i_glide_confnum>
293

> <i_i_glide_lignum>
4834

> <i_i_glide_posenum>
267

> <i_i_glide_rotatable_bonds>
11

> <i_m_Source_File_Index>
1093

> <b_m_subgroup_collapsed>
0

> <r_i_docking_score>
-5.67554

> <r_i_glide_ecoul>
-4.7654

> <r_i_glide_eff_state_penalty>
0

> <r_i_glide_einternal>
6.34856

> <r_i_glide_emodel>
-66.3142

> <r_i_glide_energy>
-50.0828

> <r_i_glide_erotb>
0.868016

> <r_i_glide_esite>
-0.0304017

> <r_i_glide_evdw>
-45.3174

> <r_i_glide_gscore>
-5.67554

> <r_i_glide_hbond>
0

> <r_i_glide_ligand_efficiency>
-0.166928

> <r_i_glide_ligand_efficiency_ln>
-1.25389

> <r_i_glide_ligand_efficiency_sa>
-0.54078

> <r_i_glide_lipo>
-2.66992

> <r_i_glide_metal>
0

> <r_i_glide_rewards>
-0.862554

> <s_i_glide_gridfile>
wee1_glide-grid

> <s_m_Source_File>
wee1_decoys_glide_SP.sdf

> <s_m_Source_Path>
/Users/zhangxujun/Desktop

> <s_m_entry_id>
1368

> <s_m_entry_name>
wee1_decoys_glide_SP.1093

> <s_m_subgroup_title>
wee1_decoys_glide_SP

> <s_m_subgroupid>
wee1_decoys_glide_SP


$$$$
