@<TRIPOS>MOLECULE
ZINC33273023_3386
62   65    1
SMALL
USER_CHARGES


@<TRIPOS>ATOM
      1 C1          1.4805   53.1315   30.2692 C.3       1 UNK         0.0000 
      2 O2          2.7883   53.6678   30.0821 O.3       1 UNK         0.0000 
      3 C3          3.2797   53.8169   28.8003 C.ar      1 UNK         0.0000 
      4 C4          2.5568   53.5133   27.6380 C.ar      1 UNK         0.0000 
      5 C5          3.1325   53.7015   26.3849 C.ar      1 UNK         0.0000 
      6 C6          4.4353   54.1906   26.2714 C.ar      1 UNK         0.0000 
      7 C7          5.1627   54.4912   27.4335 C.ar      1 UNK         0.0000 
      8 C8          4.5801   54.3057   28.6844 C.ar      1 UNK         0.0000 
      9 N9          4.9105   54.3622   24.9571 N.am      1 UNK         0.0000 
     10 C10         6.1333   54.7292   24.5134 C.2       1 UNK         0.0000 
     11 O11         7.1035   54.9682   25.2341 O.2       1 UNK         0.0000 
     12 C12         6.2268   54.8960   23.0775 C.2       1 UNK         0.0000 
     13 N13         7.1031   55.6093   22.4112 N.2       1 UNK         0.0000 
     14 N14         6.9189   55.6016   21.0366 N.2       1 UNK         0.0000 
     15 C15         5.9262   54.8401   20.6455 C.2       1 UNK         0.0000 
     16 S16         5.1058   54.0870   21.9888 S.3       1 UNK         0.0000 
     17 C17         5.5814   54.6469   19.1779 C.3       1 UNK         0.0000 
     18 C18         5.2136   53.1984   18.7530 C.3       1 UNK         0.0000 
     19 C19         4.8016   53.0955   17.2609 C.3       1 UNK         0.0000 
     20 N20         3.7427   54.0846   16.9930 N.am      1 UNK         0.0000 
     21 C21         4.2630   55.4620   17.1123 C.3       1 UNK         0.0000 
     22 C22         4.6136   55.7108   18.5987 C.3       1 UNK         0.0000 
     23 C23         2.4416   53.7706   17.2594 C.2       1 UNK         0.0000 
     24 O24         2.1044   52.6715   17.7017 O.2       1 UNK         0.0000 
     25 N25         1.5606   54.7265   16.8825 N.am      1 UNK         0.0000 
     26 C26         0.1494   54.7471   16.9186 C.ar      1 UNK         0.0000 
     27 C27        -0.6451   53.6442   17.2795 C.ar      1 UNK         0.0000 
     28 C28        -2.0444   53.7306   17.2800 C.ar      1 UNK         0.0000 
     29 C29        -2.6395   54.9241   16.8857 C.ar      1 UNK         0.0000 
     30 C30        -1.8686   56.0315   16.5470 C.ar      1 UNK         0.0000 
     31 C31        -0.4663   55.9622   16.5700 C.ar      1 UNK         0.0000 
     32 O32         0.3508   57.0390   16.2653 O.3       1 UNK         0.0000 
     33 C33        -0.2319   58.3079   15.9879 C.3       1 UNK         0.0000 
     34 O34        -2.8972   52.7094   17.6513 O.3       1 UNK         0.0000 
     35 C35        -2.3506   51.4548   18.0449 C.3       1 UNK         0.0000 
     36 H36         1.2662   53.0572   31.3356 H         1 UNK         0.0000 
     37 H37         1.3932   52.1283   29.8482 H         1 UNK         0.0000 
     38 H38         0.7176   53.7729   29.8251 H         1 UNK         0.0000 
     39 H39         1.5484   53.1326   27.6863 H         1 UNK         0.0000 
     40 H40         2.5539   53.4621   25.5042 H         1 UNK         0.0000 
     41 H41         6.1676   54.8805   27.4034 H         1 UNK         0.0000 
     42 H42         5.1432   54.5499   29.5729 H         1 UNK         0.0000 
     43 H43         4.2263   54.1810   24.2393 H         1 UNK         0.0000 
     44 H44         6.4768   54.8265   18.5782 H         1 UNK         0.0000 
     45 H45         6.0517   52.5121   18.8955 H         1 UNK         0.0000 
     46 H46         4.3661   52.8324   19.3347 H         1 UNK         0.0000 
     47 H47         5.6480   53.3403   16.6181 H         1 UNK         0.0000 
     48 H48         4.5068   52.0973   16.9348 H         1 UNK         0.0000 
     49 H49         5.1644   55.5165   16.5000 H         1 UNK         0.0000 
     50 H50         3.6089   56.2103   16.6631 H         1 UNK         0.0000 
     51 H51         3.6735   55.6961   19.1502 H         1 UNK         0.0000 
     52 H52         5.0565   56.7061   18.6630 H         1 UNK         0.0000 
     53 H53         1.9596   55.5842   16.5333 H         1 UNK         0.0000 
     54 H54        -0.1904   52.7114   17.5597 H         1 UNK         0.0000 
     55 H55        -3.7169   54.9948   16.8576 H         1 UNK         0.0000 
     56 H56        -2.3807   56.9381   16.2645 H         1 UNK         0.0000 
     57 H57         0.5602   59.0428   15.8443 H         1 UNK         0.0000 
     58 H58        -0.8252   58.2800   15.0728 H         1 UNK         0.0000 
     59 H59        -0.8608   58.6546   16.8097 H         1 UNK         0.0000 
     60 H60        -3.1629   50.7699   18.2907 H         1 UNK         0.0000 
     61 H61        -1.7696   50.9996   17.2402 H         1 UNK         0.0000 
     62 H62        -1.7205   51.5515   18.9312 H         1 UNK         0.0000 
@<TRIPOS>BOND
     1    1    2 1    
     2    1   36 1    
     3    1   37 1    
     4    1   38 1    
     5    2    3 1    
     6    3    8 ar   
     7    3    4 ar   
     8    4    5 ar   
     9    4   39 1    
    10    5    6 ar   
    11    5   40 1    
    12    6    7 ar   
    13    6    9 1    
    14    7    8 ar   
    15    7   41 1    
    16    8   42 1    
    17    9   10 am   BACKBONE|DICT|INTERRES
    18    9   43 1    
    19   10   11 2    
    20   10   12 1    
    21   12   16 1    
    22   12   13 2    
    23   13   14 1    
    24   14   15 2    
    25   15   16 1    
    26   15   17 1    
    27   17   22 1    
    28   17   18 1    
    29   17   44 1    
    30   18   19 1    
    31   18   45 1    
    32   18   46 1    
    33   19   20 1    
    34   19   47 1    
    35   19   48 1    
    36   20   21 1    
    37   20   23 am   BACKBONE|DICT|INTERRES
    38   21   22 1    
    39   21   49 1    
    40   21   50 1    
    41   22   51 1    
    42   22   52 1    
    43   23   24 2    
    44   23   25 am   BACKBONE|DICT|INTERRES
    45   25   26 1    
    46   25   53 1    
    47   26   31 ar   
    48   26   27 ar   
    49   27   28 ar   
    50   27   54 1    
    51   28   29 ar   
    52   28   34 1    
    53   29   30 ar   
    54   29   55 1    
    55   30   31 ar   
    56   30   56 1    
    57   31   32 1    
    58   32   33 1    
    59   33   57 1    
    60   33   58 1    
    61   33   59 1    
    62   34   35 1    
    63   35   60 1    
    64   35   61 1    
    65   35   62 1    
@<TRIPOS>SUBSTRUCTURE
     1 UNK         1 GROUP             0       ****    0 ROOT    
