ZINC09611938_1071
                    3D
 Schrodinger Suite 2024-2.
 73 76  0  0  1  0            999 V2000
    2.3409   49.0984   20.1714 C   0  0  0  0  0  0
    1.3537   49.8997   21.0341 C   0  0  1  0  0  0
    1.8761   50.0347   21.9820 H   0  0  0  0  0  0
    0.9373   51.3063   20.4717 C   0  0  2  0  0  0
   -0.0678   51.5218   20.8355 H   0  0  0  0  0  0
    0.9177   51.5046   18.9566 C   0  0  0  0  0  0
    1.9015   51.2998   17.9776 C   0  0  0  0  0  0
    1.5015   51.5979   16.6741 C   0  0  0  0  0  0
    0.1990   52.0465   16.6119 C   0  0  0  0  0  0
   -0.5292   52.0963   18.1787 S   0  0  0  0  0  0
    1.2878   52.7509   22.5925 C   0  0  0  0  0  0
    1.9636   54.0484   23.0813 C   0  0  0  0  0  0
    3.4328   54.0270   22.9607 N   0  0  0  0  0  0
    3.8456   53.7072   21.5782 C   0  0  0  0  0  0
    3.2347   52.4055   21.0241 C   0  0  0  0  0  0
    4.3200   54.1600   24.0338 C   0  0  0  0  0  0
    3.8957   53.9819   25.3603 C   0  0  0  0  0  0
    4.7879   54.0977   26.4230 C   0  0  0  0  0  0
    6.1341   54.4022   26.1858 C   0  0  0  0  0  0
    6.5535   54.6217   24.8784 C   0  0  0  0  0  0
    5.6644   54.4969   23.8169 C   0  0  0  0  0  0
    7.0986   54.4964   27.1684 O   0  0  0  0  0  0
    6.7686   54.0530   28.4810 C   0  0  0  0  0  0
    0.1986   49.0458   21.3151 N   0  0  0  0  0  0
   -0.5772   49.1074   22.4144 C   0  0  0  0  0  0
   -0.4379   49.9739   23.2785 O   0  0  0  0  0  0
   -1.5997   48.0023   22.5650 C   0  0  0  0  0  0
   -2.1794   47.3861   21.4470 C   0  0  0  0  0  0
   -3.1131   46.3490   21.5913 C   0  0  0  0  0  0
   -3.4726   45.9300   22.8784 C   0  0  0  0  0  0
   -2.9016   46.5219   24.0146 C   0  0  0  0  0  0
   -1.9752   47.5634   23.8412 C   0  0  0  0  0  0
   -3.2915   46.0330   25.2485 O   0  0  0  0  0  0
   -2.7747   46.6283   26.4353 C   0  0  0  0  0  0
   -4.3747   44.8981   23.0111 O   0  0  0  0  0  0
   -5.6930   45.3124   23.3564 C   0  0  0  0  0  0
   -3.7138   45.6992   20.5269 O   0  0  0  0  0  0
   -3.4123   46.0993   19.1942 C   0  0  0  0  0  0
    3.2213   49.6966   19.9404 H   0  0  0  0  0  0
    2.7040   48.2106   20.6912 H   0  0  0  0  0  0
    1.9061   48.7933   19.2188 H   0  0  0  0  0  0
    2.8990   50.9353   18.1805 H   0  0  0  0  0  0
    2.1470   51.4801   15.8158 H   0  0  0  0  0  0
   -0.3589   52.3456   15.7376 H   0  0  0  0  0  0
    0.2061   52.8916   22.5930 H   0  0  0  0  0  0
    1.5509   51.8810   23.1962 H   0  0  0  0  0  0
    1.6335   54.8965   22.4820 H   0  0  0  0  0  0
    1.6239   54.2778   24.0891 H   0  0  0  0  0  0
    4.9271   53.6394   21.4653 H   0  0  0  0  0  0
    3.5215   54.5543   20.9703 H   0  0  0  0  0  0
    3.5730   51.5175   21.5590 H   0  0  0  0  0  0
    3.4714   52.3243   19.9642 H   0  0  0  0  0  0
    2.8800   53.7084   25.5982 H   0  0  0  0  0  0
    4.4160   53.9263   27.4223 H   0  0  0  0  0  0
    7.5812   54.8751   24.6770 H   0  0  0  0  0  0
    6.0449   54.6872   22.8251 H   0  0  0  0  0  0
    7.6570   54.0966   29.1099 H   0  0  0  0  0  0
    6.0047   54.6848   28.9372 H   0  0  0  0  0  0
    6.4188   53.0189   28.4790 H   0  0  0  0  0  0
    0.0424   48.2865   20.6711 H   0  0  0  0  0  0
   -1.9081   47.7245   20.4592 H   0  0  0  0  0  0
   -1.5218   48.0333   24.7026 H   0  0  0  0  0  0
   -3.2196   46.1550   27.3099 H   0  0  0  0  0  0
   -1.6958   46.4998   26.5099 H   0  0  0  0  0  0
   -3.0079   47.6920   26.4823 H   0  0  0  0  0  0
   -6.3821   44.4792   23.2062 H   0  0  0  0  0  0
   -5.7488   45.6074   24.4083 H   0  0  0  0  0  0
   -6.0409   46.1499   22.7444 H   0  0  0  0  0  0
   -3.9817   45.4850   18.4973 H   0  0  0  0  0  0
   -2.3538   45.9658   18.9652 H   0  0  0  0  0  0
   -3.6889   47.1406   19.0186 H   0  0  0  0  0  0
    1.6988   52.4967   21.1235 N   0  3  0  0  0  0
    1.4327   53.3289   20.6041 H   0  0  0  0  0  0
  1  2  1  0  0  0
  1 39  1  0  0  0
  1 40  1  0  0  0
  1 41  1  0  0  0
  2  3  1  0  0  0
  2  4  1  0  0  0
  2 24  1  0  0  0
  4  5  1  0  0  0
  4  6  1  0  0  0
  4 72  1  0  0  0
  6 10  1  0  0  0
  6  7  2  0  0  0
  7  8  1  0  0  0
  7 42  1  0  0  0
  8  9  2  0  0  0
  8 43  1  0  0  0
  9 10  1  0  0  0
  9 44  1  0  0  0
 11 12  1  0  0  0
 11 45  1  0  0  0
 11 46  1  0  0  0
 11 72  1  0  0  0
 12 13  1  0  0  0
 12 47  1  0  0  0
 12 48  1  0  0  0
 13 14  1  0  0  0
 13 16  1  0  0  0
 14 15  1  0  0  0
 14 49  1  0  0  0
 14 50  1  0  0  0
 15 51  1  0  0  0
 15 52  1  0  0  0
 15 72  1  0  0  0
 16 21  2  0  0  0
 16 17  1  0  0  0
 17 18  2  0  0  0
 17 53  1  0  0  0
 18 19  1  0  0  0
 18 54  1  0  0  0
 19 20  2  0  0  0
 19 22  1  0  0  0
 20 21  1  0  0  0
 20 55  1  0  0  0
 21 56  1  0  0  0
 22 23  1  0  0  0
 23 57  1  0  0  0
 23 58  1  0  0  0
 23 59  1  0  0  0
 24 25  1  0  0  0
 24 60  1  0  0  0
 25 26  2  0  0  0
 25 27  1  0  0  0
 27 32  2  0  0  0
 27 28  1  0  0  0
 28 29  2  0  0  0
 28 61  1  0  0  0
 29 30  1  0  0  0
 29 37  1  0  0  0
 30 31  2  0  0  0
 30 35  1  0  0  0
 31 32  1  0  0  0
 31 33  1  0  0  0
 32 62  1  0  0  0
 33 34  1  0  0  0
 34 63  1  0  0  0
 34 64  1  0  0  0
 34 65  1  0  0  0
 35 36  1  0  0  0
 36 66  1  0  0  0
 36 67  1  0  0  0
 36 68  1  0  0  0
 37 38  1  0  0  0
 38 69  1  0  0  0
 38 70  1  0  0  0
 38 71  1  0  0  0
 72 73  1  0  0  0
M  CHG  1  72   1
M  END
> <i_i_glide_confnum>
208

> <i_i_glide_lignum>
1072

> <i_i_glide_posenum>
17

> <i_i_glide_rotatable_bonds>
11

> <i_m_Source_File_Index>
6022

> <b_m_subgroup_collapsed>
0

> <r_i_docking_score>
-5.12747

> <r_i_glide_ecoul>
-6.46109

> <r_i_glide_eff_state_penalty>
0

> <r_i_glide_einternal>
12.9141

> <r_i_glide_emodel>
-55.6291

> <r_i_glide_energy>
-45.824

> <r_i_glide_erotb>
0.519624

> <r_i_glide_esite>
-0.0282603

> <r_i_glide_evdw>
-39.3629

> <r_i_glide_gscore>
-5.12747

> <r_i_glide_hbond>
-0.246081

> <r_i_glide_ligand_efficiency>
-0.13858

> <r_i_glide_ligand_efficiency_ln>
-1.11203

> <r_i_glide_ligand_efficiency_sa>
-0.46178

> <r_i_glide_lipo>
-2.1547

> <r_i_glide_metal>
0

> <r_i_glide_rewards>
-0.280747

> <s_i_glide_gridfile>
wee1_glide-grid

> <s_m_Source_File>
wee1_decoys_glide_SP.sdf

> <s_m_Source_Path>
/Users/zhangxujun/Desktop

> <s_m_entry_id>
6297

> <s_m_entry_name>
wee1_decoys_glide_SP.6022

> <s_m_subgroup_title>
wee1_decoys_glide_SP

> <s_m_subgroupid>
wee1_decoys_glide_SP


$$$$
