ZINC12428860_5431
                    3D
 Schrodinger Suite 2024-2.
 70 75  0  0  1  0            999 V2000
   -0.9321   51.5343   19.6106 C   0  0  0  0  0  0
    0.0558   52.1076   18.8097 C   0  0  0  0  0  0
    1.4002   52.0953   19.2121 C   0  0  0  0  0  0
    1.7322   51.4694   20.4241 C   0  0  0  0  0  0
    0.7460   50.8730   21.2150 C   0  0  0  0  0  0
   -0.5905   50.9185   20.8138 C   0  0  0  0  0  0
    1.2064   50.0203   22.7202 S   0  0  0  0  0  0
    0.2769   48.8968   22.8817 O   0  0  0  0  0  0
    2.6564   49.7975   22.6446 O   0  0  0  0  0  0
    0.9196   51.1776   24.0363 N   0  0  0  0  0  0
   -0.2637   51.0566   24.9023 C   0  0  0  0  0  0
    0.1517   51.3398   26.3590 C   0  0  0  0  0  0
    1.9659   52.9928   25.3366 C   0  0  0  0  0  0
    1.4763   52.5295   23.9484 C   0  0  0  0  0  0
    1.3902   53.0932   27.9189 C   0  0  0  0  0  0
    2.1935   54.4411   27.8835 C   0  0  0  0  0  0
    2.6091   54.8673   29.3096 C   0  0  2  0  0  0
    3.5049   53.7473   29.9021 C   0  0  0  0  0  0
    2.7024   52.4258   29.9871 C   0  0  2  0  0  0
    2.2772   51.9854   28.5599 C   0  0  0  0  0  0
    1.4297   52.6318   30.8550 C   0  0  0  0  0  0
    0.5324   53.7342   30.2274 C   0  0  1  0  0  0
    1.3129   55.0688   30.1419 C   0  0  0  0  0  0
    0.1221   53.3073   28.7977 C   0  0  0  0  0  0
    2.4637   52.7005   18.3284 C   0  0  0  0  0  0
    2.3207   52.7106   17.1023 O   0  0  0  0  0  0
    3.5042   53.2618   18.9779 N   0  0  0  0  0  0
    4.6810   53.7910   18.4267 C   0  0  0  0  0  0
    5.2631   53.2972   17.2518 C   0  0  0  0  0  0
    6.4566   53.8376   16.7801 C   0  0  0  0  0  0
    7.0729   54.8790   17.4744 C   0  0  0  0  0  0
    6.5112   55.3858   18.6582 C   0  0  0  0  0  0
    5.3140   54.8201   19.1277 C   0  0  0  0  0  0
    7.1648   56.4961   19.3904 N   0  3  0  0  0  0
    6.7043   56.8442   20.4772 O   0  0  0  0  0  0
    8.1460   57.0308   18.8818 O   0  5  0  0  0  0
   -1.9631   51.5452   19.2856 H   0  0  0  0  0  0
   -0.2271   52.5685   17.8738 H   0  0  0  0  0  0
    2.7661   51.4146   20.7385 H   0  0  0  0  0  0
   -1.3567   50.4563   21.4187 H   0  0  0  0  0  0
   -1.0272   51.7587   24.5685 H   0  0  0  0  0  0
   -0.6667   50.0483   24.8140 H   0  0  0  0  0  0
    0.7622   50.5312   26.7624 H   0  0  0  0  0  0
   -0.7554   51.4332   26.9541 H   0  0  0  0  0  0
    2.9161   52.5374   25.6184 H   0  0  0  0  0  0
    2.0727   54.0751   25.2979 H   0  0  0  0  0  0
    2.3089   52.5020   23.2420 H   0  0  0  0  0  0
    0.7097   53.2101   23.5709 H   0  0  0  0  0  0
    3.0951   54.3639   27.2748 H   0  0  0  0  0  0
    1.5832   55.2368   27.4637 H   0  0  0  0  0  0
    3.1668   55.8041   29.2707 H   0  0  0  0  0  0
    4.3898   53.6053   29.2777 H   0  0  0  0  0  0
    3.9047   54.0219   30.8796 H   0  0  0  0  0  0
    3.3423   51.6659   30.4331 H   0  0  0  0  0  0
    1.7502   51.0330   28.6295 H   0  0  0  0  0  0
    3.1583   51.8095   27.9494 H   0  0  0  0  0  0
    0.8722   51.6973   30.9316 H   0  0  0  0  0  0
    1.6964   52.8963   31.8795 H   0  0  0  0  0  0
   -0.3580   53.8670   30.8425 H   0  0  0  0  0  0
    1.5047   55.4496   31.1449 H   0  0  0  0  0  0
    0.7045   55.8460   29.6799 H   0  0  0  0  0  0
   -0.5058   54.0779   28.3503 H   0  0  0  0  0  0
   -0.4831   52.4049   28.8705 H   0  0  0  0  0  0
    3.4072   53.3582   19.9772 H   0  0  0  0  0  0
    4.8129   52.4720   16.7151 H   0  0  0  0  0  0
    6.9069   53.4424   15.8807 H   0  0  0  0  0  0
    7.9965   55.2862   17.0854 H   0  0  0  0  0  0
    4.8704   55.1913   20.0410 H   0  0  0  0  0  0
    0.9304   52.6931   26.4710 N   0  3  0  0  0  0
    0.1991   53.3475   26.2391 H   0  0  0  0  0  0
  1  6  2  0  0  0
  1  2  1  0  0  0
  1 37  1  0  0  0
  2  3  2  0  0  0
  2 38  1  0  0  0
  3  4  1  0  0  0
  3 25  1  0  0  0
  4  5  2  0  0  0
  4 39  1  0  0  0
  5  6  1  0  0  0
  5  7  1  0  0  0
  6 40  1  0  0  0
  7  8  2  0  0  0
  7  9  2  0  0  0
  7 10  1  0  0  0
 10 14  1  0  0  0
 10 11  1  0  0  0
 11 12  1  0  0  0
 11 41  1  0  0  0
 11 42  1  0  0  0
 12 43  1  0  0  0
 12 44  1  0  0  0
 12 69  1  0  0  0
 13 14  1  0  0  0
 13 45  1  0  0  0
 13 46  1  0  0  0
 13 69  1  0  0  0
 14 47  1  0  0  0
 14 48  1  0  0  0
 15 20  1  0  0  0
 15 24  1  0  0  0
 15 16  1  0  0  0
 15 69  1  0  0  0
 16 17  1  0  0  0
 16 49  1  0  0  0
 16 50  1  0  0  0
 17 23  1  0  0  0
 17 18  1  0  0  0
 17 51  1  0  0  0
 18 19  1  0  0  0
 18 52  1  0  0  0
 18 53  1  0  0  0
 19 20  1  0  0  0
 19 21  1  0  0  0
 19 54  1  0  0  0
 20 55  1  0  0  0
 20 56  1  0  0  0
 21 22  1  0  0  0
 21 57  1  0  0  0
 21 58  1  0  0  0
 22 23  1  0  0  0
 22 24  1  0  0  0
 22 59  1  0  0  0
 23 60  1  0  0  0
 23 61  1  0  0  0
 24 62  1  0  0  0
 24 63  1  0  0  0
 25 26  2  0  0  0
 25 27  1  0  0  0
 27 28  1  0  0  0
 27 64  1  0  0  0
 28 33  2  0  0  0
 28 29  1  0  0  0
 29 30  2  0  0  0
 29 65  1  0  0  0
 30 31  1  0  0  0
 30 66  1  0  0  0
 31 32  2  0  0  0
 31 67  1  0  0  0
 32 33  1  0  0  0
 32 34  1  0  0  0
 33 68  1  0  0  0
 34 35  2  0  0  0
 34 36  1  0  0  0
 69 70  1  0  0  0
M  CHG  3  34   1  36  -1  69   1
M  END
> <i_i_glide_confnum>
59

> <i_i_glide_lignum>
5432

> <i_i_glide_posenum>
399

> <i_i_glide_rotatable_bonds>
7

> <i_m_Source_File_Index>
3609

> <b_m_subgroup_collapsed>
0

> <r_i_docking_score>
-3.79086

> <r_i_glide_ecoul>
0.223519

> <r_i_glide_eff_state_penalty>
0

> <r_i_glide_einternal>
6.65916

> <r_i_glide_emodel>
-51.4369

> <r_i_glide_energy>
-43.6291

> <r_i_glide_erotb>
0.446996

> <r_i_glide_esite>
-0.125513

> <r_i_glide_evdw>
-43.8526

> <r_i_glide_gscore>
-3.79086

> <r_i_glide_hbond>
0

> <r_i_glide_ligand_efficiency>
-0.102456

> <r_i_glide_ligand_efficiency_ln>
-0.82215

> <r_i_glide_ligand_efficiency_sa>
-0.341405

> <r_i_glide_lipo>
-1.9302

> <r_i_glide_metal>
0

> <r_i_glide_rewards>
-0.0230441

> <s_i_glide_gridfile>
wee1_glide-grid

> <s_m_Source_File>
wee1_decoys_glide_SP.sdf

> <s_m_Source_Path>
/Users/zhangxujun/Desktop

> <s_m_entry_id>
3884

> <s_m_entry_name>
wee1_decoys_glide_SP.3609

> <s_m_subgroup_title>
wee1_decoys_glide_SP

> <s_m_subgroupid>
wee1_decoys_glide_SP


$$$$
