@<TRIPOS>MOLECULE
ZINC35239606_2915
74   77    1
SMALL
USER_CHARGES


@<TRIPOS>ATOM
      1 C1         14.6524   61.4675   24.4647 C.3       1 UNK         0.0000 
      2 C2         14.3260   60.6994   23.1757 C.3       1 UNK         0.0000 
      3 C3         14.8537   61.4129   21.9123 C.3       1 UNK         0.0000 
      4 C4         14.5762   60.6837   20.5811 C.3       1 UNK         0.0000 
      5 C5         13.0829   60.5633   20.2300 C.3       1 UNK         0.0000 
      6 C6         12.8243   59.7453   18.9464 C.3       1 UNK         0.0000 
      7 C7         11.3318   59.6737   18.6045 C.2       1 UNK         0.0000 
      8 O8         10.7028   60.7233   18.4814 O.2       1 UNK         0.0000 
      9 N9         10.8044   58.4386   18.4968 N.am      1 UNK         0.0000 
     10 C10         9.4706   58.0633   18.2580 C.ar      1 UNK         0.0000 
     11 C11         8.4674   58.9028   17.7438 C.ar      1 UNK         0.0000 
     12 C12         7.1709   58.4183   17.5678 C.ar      1 UNK         0.0000 
     13 C13         6.8667   57.0937   17.8885 C.ar      1 UNK         0.0000 
     14 C14         7.8558   56.2475   18.4063 C.ar      1 UNK         0.0000 
     15 C15         9.1491   56.7430   18.5758 C.ar      1 UNK         0.0000 
     16 C16         7.5577   54.7936   18.7949 C.3       1 UNK         0.0000 
     17 H17         8.3408   54.4965   19.4953 H         1 UNK         0.0000 
     18 C18         6.2076   54.5850   19.5177 C.2       1 UNK         0.0000 
     19 C19         5.2052   53.8842   18.9184 C.2       1 UNK         0.0000 
     20 N20         5.4395   53.2969   17.6996 N.pl3     1 UNK         0.0000 
     21 C21         6.6216   53.2549   17.0805 C.2       1 UNK         0.0000 
     22 N22         7.6791   53.8704   17.6369 N.pl3     1 UNK         0.0000 
     23 C23         9.0716   53.4770   17.3309 C.3       1 UNK         0.0000 
     24 C24         9.2308   53.0624   15.8537 C.3       1 UNK         0.0000 
     25 C25         8.2836   51.9500   15.3871 C.3       1 UNK         0.0000 
     26 S26         6.5680   52.4975   15.5265 S.3       1 UNK         0.0000 
     27 C27         3.7800   53.6699   19.4147 C.3       1 UNK         0.0000 
     28 C28         6.1425   55.1119   20.8816 C.2       1 UNK         0.0000 
     29 O29         6.7017   56.1619   21.2089 O.2       1 UNK         0.0000 
     30 N30         5.5099   54.3019   21.7595 N.am      1 UNK         0.0000 
     31 C31         5.3827   54.4499   23.1505 C.ar      1 UNK         0.0000 
     32 C32         6.4475   54.8978   23.9456 C.ar      1 UNK         0.0000 
     33 C33         6.2905   55.0122   25.3244 C.ar      1 UNK         0.0000 
     34 C34         5.0805   54.6686   25.9199 C.ar      1 UNK         0.0000 
     35 C35         4.0211   54.2129   25.1370 C.ar      1 UNK         0.0000 
     36 C36         4.1570   54.0968   23.7419 C.ar      1 UNK         0.0000 
     37 O37         3.1438   53.6543   22.9069 O.3       1 UNK         0.0000 
     38 C38         1.8616   53.3653   23.4510 C.3       1 UNK         0.0000 
     39 H39        14.2621   60.9456   25.3393 H         1 UNK         0.0000 
     40 H40        14.2138   62.4661   24.4555 H         1 UNK         0.0000 
     41 H41        15.7299   61.5752   24.5993 H         1 UNK         0.0000 
     42 H42        14.7497   59.6978   23.2458 H         1 UNK         0.0000 
     43 H43        13.2457   60.5721   23.1187 H         1 UNK         0.0000 
     44 H44        14.4309   62.4179   21.8610 H         1 UNK         0.0000 
     45 H45        15.9316   61.5523   22.0097 H         1 UNK         0.0000 
     46 H46        15.0777   61.2282   19.7799 H         1 UNK         0.0000 
     47 H47        15.0400   59.6984   20.5883 H         1 UNK         0.0000 
     48 H48        12.5458   60.0967   21.0550 H         1 UNK         0.0000 
     49 H49        12.6721   61.5695   20.1265 H         1 UNK         0.0000 
     50 H50        13.3344   60.2063   18.1000 H         1 UNK         0.0000 
     51 H51        13.2425   58.7434   19.0533 H         1 UNK         0.0000 
     52 H52        11.4195   57.6654   18.7082 H         1 UNK         0.0000 
     53 H53         8.6632   59.9283   17.4711 H         1 UNK         0.0000 
     54 H54         6.4016   59.0768   17.1836 H         1 UNK         0.0000 
     55 H55         5.8590   56.7317   17.7444 H         1 UNK         0.0000 
     56 H56         9.9046   56.0923   18.9845 H         1 UNK         0.0000 
     57 H57         9.7497   54.2978   17.5603 H         1 UNK         0.0000 
     58 H58         9.3301   52.6506   17.9928 H         1 UNK         0.0000 
     59 H59         9.1005   53.9387   15.2155 H         1 UNK         0.0000 
     60 H60        10.2601   52.7389   15.6918 H         1 UNK         0.0000 
     61 H61         8.4659   51.6661   14.3508 H         1 UNK         0.0000 
     62 H62         8.3903   51.0580   16.0058 H         1 UNK         0.0000 
     63 H63         3.6535   52.6612   19.8134 H         1 UNK         0.0000 
     64 H64         3.5042   54.3878   20.1871 H         1 UNK         0.0000 
     65 H65         3.0568   53.8103   18.6081 H         1 UNK         0.0000 
     66 H66         4.9321   53.5763   21.3612 H         1 UNK         0.0000 
     67 H67         7.3990   55.1560   23.5003 H         1 UNK         0.0000 
     68 H68         7.1041   55.3698   25.9350 H         1 UNK         0.0000 
     69 H69         4.9627   54.7562   26.9899 H         1 UNK         0.0000 
     70 H70         3.0993   53.9508   25.6338 H         1 UNK         0.0000 
     71 H71         1.1902   53.0720   22.6435 H         1 UNK         0.0000 
     72 H72         1.9051   52.5397   24.1625 H         1 UNK         0.0000 
     73 H73         1.4261   54.2391   23.9373 H         1 UNK         0.0000 
     74 H74         4.7079   52.7363   17.2853 H         1 UNK         0.0000 
@<TRIPOS>BOND
     1    1    2 1    
     2    1   39 1    
     3    1   40 1    
     4    1   41 1    
     5    2    3 1    
     6    2   42 1    
     7    2   43 1    
     8    3    4 1    
     9    3   44 1    
    10    3   45 1    
    11    4    5 1    
    12    4   46 1    
    13    4   47 1    
    14    5    6 1    
    15    5   48 1    
    16    5   49 1    
    17    6    7 1    
    18    6   50 1    
    19    6   51 1    
    20    7    8 2    
    21    7    9 am   BACKBONE|DICT|INTERRES
    22    9   10 1    
    23    9   52 1    
    24   10   15 ar   
    25   10   11 ar   
    26   11   12 ar   
    27   11   53 1    
    28   12   13 ar   
    29   12   54 1    
    30   13   14 ar   
    31   13   55 1    
    32   14   15 ar   
    33   14   16 1    
    34   15   56 1    
    35   16   17 1    
    36   16   22 1    
    37   16   18 1    
    38   18   19 2    
    39   18   28 1    
    40   19   20 1    
    41   19   27 1    
    42   20   21 2    
    43   20   74 1    
    44   21   26 1    
    45   21   22 1    
    46   22   23 1    
    47   23   24 1    
    48   23   57 1    
    49   23   58 1    
    50   24   25 1    
    51   24   59 1    
    52   24   60 1    
    53   25   26 1    
    54   25   61 1    
    55   25   62 1    
    56   27   63 1    
    57   27   64 1    
    58   27   65 1    
    59   28   29 2    
    60   28   30 am   BACKBONE|DICT|INTERRES
    61   30   31 1    
    62   30   66 1    
    63   31   36 ar   
    64   31   32 ar   
    65   32   33 ar   
    66   32   67 1    
    67   33   34 ar   
    68   33   68 1    
    69   34   35 ar   
    70   34   69 1    
    71   35   36 ar   
    72   35   70 1    
    73   36   37 1    
    74   37   38 1    
    75   38   71 1    
    76   38   72 1    
    77   38   73 1    
@<TRIPOS>SUBSTRUCTURE
     1 UNK         1 GROUP             0       ****    0 ROOT    
