@<TRIPOS>MOLECULE
ZINC39836511_1048
72   75    1
SMALL
USER_CHARGES


@<TRIPOS>ATOM
      1 C1          8.2964   58.6066   18.0762 C.3       1 UNK         0.0000 
      2 C2          7.0747   57.7086   18.1234 C.ar      1 UNK         0.0000 
      3 C3          5.9021   58.0961   17.4716 C.ar      1 UNK         0.0000 
      4 C4          4.7734   57.2750   17.5080 C.ar      1 UNK         0.0000 
      5 C5          4.8165   56.0659   18.2130 C.ar      1 UNK         0.0000 
      6 C6          5.9875   55.6661   18.8812 C.ar      1 UNK         0.0000 
      7 C7          7.1112   56.4946   18.8188 C.ar      1 UNK         0.0000 
      8 O8          6.1516   54.4878   19.5852 O.3       1 UNK         0.0000 
      9 C9          5.0357   53.6967   20.0150 C.3       1 UNK         0.0000 
     10 C10         4.7775   53.9193   21.5159 C.2       1 UNK         0.0000 
     11 O11         5.6193   54.4984   22.2032 O.2       1 UNK         0.0000 
     12 N12         3.6125   53.4221   21.9821 N.am      1 UNK         0.0000 
     13 C13         3.0879   53.4433   23.2830 C.2       1 UNK         0.0000 
     14 C14         1.9158   52.7817   23.7270 C.2       1 UNK         0.0000 
     15 C15         1.7469   52.9027   25.1422 C.2       1 UNK         0.0000 
     16 C16         2.7374   53.6972   25.7369 C.2       1 UNK         0.0000 
     17 S17         3.8867   54.2748   24.5925 S.3       1 UNK         0.0000 
     18 C18         2.8787   53.9862   27.2263 C.3       1 UNK         0.0000 
     19 C19         1.5478   53.6570   27.9633 C.3       1 UNK         0.0000 
     20 H20         0.8070   54.3980   27.6626 H         1 UNK         0.0000 
     21 C21         1.0716   52.2566   27.4956 C.3       1 UNK         0.0000 
     22 C22         0.6515   52.2599   26.0111 C.3       1 UNK         0.0000 
     23 C23         1.6634   53.8398   29.5257 C.3       1 UNK         0.0000 
     24 C24         2.6942   52.8716   30.1604 C.3       1 UNK         0.0000 
     25 C25         0.2961   53.5797   30.2049 C.3       1 UNK         0.0000 
     26 C26         2.0679   55.3050   29.8426 C.3       1 UNK         0.0000 
     27 C27         1.0748   51.9429   22.8830 C.2       1 UNK         0.0000 
     28 O28         0.5232   50.9300   23.3134 O.2       1 UNK         0.0000 
     29 N29         0.9676   52.3280   21.5960 N.am      1 UNK         0.0000 
     30 C30         0.2894   51.5561   20.5578 C.3       1 UNK         0.0000 
     31 H31         0.6796   50.5376   20.4821 H         1 UNK         0.0000 
     32 C32         0.5348   52.2259   19.1873 C.3       1 UNK         0.0000 
     33 C33        -0.4047   51.6045   18.1492 C.3       1 UNK         0.0000 
     34 S34        -2.0036   51.3540   19.0813 S.o2      1 UNK         0.0000 
     35 O35        -2.4864   49.9905   18.8605 O.2       1 UNK         0.0000 
     36 O36        -2.8965   52.4971   18.8818 O.2       1 UNK         0.0000 
     37 C37        -1.2340   51.5075   20.7790 C.3       1 UNK         0.0000 
     38 C38         3.5187   57.6917   16.7671 C.3       1 UNK         0.0000 
     39 H39         7.9980   59.6508   18.1917 H         1 UNK         0.0000 
     40 H40         9.0018   58.3791   18.8814 H         1 UNK         0.0000 
     41 H41         8.8078   58.5019   17.1167 H         1 UNK         0.0000 
     42 H42         5.8694   59.0385   16.9379 H         1 UNK         0.0000 
     43 H43         3.9311   55.4546   18.2105 H         1 UNK         0.0000 
     44 H44         8.0233   56.1848   19.3180 H         1 UNK         0.0000 
     45 H45         5.3322   52.6553   19.8721 H         1 UNK         0.0000 
     46 H46         4.1222   53.8224   19.4360 H         1 UNK         0.0000 
     47 H47         3.0598   52.9049   21.3149 H         1 UNK         0.0000 
     48 H48         3.6884   53.3700   27.6162 H         1 UNK         0.0000 
     49 H49         3.1620   55.0273   27.3749 H         1 UNK         0.0000 
     50 H50         1.8173   51.4904   27.7151 H         1 UNK         0.0000 
     51 H51         0.1933   51.9478   28.0632 H         1 UNK         0.0000 
     52 H52        -0.2773   52.8203   25.8892 H         1 UNK         0.0000 
     53 H53         0.4386   51.2311   25.7255 H         1 UNK         0.0000 
     54 H54         3.7176   53.1095   29.8713 H         1 UNK         0.0000 
     55 H55         2.6578   52.8958   31.2498 H         1 UNK         0.0000 
     56 H56         2.5046   51.8360   29.8748 H         1 UNK         0.0000 
     57 H57        -0.5003   54.1340   29.7096 H         1 UNK         0.0000 
     58 H58         0.0131   52.5260   30.1960 H         1 UNK         0.0000 
     59 H59         0.2971   53.8800   31.2541 H         1 UNK         0.0000 
     60 H60         1.4925   56.0157   29.2484 H         1 UNK         0.0000 
     61 H61         1.9040   55.5711   30.8835 H         1 UNK         0.0000 
     62 H62         3.1218   55.4894   29.6365 H         1 UNK         0.0000 
     63 H63         1.2640   53.2622   21.3485 H         1 UNK         0.0000 
     64 H64         1.5813   52.1426   18.8875 H         1 UNK         0.0000 
     65 H65         0.3449   53.2968   19.2543 H         1 UNK         0.0000 
     66 H66        -0.0225   50.6150   17.9031 H         1 UNK         0.0000 
     67 H67        -0.5737   52.1374   17.2177 H         1 UNK         0.0000 
     68 H68        -1.5545   52.4938   21.1117 H         1 UNK         0.0000 
     69 H69        -1.6267   50.7717   21.4805 H         1 UNK         0.0000 
     70 H70         3.0109   58.5062   17.2864 H         1 UNK         0.0000 
     71 H71         3.7782   58.0551   15.7724 H         1 UNK         0.0000 
     72 H72         2.8255   56.8596   16.6330 H         1 UNK         0.0000 
@<TRIPOS>BOND
     1    1    2 1    
     2    1   39 1    
     3    1   40 1    
     4    1   41 1    
     5    2    7 ar   
     6    2    3 ar   
     7    3    4 ar   
     8    3   42 1    
     9    4    5 ar   
    10    4   38 1    
    11    5    6 ar   
    12    5   43 1    
    13    6    7 ar   
    14    6    8 1    
    15    7   44 1    
    16    8    9 1    
    17    9   10 1    
    18    9   45 1    
    19    9   46 1    
    20   10   11 2    
    21   10   12 am   BACKBONE|DICT|INTERRES
    22   12   13 am   BACKBONE|DICT|INTERRES
    23   12   47 1    
    24   13   17 1    
    25   13   14 2    
    26   14   15 1    
    27   14   27 1    
    28   15   22 1    
    29   15   16 2    
    30   16   17 1    
    31   16   18 1    
    32   18   19 1    
    33   18   48 1    
    34   18   49 1    
    35   19   20 1    
    36   19   21 1    
    37   19   23 1    
    38   21   22 1    
    39   21   50 1    
    40   21   51 1    
    41   22   52 1    
    42   22   53 1    
    43   23   24 1    
    44   23   25 1    
    45   23   26 1    
    46   24   54 1    
    47   24   55 1    
    48   24   56 1    
    49   25   57 1    
    50   25   58 1    
    51   25   59 1    
    52   26   60 1    
    53   26   61 1    
    54   26   62 1    
    55   27   28 2    
    56   27   29 am   BACKBONE|DICT|INTERRES
    57   29   30 1    
    58   29   63 1    
    59   30   31 1    
    60   30   37 1    
    61   30   32 1    
    62   32   33 1    
    63   32   64 1    
    64   32   65 1    
    65   33   34 1    
    66   33   66 1    
    67   33   67 1    
    68   34   35 2    
    69   34   36 2    
    70   34   37 1    
    71   37   68 1    
    72   37   69 1    
    73   38   70 1    
    74   38   71 1    
    75   38   72 1    
@<TRIPOS>SUBSTRUCTURE
     1 UNK         1 GROUP             0       ****    0 ROOT    
