@<TRIPOS>MOLECULE
ZINC39676573_5549
73   77    1
SMALL
USER_CHARGES


@<TRIPOS>ATOM
      1 C1          0.6458   52.8865   31.9493 C.3       1 UNK         0.0000 
      2 O2          1.4102   53.2345   30.7976 O.3       1 UNK         0.0000 
      3 C3          0.9644   52.8304   29.5546 C.ar      1 UNK         0.0000 
      4 C4         -0.1965   52.0729   29.3421 C.ar      1 UNK         0.0000 
      5 C5         -0.5600   51.6960   28.0539 C.ar      1 UNK         0.0000 
      6 C6          0.2129   52.0637   26.9433 C.ar      1 UNK         0.0000 
      7 C7          1.3723   52.8249   27.1675 C.ar      1 UNK         0.0000 
      8 C8          1.7386   53.2011   28.4584 C.ar      1 UNK         0.0000 
      9 C9         -0.2213   51.6262   25.5224 C.3       1 UNK         0.0000 
     10 C10        -1.7454   51.7104   25.2936 C.ar      1 UNK         0.0000 
     11 C11        -2.5531   50.6070   25.5828 C.ar      1 UNK         0.0000 
     12 C12        -3.9269   50.6613   25.3529 C.ar      1 UNK         0.0000 
     13 C13        -4.5070   51.8171   24.8087 C.ar      1 UNK         0.0000 
     14 C14        -3.6940   52.9045   24.4973 C.ar      1 UNK         0.0000 
     15 C15        -2.3242   52.8517   24.7294 C.ar      1 UNK         0.0000 
     16 O16        -5.8544   51.9649   24.5419 O.3       1 UNK         0.0000 
     17 C17        -6.7418   50.8926   24.8396 C.3       1 UNK         0.0000 
     18 N18         0.5819   52.2477   24.4522 N.am      1 UNK         0.0000 
     19 C19         0.5128   52.0268   23.1226 C.2       1 UNK         0.0000 
     20 O20        -0.3255   51.2728   22.6272 O.2       1 UNK         0.0000 
     21 C21         1.4930   52.8008   22.1950 C.3       1 UNK         0.0000 
     22 H22         0.9614   53.6978   21.8972 H         1 UNK         0.0000 
     23 C23         2.7345   53.2637   22.9822 C.3       1 UNK         0.0000 
     24 N24         3.7629   53.4479   21.9591 N.am      1 UNK         0.0000 
     25 C25         3.3390   52.8833   20.6712 C.3       1 UNK         0.0000 
     26 C26         2.0289   52.0796   20.9257 C.3       1 UNK         0.0000 
     27 C27         2.3099   50.5604   21.1439 C.3       1 UNK         0.0000 
     28 C28         2.9572   49.9041   19.9096 C.3       1 UNK         0.0000 
     29 N29         2.1187   50.1520   18.6345 N.4       1 UNK         0.0000 
     30 C30         1.6887   51.6237   18.4323 C.3       1 UNK         0.0000 
     31 C31         1.0298   52.1153   19.7379 C.3       1 UNK         0.0000 
     32 C32         4.8868   54.1669   22.2557 C.2       1 UNK         0.0000 
     33 O33         5.1316   54.4721   23.4278 O.2       1 UNK         0.0000 
     34 C34         5.8554   54.6589   21.1812 C.ar      1 UNK         0.0000 
     35 C35         7.0546   55.2968   21.5579 C.ar      1 UNK         0.0000 
     36 C36         7.9626   55.6967   20.5757 C.ar      1 UNK         0.0000 
     37 C37         7.6544   55.4920   19.2337 C.ar      1 UNK         0.0000 
     38 C38         6.4404   54.8876   18.9160 C.ar      1 UNK         0.0000 
     39 N39         5.5575   54.4791   19.8614 N.ar      1 UNK         0.0000 
     40 H40         1.1033   53.2912   32.8481 H         1 UNK         0.0000 
     41 H41         0.5901   51.8047   32.0779 H         1 UNK         0.0000 
     42 H42        -0.3630   53.2967   31.8944 H         1 UNK         0.0000 
     43 H43        -0.8188   51.7487   30.1655 H         1 UNK         0.0000 
     44 H44        -1.4447   51.0860   27.9409 H         1 UNK         0.0000 
     45 H45         2.0174   53.1270   26.3585 H         1 UNK         0.0000 
     46 H46         2.6370   53.7795   28.6118 H         1 UNK         0.0000 
     47 H47         0.0455   50.5669   25.4832 H         1 UNK         0.0000 
     48 H48        -2.1235   49.7080   26.0043 H         1 UNK         0.0000 
     49 H49        -4.5206   49.7950   25.5994 H         1 UNK         0.0000 
     50 H50        -4.1287   53.7974   24.0721 H         1 UNK         0.0000 
     51 H51        -1.7076   53.6963   24.4607 H         1 UNK         0.0000 
     52 H52        -7.7559   51.1782   24.5592 H         1 UNK         0.0000 
     53 H53        -6.4888   49.9912   24.2804 H         1 UNK         0.0000 
     54 H54        -6.7472   50.6667   25.9078 H         1 UNK         0.0000 
     55 H55         1.3395   52.8276   24.7782 H         1 UNK         0.0000 
     56 H56         2.5144   54.1852   23.5214 H         1 UNK         0.0000 
     57 H57         3.1041   52.4940   23.6520 H         1 UNK         0.0000 
     58 H58         4.1105   52.3432   20.1212 H         1 UNK         0.0000 
     59 H59         3.0811   53.7407   20.0512 H         1 UNK         0.0000 
     60 H60         2.9929   50.4366   21.9845 H         1 UNK         0.0000 
     61 H61         1.4157   50.0011   21.4171 H         1 UNK         0.0000 
     62 H62         3.9142   50.3385   19.6817 H         1 UNK         0.0000 
     63 H63         3.0637   48.8228   19.9970 H         1 UNK         0.0000 
     64 H64         2.6633   49.8411   17.8297 H         1 UNK         0.0000 
     65 H65         2.5917   52.1734   18.1586 H         1 UNK         0.0000 
     66 H66         1.0039   51.6276   17.5842 H         1 UNK         0.0000 
     67 H67         0.1112   51.5728   19.9638 H         1 UNK         0.0000 
     68 H68         0.7138   53.1439   19.5580 H         1 UNK         0.0000 
     69 H69         7.3121   55.4481   22.5986 H         1 UNK         0.0000 
     70 H70         8.9078   56.1439   20.8533 H         1 UNK         0.0000 
     71 H71         8.3445   55.7901   18.4572 H         1 UNK         0.0000 
     72 H72         6.1623   54.7112   17.8886 H         1 UNK         0.0000 
     73 H73         1.2931   49.5702   18.6667 H         1 UNK         0.0000 
@<TRIPOS>BOND
     1    1    2 1    
     2    1   40 1    
     3    1   41 1    
     4    1   42 1    
     5    2    3 1    
     6    3    8 ar   
     7    3    4 ar   
     8    4    5 ar   
     9    4   43 1    
    10    5    6 ar   
    11    5   44 1    
    12    6    7 ar   
    13    6    9 1    
    14    7    8 ar   
    15    7   45 1    
    16    8   46 1    
    17    9   10 1    
    18    9   18 1    
    19    9   47 1    
    20   10   15 ar   
    21   10   11 ar   
    22   11   12 ar   
    23   11   48 1    
    24   12   13 ar   
    25   12   49 1    
    26   13   14 ar   
    27   13   16 1    
    28   14   15 ar   
    29   14   50 1    
    30   15   51 1    
    31   16   17 1    
    32   17   52 1    
    33   17   53 1    
    34   17   54 1    
    35   18   19 am   BACKBONE|DICT|INTERRES
    36   18   55 1    
    37   19   20 2    
    38   19   21 1    
    39   21   22 1    
    40   21   26 1    
    41   21   23 1    
    42   23   24 1    
    43   23   56 1    
    44   23   57 1    
    45   24   25 1    
    46   24   32 am   BACKBONE|DICT|INTERRES
    47   25   26 1    
    48   25   58 1    
    49   25   59 1    
    50   26   31 1    
    51   26   27 1    
    52   27   28 1    
    53   27   60 1    
    54   27   61 1    
    55   28   29 1    
    56   28   62 1    
    57   28   63 1    
    58   29   30 1    
    59   29   64 1    
    60   29   73 1    
    61   30   31 1    
    62   30   65 1    
    63   30   66 1    
    64   31   67 1    
    65   31   68 1    
    66   32   33 2    
    67   32   34 1    
    68   34   39 ar   
    69   34   35 ar   
    70   35   36 ar   
    71   35   69 1    
    72   36   37 ar   
    73   36   70 1    
    74   37   38 ar   
    75   37   71 1    
    76   38   39 ar   
    77   38   72 1    
@<TRIPOS>SUBSTRUCTURE
     1 UNK         1 GROUP             0       ****    0 ROOT    
