@<TRIPOS>MOLECULE
ZINC36064999_5809
56   59    1
SMALL
USER_CHARGES


@<TRIPOS>ATOM
      1 C1          3.4977   54.6040   25.0769 C.3       1 UNK         0.0000 
      2 C2          2.4819   53.4903   24.8444 C.2       1 UNK         0.0000 
      3 C3          1.6632   52.8943   25.7682 C.2       1 UNK         0.0000 
      4 C4          0.7716   51.6790   25.3449 C.3       1 UNK         0.0000 
      5 H5          1.0869   50.8284   25.9539 H         1 UNK         0.0000 
      6 N6          1.1018   51.2632   23.9492 N.pl3     1 UNK         0.0000 
      7 C7          0.6393   50.1160   23.3177 C.2       1 UNK         0.0000 
      8 C8          0.9348   50.1149   22.0033 C.2       1 UNK         0.0000 
      9 S9          1.8486   51.5258   21.4788 S.3       1 UNK         0.0000 
     10 C10         1.8696   52.1097   23.1518 C.2       1 UNK         0.0000 
     11 N11         2.4711   53.1714   23.5189 N.2       1 UNK         0.0000 
     12 C12        -0.1477   49.0690   23.9560 C.2       1 UNK         0.0000 
     13 C13        -1.2427   48.4813   23.4366 C.2       1 UNK         0.0000 
     14 O14        -1.8249   48.6920   22.3068 O.co2     1 UNK         0.0000 
     15 N15        -1.9027   47.5072   24.1579 N.pl3     1 UNK         0.0000 
     16 C16        -3.2282   46.9112   23.9596 C.3       1 UNK         0.0000 
     17 C17        -3.2841   45.8286   22.8982 C.2       1 UNK         0.0000 
     18 C18        -2.4334   45.3949   21.8904 C.2       1 UNK         0.0000 
     19 C19        -3.0651   44.3361   21.2368 C.2       1 UNK         0.0000 
     20 C20        -4.2863   44.1739   21.8655 C.2       1 UNK         0.0000 
     21 O21        -4.4177   45.0777   22.8695 O.3       1 UNK         0.0000 
     22 C22        -0.7406   51.8215   25.5862 C.ar      1 UNK         0.0000 
     23 C23        -1.3260   51.1514   26.6677 C.ar      1 UNK         0.0000 
     24 C24        -2.6974   51.2426   26.9010 C.ar      1 UNK         0.0000 
     25 C25        -3.5024   51.9988   26.0508 C.ar      1 UNK         0.0000 
     26 C26        -2.9338   52.6591   24.9631 C.ar      1 UNK         0.0000 
     27 C27        -1.5600   52.5745   24.7323 C.ar      1 UNK         0.0000 
     28 F28        -1.0345   53.2432   23.6818 F         1 UNK         0.0000 
     29 C29         1.7579   53.1377   27.2200 C.2       1 UNK         0.0000 
     30 O30         0.7912   53.0372   27.9780 O.2       1 UNK         0.0000 
     31 O31         3.0188   53.3924   27.6498 O.3       1 UNK         0.0000 
     32 C32         3.3306   53.5991   29.0256 C.3       1 UNK         0.0000 
     33 C33         3.4602   52.2533   29.7642 C.3       1 UNK         0.0000 
     34 C34         4.6421   54.3958   29.0653 C.3       1 UNK         0.0000 
     35 H35         4.4968   54.1744   25.1747 H         1 UNK         0.0000 
     36 H36         3.5120   55.2962   24.2331 H         1 UNK         0.0000 
     37 H37         3.2884   55.1929   25.9678 H         1 UNK         0.0000 
     38 H38         0.6564   49.3525   21.2926 H         1 UNK         0.0000 
     39 H39         0.1813   48.7457   24.9352 H         1 UNK         0.0000 
     40 H40        -1.3645   47.0450   24.8745 H         1 UNK         0.0000 
     41 H41        -3.9211   47.7127   23.6973 H         1 UNK         0.0000 
     42 H42        -3.5669   46.5248   24.9199 H         1 UNK         0.0000 
     43 H43        -1.4632   45.8150   21.6615 H         1 UNK         0.0000 
     44 H44        -2.6857   43.7696   20.3998 H         1 UNK         0.0000 
     45 H45        -5.1192   43.5019   21.7181 H         1 UNK         0.0000 
     46 H46        -0.7268   50.5449   27.3338 H         1 UNK         0.0000 
     47 H47        -3.1300   50.7117   27.7382 H         1 UNK         0.0000 
     48 H48        -4.5652   52.0675   26.2283 H         1 UNK         0.0000 
     49 H49        -3.5526   53.2425   24.2994 H         1 UNK         0.0000 
     50 H50         2.5493   54.2011   29.4917 H         1 UNK         0.0000 
     51 H51         3.7302   52.4036   30.8096 H         1 UNK         0.0000 
     52 H52         2.5227   51.6977   29.7396 H         1 UNK         0.0000 
     53 H53         4.2312   51.6306   29.3067 H         1 UNK         0.0000 
     54 H54         4.8891   54.7068   30.0800 H         1 UNK         0.0000 
     55 H55         5.4779   53.8117   28.6754 H         1 UNK         0.0000 
     56 H56         4.5639   55.2958   28.4595 H         1 UNK         0.0000 
@<TRIPOS>BOND
     1    1    2 1    
     2    1   35 1    
     3    1   36 1    
     4    1   37 1    
     5    2   11 1    
     6    2    3 2    
     7    3    4 1    
     8    3   29 1    
     9    4    5 1    
    10    4    6 1    
    11    4   22 1    
    12    6   10 1    
    13    6    7 1    
    14    7    8 2    
    15    7   12 1    
    16    8    9 1    
    17    8   38 1    
    18    9   10 1    
    19   10   11 2    
    20   12   13 2    
    21   12   39 1    
    22   13   14 1    
    23   13   15 1    
    24   15   16 1    
    25   15   40 1    
    26   16   17 1    
    27   16   41 1    
    28   16   42 1    
    29   17   21 1    
    30   17   18 2    
    31   18   19 1    
    32   18   43 1    
    33   19   20 2    
    34   19   44 1    
    35   20   21 1    
    36   20   45 1    
    37   22   27 ar   
    38   22   23 ar   
    39   23   24 ar   
    40   23   46 1    
    41   24   25 ar   
    42   24   47 1    
    43   25   26 ar   
    44   25   48 1    
    45   26   27 ar   
    46   26   49 1    
    47   27   28 1    
    48   29   30 2    
    49   29   31 1    
    50   31   32 1    
    51   32   33 1    
    52   32   34 1    
    53   32   50 1    
    54   33   51 1    
    55   33   52 1    
    56   33   53 1    
    57   34   54 1    
    58   34   55 1    
    59   34   56 1    
@<TRIPOS>SUBSTRUCTURE
     1 UNK         1 GROUP             0       ****    0 ROOT    
