ZINC12420623_6124
                    3D
 Schrodinger Suite 2024-2.
 66 71  0  0  1  0            999 V2000
    6.7144   55.1678   13.2704 C   0  0  0  0  0  0
    6.5048   56.0531   14.3656 O   0  0  0  0  0  0
    6.2686   55.5280   15.6209 C   0  0  0  0  0  0
    6.0813   56.4504   16.6506 C   0  0  0  0  0  0
    5.8355   56.0176   17.9510 C   0  0  0  0  0  0
    5.7758   54.6499   18.2358 C   0  0  0  0  0  0
    5.9535   53.7202   17.2083 C   0  0  0  0  0  0
    6.2021   54.1554   15.9088 C   0  0  0  0  0  0
    5.4848   54.1558   19.6509 C   0  0  2  0  0  0
    5.8714   53.1343   19.6800 H   0  0  0  0  0  0
    3.9625   54.1277   19.9198 C   0  0  0  0  0  0
    3.5663   53.6182   21.3350 C   0  0  2  0  0  0
    2.6225   54.0786   21.6267 H   0  0  0  0  0  0
    4.5756   54.0963   22.2998 N   0  0  0  0  0  0
    5.8129   54.6332   22.0007 C   0  0  0  0  0  0
    6.4030   54.8964   23.2200 C   0  0  0  0  0  0
    5.4946   54.4874   24.2115 C   0  0  0  0  0  0
    4.3952   54.0205   23.6343 N   0  0  0  0  0  0
    5.7187   54.6159   25.6439 C   0  0  0  0  0  0
    6.6620   55.2712   26.0927 O   0  0  0  0  0  0
    4.8152   53.9778   26.4148 N   0  0  0  0  0  0
    4.7454   53.9619   27.8826 C   0  0  0  0  0  0
    3.2986   53.7258   28.4243 C   0  0  0  0  0  0
    2.7059   52.3897   27.8868 C   0  0  0  0  0  0
    1.2648   52.1377   28.3837 C   0  0  1  0  0  0
    1.2643   52.0961   29.9230 C   0  0  0  0  0  0
    1.8058   53.4206   30.4888 C   0  0  1  0  0  0
    3.2635   53.6562   29.9840 C   0  0  0  0  0  0
    0.9006   54.5891   30.0157 C   0  0  0  0  0  0
    0.9075   54.6324   28.4624 C   0  0  2  0  0  0
    0.3656   53.2916   27.9012 C   0  0  0  0  0  0
    2.3521   54.8645   27.9673 C   0  0  0  0  0  0
    6.1944   54.8966   20.7011 N   0  0  0  0  0  0
    3.3292   52.0867   21.3694 C   0  0  0  0  0  0
    2.5507   51.6829   20.3648 F   0  0  0  0  0  0
    4.4695   51.4024   21.2814 F   0  0  0  0  0  0
    2.7043   51.7158   22.4832 F   0  0  0  0  0  0
    6.8819   55.7499   12.3650 H   0  0  0  0  0  0
    7.5916   54.5394   13.4270 H   0  0  0  0  0  0
    5.8441   54.5323   13.0968 H   0  0  0  0  0  0
    6.1225   57.5077   16.4359 H   0  0  0  0  0  0
    5.6846   56.7492   18.7331 H   0  0  0  0  0  0
    5.8956   52.6584   17.4102 H   0  0  0  0  0  0
    6.3365   53.4117   15.1374 H   0  0  0  0  0  0
    3.4783   53.5214   19.1525 H   0  0  0  0  0  0
    3.5188   55.1080   19.7399 H   0  0  0  0  0  0
    7.3749   55.3450   23.3802 H   0  0  0  0  0  0
    4.1766   53.3572   25.9422 H   0  0  0  0  0  0
    5.1405   54.8952   28.2871 H   0  0  0  0  0  0
    5.4090   53.1710   28.2398 H   0  0  0  0  0  0
    3.3393   51.5850   28.2346 H   0  0  0  0  0  0
    2.7063   52.3719   26.7982 H   0  0  0  0  0  0
    0.8974   51.1887   27.9911 H   0  0  0  0  0  0
    0.2631   51.8901   30.3041 H   0  0  0  0  0  0
    1.9044   51.2967   30.2753 H   0  0  0  0  0  0
    1.7779   53.2966   31.5704 H   0  0  0  0  0  0
    3.6708   54.5739   30.4052 H   0  0  0  0  0  0
    3.9121   52.8545   30.3397 H   0  0  0  0  0  0
    1.2498   55.5366   30.4277 H   0  0  0  0  0  0
   -0.1161   54.4541   30.3875 H   0  0  0  0  0  0
    0.3044   55.4515   28.0820 H   0  0  0  0  0  0
   -0.6648   53.1262   28.2193 H   0  0  0  0  0  0
    0.3475   53.2967   26.8114 H   0  0  0  0  0  0
    2.3539   54.8967   26.8816 H   0  0  0  0  0  0
    2.7058   55.8341   28.3174 H   0  0  0  0  0  0
    7.1842   54.9012   20.5073 H   0  0  0  0  0  0
  1  2  1  0  0  0
  1 38  1  0  0  0
  1 39  1  0  0  0
  1 40  1  0  0  0
  2  3  1  0  0  0
  3  8  2  0  0  0
  3  4  1  0  0  0
  4  5  2  0  0  0
  4 41  1  0  0  0
  5  6  1  0  0  0
  5 42  1  0  0  0
  6  7  2  0  0  0
  6  9  1  0  0  0
  7  8  1  0  0  0
  7 43  1  0  0  0
  8 44  1  0  0  0
  9 10  1  0  0  0
  9 33  1  0  0  0
  9 11  1  0  0  0
 11 12  1  0  0  0
 11 45  1  0  0  0
 11 46  1  0  0  0
 12 13  1  0  0  0
 12 14  1  0  0  0
 12 34  1  0  0  0
 14 18  1  0  0  0
 14 15  1  0  0  0
 15 16  2  0  0  0
 15 33  1  0  0  0
 16 17  1  0  0  0
 16 47  1  0  0  0
 17 18  2  0  0  0
 17 19  1  0  0  0
 19 20  2  0  0  0
 19 21  1  0  0  0
 21 22  1  0  0  0
 21 48  1  0  0  0
 22 23  1  0  0  0
 22 49  1  0  0  0
 22 50  1  0  0  0
 23 28  1  0  0  0
 23 32  1  0  0  0
 23 24  1  0  0  0
 24 25  1  0  0  0
 24 51  1  0  0  0
 24 52  1  0  0  0
 25 31  1  0  0  0
 25 26  1  0  0  0
 25 53  1  0  0  0
 26 27  1  0  0  0
 26 54  1  0  0  0
 26 55  1  0  0  0
 27 28  1  0  0  0
 27 29  1  0  0  0
 27 56  1  0  0  0
 28 57  1  0  0  0
 28 58  1  0  0  0
 29 30  1  0  0  0
 29 59  1  0  0  0
 29 60  1  0  0  0
 30 31  1  0  0  0
 30 32  1  0  0  0
 30 61  1  0  0  0
 31 62  1  0  0  0
 31 63  1  0  0  0
 32 64  1  0  0  0
 32 65  1  0  0  0
 33 66  1  0  0  0
 34 35  1  0  0  0
 34 36  1  0  0  0
 34 37  1  0  0  0
M  END
> <i_i_glide_confnum>
10

> <i_i_glide_lignum>
6125

> <i_i_glide_posenum>
97

> <i_i_glide_rotatable_bonds>
7

> <i_m_Source_File_Index>
5361

> <b_m_subgroup_collapsed>
0

> <r_i_docking_score>
-5.94743

> <r_i_glide_ecoul>
-5.21734

> <r_i_glide_eff_state_penalty>
0

> <r_i_glide_einternal>
5.13465

> <r_i_glide_emodel>
-53.9408

> <r_i_glide_energy>
-41.8562

> <r_i_glide_erotb>
0.340833

> <r_i_glide_esite>
-0.0153425

> <r_i_glide_evdw>
-36.6389

> <r_i_glide_gscore>
-5.94743

> <r_i_glide_hbond>
-0.32

> <r_i_glide_ligand_efficiency>
-0.169927

> <r_i_glide_ligand_efficiency_ln>
-1.30559

> <r_i_glide_ligand_efficiency_sa>
-0.555841

> <r_i_glide_lipo>
-2.46019

> <r_i_glide_metal>
0

> <r_i_glide_rewards>
-0.878183

> <s_i_glide_gridfile>
wee1_glide-grid

> <s_m_Source_File>
wee1_decoys_glide_SP.sdf

> <s_m_Source_Path>
/Users/zhangxujun/Desktop

> <s_m_entry_id>
5636

> <s_m_entry_name>
wee1_decoys_glide_SP.5361

> <s_m_subgroup_title>
wee1_decoys_glide_SP

> <s_m_subgroupid>
wee1_decoys_glide_SP


$$$$
