ZINC16474294_5585
                    3D
 Schrodinger Suite 2024-2.
 60 63  0  0  1  0            999 V2000
    2.2352   50.2014   19.1572 C   0  0  0  0  0  0
    2.4255   51.1366   20.3382 C   0  0  0  0  0  0
    3.6279   51.8237   20.4855 C   0  0  0  0  0  0
    3.8249   52.6625   21.5795 C   0  0  0  0  0  0
    2.8203   52.8348   22.5484 C   0  0  0  0  0  0
    1.6042   52.1496   22.3892 C   0  0  0  0  0  0
    1.4162   51.3059   21.2875 C   0  0  0  0  0  0
    0.2701   52.3127   23.5901 S   0  0  0  0  0  0
   -0.9468   51.7699   22.9743 O   0  0  0  0  0  0
    0.2595   53.6966   24.0759 O   0  0  0  0  0  0
    0.6916   51.2415   24.9766 N   0  0  0  0  0  0
    1.0104   49.8320   24.7807 C   0  0  0  0  0  0
   -0.0924   49.0067   24.1084 C   0  0  0  0  0  0
   -0.1046   48.8992   22.8823 O   0  0  0  0  0  0
   -0.9825   48.4339   24.9443 N   0  0  0  0  0  0
   -2.1049   47.6534   24.6343 C   0  0  0  0  0  0
   -2.7358   47.6297   23.3674 C   0  0  0  0  0  0
   -3.8572   46.8206   23.1392 C   0  0  0  0  0  0
   -4.3309   46.0638   24.2035 C   0  0  0  0  0  0
   -3.7348   46.0965   25.4324 C   0  0  0  0  0  0
   -2.6172   46.8801   25.6864 C   0  0  0  0  0  0
   -4.3619   45.2173   26.2567 O   0  0  0  0  0  0
   -5.5273   44.8384   25.5770 C   0  0  0  0  0  0
   -5.3497   45.1644   24.2243 O   0  0  0  0  0  0
    0.6854   51.7611   26.2889 C   0  0  0  0  0  0
   -0.1263   51.1825   27.2696 C   0  0  0  0  0  0
   -0.1584   51.6979   28.5639 C   0  0  0  0  0  0
    0.6223   52.8043   28.9073 C   0  0  0  0  0  0
    1.4505   53.3915   27.9349 C   0  0  0  0  0  0
    1.4772   52.8609   26.6398 C   0  0  0  0  0  0
    2.3178   54.6007   28.2565 C   0  0  0  0  0  0
    0.5467   53.3498   30.3274 C   0  0  0  0  0  0
    2.9834   53.6293   23.6670 O   0  0  0  0  0  0
    4.2456   54.2310   23.9276 C   0  0  0  0  0  0
    1.3595   49.5619   19.2748 H   0  0  0  0  0  0
    2.1452   50.7685   18.2299 H   0  0  0  0  0  0
    3.1040   49.5494   19.0490 H   0  0  0  0  0  0
    4.4105   51.7071   19.7481 H   0  0  0  0  0  0
    4.7732   53.1702   21.6561 H   0  0  0  0  0  0
    0.4851   50.7708   21.1682 H   0  0  0  0  0  0
    1.2837   49.2966   25.6936 H   0  0  0  0  0  0
    1.9034   49.7294   24.1607 H   0  0  0  0  0  0
   -0.8094   48.5329   25.9362 H   0  0  0  0  0  0
   -2.3773   48.2375   22.5510 H   0  0  0  0  0  0
   -4.3285   46.7933   22.1680 H   0  0  0  0  0  0
   -2.1526   46.8876   26.6642 H   0  0  0  0  0  0
   -5.7284   43.7741   25.7057 H   0  0  0  0  0  0
   -6.3744   45.4014   25.9756 H   0  0  0  0  0  0
   -0.7513   50.3329   27.0360 H   0  0  0  0  0  0
   -0.8006   51.2295   29.2975 H   0  0  0  0  0  0
    2.1121   53.3142   25.8962 H   0  0  0  0  0  0
    1.6934   55.4534   28.5256 H   0  0  0  0  0  0
    2.9694   54.3861   29.1032 H   0  0  0  0  0  0
    2.9505   54.8903   27.4162 H   0  0  0  0  0  0
    1.5212   53.2852   30.8104 H   0  0  0  0  0  0
    0.2527   54.3998   30.3145 H   0  0  0  0  0  0
   -0.1730   52.8065   30.9427 H   0  0  0  0  0  0
    4.1800   54.8259   24.8389 H   0  0  0  0  0  0
    5.0233   53.4801   24.0758 H   0  0  0  0  0  0
    4.5441   54.8967   23.1186 H   0  0  0  0  0  0
  1  2  1  0  0  0
  1 35  1  0  0  0
  1 36  1  0  0  0
  1 37  1  0  0  0
  2  7  2  0  0  0
  2  3  1  0  0  0
  3  4  2  0  0  0
  3 38  1  0  0  0
  4  5  1  0  0  0
  4 39  1  0  0  0
  5  6  2  0  0  0
  5 33  1  0  0  0
  6  7  1  0  0  0
  6  8  1  0  0  0
  7 40  1  0  0  0
  8  9  2  0  0  0
  8 10  2  0  0  0
  8 11  1  0  0  0
 11 12  1  0  0  0
 11 25  1  0  0  0
 12 13  1  0  0  0
 12 41  1  0  0  0
 12 42  1  0  0  0
 13 14  2  0  0  0
 13 15  1  0  0  0
 15 16  1  0  0  0
 15 43  1  0  0  0
 16 21  2  0  0  0
 16 17  1  0  0  0
 17 18  2  0  0  0
 17 44  1  0  0  0
 18 19  1  0  0  0
 18 45  1  0  0  0
 19 24  1  0  0  0
 19 20  2  0  0  0
 20 21  1  0  0  0
 20 22  1  0  0  0
 21 46  1  0  0  0
 22 23  1  0  0  0
 23 24  1  0  0  0
 23 47  1  0  0  0
 23 48  1  0  0  0
 25 30  2  0  0  0
 25 26  1  0  0  0
 26 27  2  0  0  0
 26 49  1  0  0  0
 27 28  1  0  0  0
 27 50  1  0  0  0
 28 29  2  0  0  0
 28 32  1  0  0  0
 29 30  1  0  0  0
 29 31  1  0  0  0
 30 51  1  0  0  0
 31 52  1  0  0  0
 31 53  1  0  0  0
 31 54  1  0  0  0
 32 55  1  0  0  0
 32 56  1  0  0  0
 32 57  1  0  0  0
 33 34  1  0  0  0
 34 58  1  0  0  0
 34 59  1  0  0  0
 34 60  1  0  0  0
M  END
> <i_i_glide_confnum>
88

> <i_i_glide_lignum>
5586

> <i_i_glide_posenum>
225

> <i_i_glide_rotatable_bonds>
8

> <i_m_Source_File_Index>
5821

> <b_m_subgroup_collapsed>
0

> <r_i_docking_score>
-3.29438

> <r_i_glide_ecoul>
-6.83187

> <r_i_glide_eff_state_penalty>
0

> <r_i_glide_einternal>
8.44916

> <r_i_glide_emodel>
-49.9922

> <r_i_glide_energy>
-46.5672

> <r_i_glide_erotb>
0.522928

> <r_i_glide_esite>
-0.10405

> <r_i_glide_evdw>
-39.7353

> <r_i_glide_gscore>
-3.29438

> <r_i_glide_hbond>
-0.0957638

> <r_i_glide_ligand_efficiency>
-0.0968934

> <r_i_glide_ligand_efficiency_ln>
-0.72782

> <r_i_glide_ligand_efficiency_sa>
-0.313897

> <r_i_glide_lipo>
-1.40538

> <r_i_glide_metal>
0

> <r_i_glide_rewards>
0.799434

> <s_i_glide_gridfile>
wee1_glide-grid

> <s_m_Source_File>
wee1_decoys_glide_SP.sdf

> <s_m_Source_Path>
/Users/zhangxujun/Desktop

> <s_m_entry_id>
6096

> <s_m_entry_name>
wee1_decoys_glide_SP.5821

> <s_m_subgroup_title>
wee1_decoys_glide_SP

> <s_m_subgroupid>
wee1_decoys_glide_SP


$$$$
