@<TRIPOS>MOLECULE
ZINC12408395_4267
54   57    1
SMALL
USER_CHARGES


@<TRIPOS>ATOM
      1 C1          1.2473   52.9003   23.1385 C.ar      1 UNK         0.0000 
      2 C2          0.0145   52.8242   23.7790 C.ar      1 UNK         0.0000 
      3 C3         -0.5774   51.5824   24.0061 C.ar      1 UNK         0.0000 
      4 C4          0.0825   50.4072   23.6347 C.ar      1 UNK         0.0000 
      5 C5          1.3211   50.4849   23.0004 C.ar      1 UNK         0.0000 
      6 C6          1.8886   51.7306   22.7382 C.ar      1 UNK         0.0000 
      7 F7          3.0676   51.8071   22.0819 F         1 UNK         0.0000 
      8 S8         -2.2088   51.5259   24.7449 S.o2      1 UNK         0.0000 
      9 O9         -2.6234   50.1208   24.8047 O.2       1 UNK         0.0000 
     10 O10        -3.0156   52.5272   24.0385 O.2       1 UNK         0.0000 
     11 N11        -1.9928   52.1073   26.3866 N.pl3     1 UNK         0.0000 
     12 C12        -1.1461   51.3402   27.3204 C.3       1 UNK         0.0000 
     13 C13        -0.6381   52.1715   28.5208 C.3       1 UNK         0.0000 
     14 C14        -0.0956   53.5588   28.1496 C.3       1 UNK         0.0000 
     15 C15         0.3548   54.3585   29.3852 C.3       1 UNK         0.0000 
     16 C16         1.3902   53.6111   30.2430 C.3       1 UNK         0.0000 
     17 C17         0.8995   52.1813   30.5698 C.3       1 UNK         0.0000 
     18 C18         0.4181   51.4048   29.3196 C.3       1 UNK         0.0000 
     19 C19         2.8270   53.5841   29.6345 C.2       1 UNK         0.0000 
     20 O20         3.7389   53.0672   30.2800 O.2       1 UNK         0.0000 
     21 N21         2.9748   54.0870   28.3896 N.am      1 UNK         0.0000 
     22 C22         4.1024   54.1561   27.5624 C.ar      1 UNK         0.0000 
     23 C23         5.4126   54.2771   28.0378 C.ar      1 UNK         0.0000 
     24 C24         6.5045   54.3977   27.1737 C.ar      1 UNK         0.0000 
     25 C25         6.2362   54.3942   25.7988 C.ar      1 UNK         0.0000 
     26 C26         4.9079   54.2701   25.2893 C.ar      1 UNK         0.0000 
     27 C27         3.8423   54.1619   26.1916 C.ar      1 UNK         0.0000 
     28 C28         5.0004   54.2862   23.8597 C.ar      1 UNK         0.0000 
     29 C29         6.3314   54.4361   23.5409 C.ar      1 UNK         0.0000 
     30 N30         7.0675   54.4964   24.6972 N.pl3     1 UNK         0.0000 
     31 H31         8.0744   54.5994   24.6692 H         1 UNK         0.0000 
     32 H32         1.6973   53.8605   22.9324 H         1 UNK         0.0000 
     33 H33        -0.4967   53.7230   24.0802 H         1 UNK         0.0000 
     34 H34        -0.3631   49.4402   23.8221 H         1 UNK         0.0000 
     35 H35         1.8368   49.5848   22.6983 H         1 UNK         0.0000 
     36 H36        -1.9999   53.1216   26.5062 H         1 UNK         0.0000 
     37 H37        -0.3117   50.9152   26.7606 H         1 UNK         0.0000 
     38 H38        -1.7326   50.4967   27.6793 H         1 UNK         0.0000 
     39 H39        -1.4691   52.3279   29.2092 H         1 UNK         0.0000 
     40 H40        -0.8963   54.0973   27.6817 H         1 UNK         0.0000 
     41 H41         0.6895   53.4643   27.4003 H         1 UNK         0.0000 
     42 H42        -0.4952   54.5462   30.0428 H         1 UNK         0.0000 
     43 H43         0.7045   55.3699   29.1639 H         1 UNK         0.0000 
     44 H44         1.5048   54.1384   31.1830 H         1 UNK         0.0000 
     45 H45         1.6449   51.6591   31.1677 H         1 UNK         0.0000 
     46 H46         0.0954   52.2570   31.3052 H         1 UNK         0.0000 
     47 H47        -0.0897   50.4967   29.6122 H         1 UNK         0.0000 
     48 H48         1.2614   51.1177   28.6890 H         1 UNK         0.0000 
     49 H49         2.1185   54.3703   27.9425 H         1 UNK         0.0000 
     50 H50         5.5975   54.3080   29.1005 H         1 UNK         0.0000 
     51 H51         7.5041   54.4950   27.5687 H         1 UNK         0.0000 
     52 H52         2.8333   54.0753   25.8173 H         1 UNK         0.0000 
     53 H53         4.1953   54.2038   23.1445 H         1 UNK         0.0000 
     54 H54         6.8287   54.5014   22.5825 H         1 UNK         0.0000 
@<TRIPOS>BOND
     1    1    6 ar   
     2    1    2 ar   
     3    1   32 1    
     4    2    3 ar   
     5    2   33 1    
     6    3    4 ar   
     7    3    8 1    
     8    4    5 ar   
     9    4   34 1    
    10    5    6 ar   
    11    5   35 1    
    12    6    7 1    
    13    8    9 2    
    14    8   10 2    
    15    8   11 1    
    16   11   12 1    
    17   11   36 1    
    18   12   13 1    
    19   12   37 1    
    20   12   38 1    
    21   13   18 1    
    22   13   14 1    
    23   13   39 1    
    24   14   15 1    
    25   14   40 1    
    26   14   41 1    
    27   15   16 1    
    28   15   42 1    
    29   15   43 1    
    30   16   17 1    
    31   16   19 1    
    32   16   44 1    
    33   17   18 1    
    34   17   45 1    
    35   17   46 1    
    36   18   47 1    
    37   18   48 1    
    38   19   20 2    
    39   19   21 am   BACKBONE|DICT|INTERRES
    40   21   22 1    
    41   21   49 1    
    42   22   27 ar   
    43   22   23 ar   
    44   23   24 ar   
    45   23   50 1    
    46   24   25 ar   
    47   24   51 1    
    48   25   30 ar   
    49   25   26 ar   
    50   26   27 ar   
    51   26   28 ar   
    52   27   52 1    
    53   28   29 ar   
    54   28   53 1    
    55   29   30 ar   
    56   29   54 1    
    57   30   31 1    
@<TRIPOS>SUBSTRUCTURE
     1 UNK         1 GROUP             0       ****    0 ROOT    
