ZINC35642682_5444
                    3D
 Schrodinger Suite 2024-2.
 68 71  0  0  1  0            999 V2000
    3.5889   53.4090   21.2423 C   0  0  0  0  0  0
    2.5775   53.6953   22.3556 C   0  0  0  0  0  0
    1.7877   52.5373   22.5899 O   0  0  0  0  0  0
    0.7617   52.5571   23.4738 C   0  0  0  0  0  0
    0.4448   53.5802   24.0817 O   0  0  0  0  0  0
    0.1032   51.2279   23.6426 C   0  0  0  0  0  0
   -0.7516   50.8865   24.6548 C   0  0  0  0  0  0
   -1.2951   49.6021   24.7319 N   0  0  0  0  0  0
   -0.8768   48.5605   23.9320 C   0  0  0  0  0  0
   -1.1681   47.3691   24.0469 O   0  0  0  0  0  0
   -0.0372   48.8965   22.9253 N   0  0  0  0  0  0
    0.2380   50.2637   22.4466 C   0  0  1  0  0  0
    1.2535   50.2508   22.0411 H   0  0  0  0  0  0
   -0.6175   50.7052   21.2470 C   0  0  0  0  0  0
   -0.0053   51.2704   20.1207 C   0  0  0  0  0  0
   -0.7770   51.7113   19.0487 C   0  0  0  0  0  0
   -2.1623   51.5802   19.0945 C   0  0  0  0  0  0
   -2.7811   51.0011   20.1979 C   0  0  0  0  0  0
   -2.0111   50.5647   21.2729 C   0  0  0  0  0  0
   -2.9147   52.0274   18.0646 F   0  0  0  0  0  0
   -2.3586   49.2148   25.6842 C   0  0  0  0  0  0
   -1.1312   51.8092   25.8390 C   0  0  0  0  0  0
   -0.2894   51.5726   27.1247 N   0  3  2  0  0  0
   -0.9289   52.2905   28.3312 C   0  0  0  0  0  0
   -0.2846   51.9478   29.6793 C   0  0  0  0  0  0
    0.9409   52.7949   30.0721 C   0  0  0  0  0  0
    2.0039   52.9163   29.0517 N   0  0  0  0  0  0
    2.1201   51.8188   28.0808 C   0  0  0  0  0  0
    1.1827   51.9630   26.8700 C   0  0  0  0  0  0
    2.7871   54.0354   29.0484 C   0  0  0  0  0  0
    2.6551   54.9270   29.8862 O   0  0  0  0  0  0
    3.9197   54.1779   28.0579 C   0  0  0  0  0  0
    5.2272   54.2600   28.5467 C   0  0  0  0  0  0
    6.3007   54.4300   27.6797 C   0  0  0  0  0  0
    6.0669   54.5483   26.3141 C   0  0  0  0  0  0
    4.7691   54.4988   25.8132 C   0  0  0  0  0  0
    3.6939   54.3231   26.6834 C   0  0  0  0  0  0
    7.1044   54.7391   25.4695 F   0  0  0  0  0  0
    4.2049   54.2865   21.0413 H   0  0  0  0  0  0
    4.2542   52.5872   21.5115 H   0  0  0  0  0  0
    3.0848   53.1410   20.3137 H   0  0  0  0  0  0
    1.9368   54.5338   22.0821 H   0  0  0  0  0  0
    3.0988   53.9740   23.2719 H   0  0  0  0  0  0
    0.1245   48.1511   22.2662 H   0  0  0  0  0  0
    1.0686   51.3908   20.0772 H   0  0  0  0  0  0
   -0.3024   52.1582   18.1866 H   0  0  0  0  0  0
   -3.8555   50.8937   20.2197 H   0  0  0  0  0  0
   -2.5055   50.1296   22.1288 H   0  0  0  0  0  0
   -2.5599   48.1453   25.7585 H   0  0  0  0  0  0
   -2.1015   49.5283   26.6934 H   0  0  0  0  0  0
   -3.2968   49.6988   25.4126 H   0  0  0  0  0  0
   -2.1706   51.6379   26.1175 H   0  0  0  0  0  0
   -1.0896   52.8763   25.6407 H   0  0  0  0  0  0
   -1.9618   51.9354   28.3344 H   0  0  0  0  0  0
   -0.8925   53.3567   28.1025 H   0  0  0  0  0  0
   -0.0216   50.8966   29.6810 H   0  0  0  0  0  0
   -1.0277   52.0356   30.4744 H   0  0  0  0  0  0
    1.3783   52.3174   30.9505 H   0  0  0  0  0  0
    0.5815   53.7843   30.3651 H   0  0  0  0  0  0
    3.1409   51.8131   27.7005 H   0  0  0  0  0  0
    2.0268   50.8430   28.5580 H   0  0  0  0  0  0
    1.1478   52.9825   26.4928 H   0  0  0  0  0  0
    1.5043   51.3174   26.0569 H   0  0  0  0  0  0
    5.4140   54.2166   29.6081 H   0  0  0  0  0  0
    7.3056   54.4954   28.0714 H   0  0  0  0  0  0
    4.6025   54.6158   24.7527 H   0  0  0  0  0  0
    2.6983   54.3472   26.2731 H   0  0  0  0  0  0
   -0.3234   50.5786   27.3262 H   0  0  0  0  0  0
  1  2  1  0  0  0
  1 39  1  0  0  0
  1 40  1  0  0  0
  1 41  1  0  0  0
  2  3  1  0  0  0
  2 42  1  0  0  0
  2 43  1  0  0  0
  3  4  1  0  0  0
  4  5  2  0  0  0
  4  6  1  0  0  0
  6 12  1  0  0  0
  6  7  2  0  0  0
  7  8  1  0  0  0
  7 22  1  0  0  0
  8  9  1  0  0  0
  8 21  1  0  0  0
  9 10  2  0  0  0
  9 11  1  0  0  0
 11 12  1  0  0  0
 11 44  1  0  0  0
 12 13  1  0  0  0
 12 14  1  0  0  0
 14 19  2  0  0  0
 14 15  1  0  0  0
 15 16  2  0  0  0
 15 45  1  0  0  0
 16 17  1  0  0  0
 16 46  1  0  0  0
 17 18  2  0  0  0
 17 20  1  0  0  0
 18 19  1  0  0  0
 18 47  1  0  0  0
 19 48  1  0  0  0
 21 49  1  0  0  0
 21 50  1  0  0  0
 21 51  1  0  0  0
 22 23  1  0  0  0
 22 52  1  0  0  0
 22 53  1  0  0  0
 23 29  1  0  0  0
 23 24  1  0  0  0
 23 68  1  0  0  0
 24 25  1  0  0  0
 24 54  1  0  0  0
 24 55  1  0  0  0
 25 26  1  0  0  0
 25 56  1  0  0  0
 25 57  1  0  0  0
 26 27  1  0  0  0
 26 58  1  0  0  0
 26 59  1  0  0  0
 27 28  1  0  0  0
 27 30  1  0  0  0
 28 29  1  0  0  0
 28 60  1  0  0  0
 28 61  1  0  0  0
 29 62  1  0  0  0
 29 63  1  0  0  0
 30 31  2  0  0  0
 30 32  1  0  0  0
 32 37  2  0  0  0
 32 33  1  0  0  0
 33 34  2  0  0  0
 33 64  1  0  0  0
 34 35  1  0  0  0
 34 65  1  0  0  0
 35 36  2  0  0  0
 35 38  1  0  0  0
 36 37  1  0  0  0
 36 66  1  0  0  0
 37 67  1  0  0  0
M  CHG  1  23   1
M  END
> <i_i_glide_confnum>
121

> <i_i_glide_lignum>
5445

> <i_i_glide_posenum>
33

> <i_i_glide_rotatable_bonds>
8

> <i_m_Source_File_Index>
3187

> <b_m_subgroup_collapsed>
0

> <r_i_docking_score>
-5.24529

> <r_i_glide_ecoul>
-3.63534

> <r_i_glide_eff_state_penalty>
0

> <r_i_glide_einternal>
4.09832

> <r_i_glide_emodel>
-60.7805

> <r_i_glide_energy>
-46.1079

> <r_i_glide_erotb>
0.544279

> <r_i_glide_esite>
-0.102142

> <r_i_glide_evdw>
-42.4726

> <r_i_glide_gscore>
-5.24529

> <r_i_glide_hbond>
-0.306987

> <r_i_glide_ligand_efficiency>
-0.141765

> <r_i_glide_ligand_efficiency_ln>
-1.13758

> <r_i_glide_ligand_efficiency_sa>
-0.472392

> <r_i_glide_lipo>
-1.96735

> <r_i_glide_metal>
0

> <r_i_glide_rewards>
-0.744166

> <s_i_glide_gridfile>
wee1_glide-grid

> <s_m_Source_File>
wee1_decoys_glide_SP.sdf

> <s_m_Source_Path>
/Users/zhangxujun/Desktop

> <s_m_entry_id>
3462

> <s_m_entry_name>
wee1_decoys_glide_SP.3187

> <s_m_subgroup_title>
wee1_decoys_glide_SP

> <s_m_subgroupid>
wee1_decoys_glide_SP


$$$$
