@<TRIPOS>MOLECULE
ZINC02245934_3361
62   66    1
SMALL
USER_CHARGES


@<TRIPOS>ATOM
      1 C1          4.3955   53.8845   21.1898 C.3       1 UNK         0.0000 
      2 C2          3.3620   52.7632   21.1666 C.ar      1 UNK         0.0000 
      3 C3          3.4993   51.7589   20.2789 C.ar      1 UNK         0.0000 
      4 C4          2.5077   50.7176   20.2541 C.ar      1 UNK         0.0000 
      5 C5          1.4640   50.7294   21.1209 C.ar      1 UNK         0.0000 
      6 C6          1.3280   51.8220   22.1054 C.ar      1 UNK         0.0000 
      7 O7          0.3871   51.8207   22.9065 O.2       1 UNK         0.0000 
      8 N8          2.2893   52.8281   22.0630 N.pl3     1 UNK         0.0000 
      9 C9          2.0649   53.9707   22.9900 C.3       1 UNK         0.0000 
     10 C10         2.6696   53.8494   24.3882 C.ar      1 UNK         0.0000 
     11 C11         1.9075   53.2973   25.4374 C.ar      1 UNK         0.0000 
     12 C12         2.3856   53.2967   26.7569 C.ar      1 UNK         0.0000 
     13 C13         3.6409   53.8473   26.9885 C.ar      1 UNK         0.0000 
     14 C14         4.3837   54.3913   25.9801 C.ar      1 UNK         0.0000 
     15 C15         3.9204   54.4271   24.6694 C.ar      1 UNK         0.0000 
     16 O16         5.5391   54.8955   26.4902 O.3       1 UNK         0.0000 
     17 C17         5.5875   54.4501   27.8202 C.3       1 UNK         0.0000 
     18 O18         4.3050   53.9932   28.1653 O.3       1 UNK         0.0000 
     19 C19         0.4252   49.5697   21.0875 C.3       1 UNK         0.0000 
     20 H20         0.4962   49.0718   22.0560 H         1 UNK         0.0000 
     21 C21         0.8158   48.5261   20.0210 C.2       1 UNK         0.0000 
     22 C22         1.8801   48.7156   19.2160 C.2       1 UNK         0.0000 
     23 O23         2.7046   49.7777   19.3014 O.3       1 UNK         0.0000 
     24 N24         2.3044   47.9376   18.1732 N.pl3     1 UNK         0.0000 
     25 C25        -0.0191   47.3815   19.8279 C.1       1 UNK         0.0000 
     26 N26        -0.6717   46.4375   19.6814 N.1       1 UNK         0.0000 
     27 C27        -1.0408   49.9780   20.9097 C.ar      1 UNK         0.0000 
     28 C28        -1.3987   50.9065   19.9299 C.ar      1 UNK         0.0000 
     29 C29        -2.7461   51.1842   19.6596 C.ar      1 UNK         0.0000 
     30 C30        -3.7361   50.4965   20.3769 C.ar      1 UNK         0.0000 
     31 C31        -3.3957   49.5986   21.3988 C.ar      1 UNK         0.0000 
     32 C32        -2.0395   49.3497   21.6573 C.ar      1 UNK         0.0000 
     33 O33        -4.4331   48.9908   22.0823 O.3       1 UNK         0.0000 
     34 C34        -4.1412   48.0978   23.1525 C.3       1 UNK         0.0000 
     35 O35        -5.0609   50.7207   20.0813 O.3       1 UNK         0.0000 
     36 C36        -5.5847   49.8483   19.0897 C.3       1 UNK         0.0000 
     37 O37        -3.1667   52.0994   18.7102 O.3       1 UNK         0.0000 
     38 C38        -2.2016   52.7488   17.8898 C.3       1 UNK         0.0000 
     39 H39         5.0988   53.7919   20.3606 H         1 UNK         0.0000 
     40 H40         3.9437   54.8729   21.0963 H         1 UNK         0.0000 
     41 H41         4.9856   53.8338   22.1008 H         1 UNK         0.0000 
     42 H42         4.3246   51.7046   19.5841 H         1 UNK         0.0000 
     43 H43         2.4148   54.8961   22.5352 H         1 UNK         0.0000 
     44 H44         0.9958   54.1541   23.1097 H         1 UNK         0.0000 
     45 H45         0.9295   52.8847   25.2359 H         1 UNK         0.0000 
     46 H46         1.7910   52.8826   27.5587 H         1 UNK         0.0000 
     47 H47         4.5010   54.9028   23.8987 H         1 UNK         0.0000 
     48 H48         5.9037   55.2568   28.4826 H         1 UNK         0.0000 
     49 H49         6.2932   53.6191   27.8957 H         1 UNK         0.0000 
     50 H50         1.8032   47.1075   17.8976 H         1 UNK         0.0000 
     51 H51         2.9741   48.3318   17.5099 H         1 UNK         0.0000 
     52 H52        -0.6104   51.3802   19.3655 H         1 UNK         0.0000 
     53 H53        -1.7460   48.6363   22.4116 H         1 UNK         0.0000 
     54 H54        -5.0755   47.7299   23.5766 H         1 UNK         0.0000 
     55 H55        -3.5715   47.2328   22.8093 H         1 UNK         0.0000 
     56 H56        -3.5915   48.5975   23.9525 H         1 UNK         0.0000 
     57 H57        -6.6277   50.1016   18.9023 H         1 UNK         0.0000 
     58 H58        -5.0415   49.9414   18.1464 H         1 UNK         0.0000 
     59 H59        -5.5437   48.8053   19.4126 H         1 UNK         0.0000 
     60 H60        -2.7087   53.4326   17.2080 H         1 UNK         0.0000 
     61 H61        -1.6454   52.0306   17.2858 H         1 UNK         0.0000 
     62 H62        -1.4978   53.3354   18.4810 H         1 UNK         0.0000 
@<TRIPOS>BOND
     1    1    2 1    
     2    1   39 1    
     3    1   40 1    
     4    1   41 1    
     5    2    8 ar   
     6    2    3 ar   
     7    3    4 ar   
     8    3   42 1    
     9    4   23 1    
    10    4    5 ar   
    11    5    6 ar   
    12    5   19 1    
    13    6    7 2    
    14    6    8 ar   
    15    8    9 1    
    16    9   10 1    
    17    9   43 1    
    18    9   44 1    
    19   10   15 ar   
    20   10   11 ar   
    21   11   12 ar   
    22   11   45 1    
    23   12   13 ar   
    24   12   46 1    
    25   13   18 1    
    26   13   14 ar   
    27   14   15 ar   
    28   14   16 1    
    29   15   47 1    
    30   16   17 1    
    31   17   18 1    
    32   17   48 1    
    33   17   49 1    
    34   19   20 1    
    35   19   21 1    
    36   19   27 1    
    37   21   22 2    
    38   21   25 1    
    39   22   23 1    
    40   22   24 1    
    41   24   50 1    
    42   24   51 1    
    43   25   26 3    
    44   27   32 ar   
    45   27   28 ar   
    46   28   29 ar   
    47   28   52 1    
    48   29   30 ar   
    49   29   37 1    
    50   30   31 ar   
    51   30   35 1    
    52   31   32 ar   
    53   31   33 1    
    54   32   53 1    
    55   33   34 1    
    56   34   54 1    
    57   34   55 1    
    58   34   56 1    
    59   35   36 1    
    60   36   57 1    
    61   36   58 1    
    62   36   59 1    
    63   37   38 1    
    64   38   60 1    
    65   38   61 1    
    66   38   62 1    
@<TRIPOS>SUBSTRUCTURE
     1 UNK         1 GROUP             0       ****    0 ROOT    
