ZINC39687237_398
                    3D
 Schrodinger Suite 2024-2.
 79 83  0  0  1  0            999 V2000
    5.9258   53.9642   26.4590 C   0  0  0  0  0  0
    4.7018   54.0074   27.3732 C   0  0  0  0  0  0
    4.9579   54.0575   28.7463 C   0  0  0  0  0  0
    3.9194   54.0971   29.6684 C   0  0  0  0  0  0
    2.6041   54.1386   29.2261 C   0  0  0  0  0  0
    2.3338   54.0987   27.8610 C   0  0  0  0  0  0
    3.3608   53.9798   26.9049 C   0  0  0  0  0  0
    3.0310   53.9228   25.4165 C   0  0  0  0  0  0
    3.7796   54.4973   24.6229 O   0  0  0  0  0  0
    1.9392   53.2427   24.9594 N   0  0  0  0  0  0
    1.6434   53.2095   23.5264 C   0  0  0  0  0  0
    0.1935   52.7008   23.4735 C   0  0  2  0  0  0
   -0.4326   53.5834   23.6167 H   0  0  0  0  0  0
    0.0829   51.7183   24.6711 C   0  0  0  0  0  0
    0.9766   52.4301   25.7225 C   0  0  0  0  0  0
    0.6131   50.2757   24.3649 C   0  0  0  0  0  0
    0.5206   49.3290   25.5875 C   0  0  0  0  0  0
   -0.9406   49.2969   26.0817 N   0  3  0  0  0  0
   -1.5277   50.6917   26.3754 C   0  0  0  0  0  0
   -1.3967   51.5366   25.1003 C   0  0  0  0  0  0
   -0.1575   52.0966   22.0873 C   0  0  0  0  0  0
   -1.3433   51.8712   21.8536 O   0  0  0  0  0  0
    0.8267   51.8288   21.2044 N   0  0  0  0  0  0
    0.7405   51.0879   19.9355 C   0  0  1  0  0  0
    1.7888   50.9485   19.6910 H   0  0  0  0  0  0
    0.1612   49.6669   20.1800 C   0  0  0  0  0  0
    0.3928   48.6810   19.0477 C   0  0  0  0  0  0
   -0.6079   48.4658   18.0763 C   0  0  0  0  0  0
   -0.3515   47.6455   16.9852 C   0  0  0  0  0  0
    0.8987   47.0608   16.8278 C   0  0  0  0  0  0
    1.9048   47.2968   17.7553 C   0  0  0  0  0  0
    1.6672   48.1057   18.8587 C   0  0  0  0  0  0
    0.0017   51.8648   18.8060 C   0  0  0  0  0  0
   -1.1927   52.1303   18.9762 O   0  0  0  0  0  0
    0.6576   52.1857   17.6541 N   0  0  0  0  0  0
    2.1005   51.9901   17.4185 C   0  0  0  0  0  0
    2.7979   53.3033   17.8417 C   0  0  0  0  0  0
    2.2205   54.5245   17.0863 C   0  0  0  0  0  0
    0.6718   54.5427   17.0986 C   0  0  0  0  0  0
    0.0638   53.1676   16.7283 C   0  0  0  0  0  0
    6.8102   53.5908   26.9776 H   0  0  0  0  0  0
    5.7749   53.2966   25.6138 H   0  0  0  0  0  0
    6.1413   54.9589   26.0681 H   0  0  0  0  0  0
    5.9777   54.0724   29.1051 H   0  0  0  0  0  0
    4.1598   54.1200   30.7188 H   0  0  0  0  0  0
    1.7927   54.2151   29.9353 H   0  0  0  0  0  0
    1.3019   54.2003   27.5729 H   0  0  0  0  0  0
    2.3438   52.4840   23.1093 H   0  0  0  0  0  0
    1.7586   54.1745   23.0260 H   0  0  0  0  0  0
    0.3052   53.1207   26.2265 H   0  0  0  0  0  0
    1.4002   51.7591   26.4688 H   0  0  0  0  0  0
    0.0757   49.8225   23.5307 H   0  0  0  0  0  0
    1.6540   50.3198   24.0398 H   0  0  0  0  0  0
    0.7833   48.2978   25.3441 H   0  0  0  0  0  0
    1.1045   49.6424   26.4509 H   0  0  0  0  0  0
   -1.5255   48.8131   25.4166 H   0  0  0  0  0  0
   -2.5648   50.5230   26.6705 H   0  0  0  0  0  0
   -0.9784   51.0904   27.2301 H   0  0  0  0  0  0
   -1.8386   52.5129   25.3063 H   0  0  0  0  0  0
   -1.9989   51.1192   24.2911 H   0  0  0  0  0  0
    1.7638   52.1160   21.4400 H   0  0  0  0  0  0
   -0.9096   49.7163   20.3853 H   0  0  0  0  0  0
    0.6044   49.2387   21.0797 H   0  0  0  0  0  0
   -1.5717   48.9443   18.1733 H   0  0  0  0  0  0
   -1.1204   47.4785   16.2453 H   0  0  0  0  0  0
    1.0993   46.4407   15.9665 H   0  0  0  0  0  0
    2.8891   46.8788   17.6030 H   0  0  0  0  0  0
    2.4705   48.3079   19.5533 H   0  0  0  0  0  0
    2.5163   51.0624   17.8130 H   0  0  0  0  0  0
    2.2234   51.8382   16.3446 H   0  0  0  0  0  0
    2.7032   53.4446   18.9194 H   0  0  0  0  0  0
    3.8683   53.2209   17.6502 H   0  0  0  0  0  0
    2.5668   54.4971   16.0518 H   0  0  0  0  0  0
    2.6109   55.4498   17.5131 H   0  0  0  0  0  0
    0.3068   55.3026   16.4069 H   0  0  0  0  0  0
    0.3045   54.8419   18.0815 H   0  0  0  0  0  0
    0.3547   52.8780   15.7177 H   0  0  0  0  0  0
   -1.0264   53.1309   16.7073 H   0  0  0  0  0  0
   -1.0127   48.7692   26.9679 H   0  0  0  0  0  0
  1  2  1  0  0  0
  1 41  1  0  0  0
  1 42  1  0  0  0
  1 43  1  0  0  0
  2  7  2  0  0  0
  2  3  1  0  0  0
  3  4  2  0  0  0
  3 44  1  0  0  0
  4  5  1  0  0  0
  4 45  1  0  0  0
  5  6  2  0  0  0
  5 46  1  0  0  0
  6  7  1  0  0  0
  6 47  1  0  0  0
  7  8  1  0  0  0
  8  9  2  0  0  0
  8 10  1  0  0  0
 10 15  1  0  0  0
 10 11  1  0  0  0
 11 12  1  0  0  0
 11 48  1  0  0  0
 11 49  1  0  0  0
 12 13  1  0  0  0
 12 14  1  0  0  0
 12 21  1  0  0  0
 14 20  1  0  0  0
 14 15  1  0  0  0
 14 16  1  0  0  0
 15 50  1  0  0  0
 15 51  1  0  0  0
 16 17  1  0  0  0
 16 52  1  0  0  0
 16 53  1  0  0  0
 17 18  1  0  0  0
 17 54  1  0  0  0
 17 55  1  0  0  0
 18 19  1  0  0  0
 18 56  1  0  0  0
 18 79  1  0  0  0
 19 20  1  0  0  0
 19 57  1  0  0  0
 19 58  1  0  0  0
 20 59  1  0  0  0
 20 60  1  0  0  0
 21 22  2  0  0  0
 21 23  1  0  0  0
 23 24  1  0  0  0
 23 61  1  0  0  0
 24 25  1  0  0  0
 24 26  1  0  0  0
 24 33  1  0  0  0
 26 27  1  0  0  0
 26 62  1  0  0  0
 26 63  1  0  0  0
 27 32  2  0  0  0
 27 28  1  0  0  0
 28 29  2  0  0  0
 28 64  1  0  0  0
 29 30  1  0  0  0
 29 65  1  0  0  0
 30 31  2  0  0  0
 30 66  1  0  0  0
 31 32  1  0  0  0
 31 67  1  0  0  0
 32 68  1  0  0  0
 33 34  2  0  0  0
 33 35  1  0  0  0
 35 40  1  0  0  0
 35 36  1  0  0  0
 36 37  1  0  0  0
 36 69  1  0  0  0
 36 70  1  0  0  0
 37 38  1  0  0  0
 37 71  1  0  0  0
 37 72  1  0  0  0
 38 39  1  0  0  0
 38 73  1  0  0  0
 38 74  1  0  0  0
 39 40  1  0  0  0
 39 75  1  0  0  0
 39 76  1  0  0  0
 40 77  1  0  0  0
 40 78  1  0  0  0
M  CHG  1  18   1
M  END
> <i_i_glide_confnum>
351

> <i_i_glide_lignum>
399

> <i_i_glide_posenum>
68

> <i_i_glide_rotatable_bonds>
9

> <i_m_Source_File_Index>
3096

> <b_m_subgroup_collapsed>
0

> <r_i_docking_score>
-5.61887

> <r_i_glide_ecoul>
-8.66603

> <r_i_glide_eff_state_penalty>
0

> <r_i_glide_einternal>
9.64998

> <r_i_glide_emodel>
-64.2003

> <r_i_glide_energy>
-48.4718

> <r_i_glide_erotb>
0.536335

> <r_i_glide_esite>
-0.127765

> <r_i_glide_evdw>
-39.8058

> <r_i_glide_gscore>
-5.61887

> <r_i_glide_hbond>
-0.2

> <r_i_glide_ligand_efficiency>
-0.147865

> <r_i_glide_ligand_efficiency_ln>
-1.21159

> <r_i_glide_ligand_efficiency_sa>
-0.497118

> <r_i_glide_lipo>
-1.8585

> <r_i_glide_metal>
0

> <r_i_glide_rewards>
-0.678739

> <s_i_glide_gridfile>
wee1_glide-grid

> <s_m_Source_File>
wee1_decoys_glide_SP.sdf

> <s_m_Source_Path>
/Users/zhangxujun/Desktop

> <s_m_entry_id>
3371

> <s_m_entry_name>
wee1_decoys_glide_SP.3096

> <s_m_subgroup_title>
wee1_decoys_glide_SP

> <s_m_subgroupid>
wee1_decoys_glide_SP


$$$$
