@<TRIPOS>MOLECULE
ZINC14075162_5839
47   50    1
SMALL
USER_CHARGES


@<TRIPOS>ATOM
      1 C1          4.3266   53.7233   17.7854 C.3       1 UNK         0.0000 
      2 C2          5.1714   54.7042   18.5805 C.2       1 UNK         0.0000 
      3 C3          5.7422   55.8688   18.0666 C.2       1 UNK         0.0000 
      4 S4          6.6742   56.7544   19.2622 S.3       1 UNK         0.0000 
      5 C5          6.2768   55.5834   20.4862 C.ar      1 UNK         0.0000 
      6 C6          5.4594   54.5320   19.9769 C.ar      1 UNK         0.0000 
      7 C7          5.1044   53.5444   20.9297 C.ar      1 UNK         0.0000 
      8 N8          5.4879   53.6420   22.2268 N.ar      1 UNK         0.0000 
      9 C9          6.2589   54.7051   22.5661 C.ar      1 UNK         0.0000 
     10 N10         6.7017   55.6917   21.7462 N.ar      1 UNK         0.0000 
     11 C11         6.7048   54.7936   24.0123 C.3       1 UNK         0.0000 
     12 O12         5.6335   54.5407   24.9156 O.3       1 UNK         0.0000 
     13 C13         5.8558   54.5675   26.2458 C.2       1 UNK         0.0000 
     14 O14         6.9197   54.8965   26.7754 O.2       1 UNK         0.0000 
     15 C15         4.6788   54.1221   26.9827 C.2       1 UNK         0.0000 
     16 C16         3.4412   53.6963   26.5232 C.2       1 UNK         0.0000 
     17 C17         2.5914   53.1877   27.5165 C.2       1 UNK         0.0000 
     18 C18         3.1772   53.2553   28.7887 C.2       1 UNK         0.0000 
     19 S19         4.7303   54.0370   28.7046 S.3       1 UNK         0.0000 
     20 C20         2.6233   52.7114   30.0863 C.3       1 UNK         0.0000 
     21 C21         1.2325   53.2490   30.4686 C.3       1 UNK         0.0000 
     22 C22         0.0801   52.7082   29.6020 C.3       1 UNK         0.0000 
     23 C23         0.0801   53.1607   28.1287 C.3       1 UNK         0.0000 
     24 C24         1.2157   52.6069   27.2471 C.3       1 UNK         0.0000 
     25 N25         4.3654   52.4088   20.5991 N.pl3     1 UNK         0.0000 
     26 C26         5.6532   56.4029   16.6547 C.3       1 UNK         0.0000 
     27 H27         4.1722   54.0417   16.7511 H         1 UNK         0.0000 
     28 H28         4.7888   52.7351   17.7334 H         1 UNK         0.0000 
     29 H29         3.3318   53.5963   18.2174 H         1 UNK         0.0000 
     30 H30         7.1295   55.7790   24.2085 H         1 UNK         0.0000 
     31 H31         7.5023   54.0634   24.1679 H         1 UNK         0.0000 
     32 H32         3.1756   53.6950   25.4747 H         1 UNK         0.0000 
     33 H33         3.3184   52.8967   30.9077 H         1 UNK         0.0000 
     34 H34         2.5386   51.6286   30.0037 H         1 UNK         0.0000 
     35 H35         1.2330   54.3395   30.4609 H         1 UNK         0.0000 
     36 H36         1.0320   52.9644   31.5029 H         1 UNK         0.0000 
     37 H37        -0.8598   53.0268   30.0564 H         1 UNK         0.0000 
     38 H38         0.0657   51.6172   29.6480 H         1 UNK         0.0000 
     39 H39         0.0728   54.2495   28.0829 H         1 UNK         0.0000 
     40 H40        -0.8670   52.8450   27.6871 H         1 UNK         0.0000 
     41 H41         1.2476   51.5203   27.3409 H         1 UNK         0.0000 
     42 H42         0.9422   52.7902   26.2060 H         1 UNK         0.0000 
     43 H43         4.2842   52.1471   19.6213 H         1 UNK         0.0000 
     44 H44         4.1800   51.7259   21.3203 H         1 UNK         0.0000 
     45 H45         6.1194   55.7218   15.9418 H         1 UNK         0.0000 
     46 H46         4.6158   56.5333   16.3473 H         1 UNK         0.0000 
     47 H47         6.1422   57.3734   16.5401 H         1 UNK         0.0000 
@<TRIPOS>BOND
     1    1    2 1    
     2    1   27 1    
     3    1   28 1    
     4    1   29 1    
     5    2    6 1    
     6    2    3 2    
     7    3    4 1    
     8    3   26 1    
     9    4    5 1    
    10    5   10 ar   
    11    5    6 ar   
    12    6    7 ar   
    13    7    8 ar   
    14    7   25 1    
    15    8    9 ar   
    16    9   10 ar   
    17    9   11 1    
    18   11   12 1    
    19   11   30 1    
    20   11   31 1    
    21   12   13 1    
    22   13   14 2    
    23   13   15 1    
    24   15   19 1    
    25   15   16 2    
    26   16   17 1    
    27   16   32 1    
    28   17   24 1    
    29   17   18 2    
    30   18   19 1    
    31   18   20 1    
    32   20   21 1    
    33   20   33 1    
    34   20   34 1    
    35   21   22 1    
    36   21   35 1    
    37   21   36 1    
    38   22   23 1    
    39   22   37 1    
    40   22   38 1    
    41   23   24 1    
    42   23   39 1    
    43   23   40 1    
    44   24   41 1    
    45   24   42 1    
    46   25   43 1    
    47   25   44 1    
    48   26   45 1    
    49   26   46 1    
    50   26   47 1    
@<TRIPOS>SUBSTRUCTURE
     1 UNK         1 GROUP             0       ****    0 ROOT    
