@<TRIPOS>MOLECULE
ZINC40961041_186
57   61    1
SMALL
USER_CHARGES


@<TRIPOS>ATOM
      1 C1          1.9652   53.2961   25.4354 C.ar      1 UNK         0.0000 
      2 C2          2.2771   53.6238   26.7538 C.ar      1 UNK         0.0000 
      3 C3          1.6238   52.9820   27.8121 C.ar      1 UNK         0.0000 
      4 C4          0.6576   52.0119   27.5346 C.ar      1 UNK         0.0000 
      5 C5          0.3475   51.6864   26.2173 C.ar      1 UNK         0.0000 
      6 C6          1.0015   52.3193   25.1507 C.ar      1 UNK         0.0000 
      7 C7          0.6884   51.9345   23.7285 C.2       1 UNK         0.0000 
      8 N8          1.4628   52.2756   22.7105 N.2       1 UNK         0.0000 
      9 C9          0.8642   51.7064   21.6940 C.2       1 UNK         0.0000 
     10 O10        -0.2716   51.0546   22.0366 O.3       1 UNK         0.0000 
     11 N11        -0.3743   51.2157   23.4164 N.2       1 UNK         0.0000 
     12 C12         1.2403   51.7048   20.2193 C.3       1 UNK         0.0000 
     13 N13         2.5491   52.4971   19.9683 N.4       1 UNK         0.0000 
     14 C14         3.7932   51.6747   20.3711 C.3       1 UNK         0.0000 
     15 C15         5.0239   52.5914   20.2762 C.3       1 UNK         0.0000 
     16 C16         5.1963   53.2960   18.9029 C.3       1 UNK         0.0000 
     17 C17         3.8569   53.8614   18.3606 C.3       1 UNK         0.0000 
     18 C18         2.6701   52.8920   18.4815 C.3       1 UNK         0.0000 
     19 N19         6.3053   54.2529   18.8124 N.am      1 UNK         0.0000 
     20 C20         6.3936   55.4103   19.4931 C.2       1 UNK         0.0000 
     21 O21         5.6862   55.6876   20.4596 O.2       1 UNK         0.0000 
     22 C22         7.3396   56.4320   18.9280 C.ar      1 UNK         0.0000 
     23 C23         6.8614   57.7219   18.6704 C.ar      1 UNK         0.0000 
     24 C24         7.6533   58.7155   18.0990 C.ar      1 UNK         0.0000 
     25 C25         8.9761   58.3780   17.8045 C.ar      1 UNK         0.0000 
     26 C26         9.5093   57.0824   18.0805 C.ar      1 UNK         0.0000 
     27 C27         8.6726   56.1052   18.6428 C.ar      1 UNK         0.0000 
     28 C28        10.8840   57.1117   17.6796 C.ar      1 UNK         0.0000 
     29 C29        11.1388   58.3629   17.1600 C.ar      1 UNK         0.0000 
     30 N30         9.9927   59.1152   17.2309 N.pl3     1 UNK         0.0000 
     31 H31         9.9384   60.0636   16.8878 H         1 UNK         0.0000 
     32 C32         1.9502   53.3178   29.2679 C.3       1 UNK         0.0000 
     33 F33         2.3374   52.2141   29.9119 F         1 UNK         0.0000 
     34 F34         2.9229   54.2247   29.3797 F         1 UNK         0.0000 
     35 F35         0.8611   53.8033   29.8672 F         1 UNK         0.0000 
     36 H36         2.4853   53.8029   24.6353 H         1 UNK         0.0000 
     37 H37         3.0292   54.3759   26.9422 H         1 UNK         0.0000 
     38 H38         0.1473   51.5003   28.3402 H         1 UNK         0.0000 
     39 H39        -0.3955   50.9218   26.0374 H         1 UNK         0.0000 
     40 H40         0.4683   52.2098   19.6370 H         1 UNK         0.0000 
     41 H41         1.3923   50.7085   19.7999 H         1 UNK         0.0000 
     42 H42         3.8560   50.8154   19.6989 H         1 UNK         0.0000 
     43 H43         3.6578   51.3304   21.3978 H         1 UNK         0.0000 
     44 H44         5.9043   51.9935   20.4922 H         1 UNK         0.0000 
     45 H45         4.9325   53.3353   21.0679 H         1 UNK         0.0000 
     46 H46         5.4495   52.4967   18.2022 H         1 UNK         0.0000 
     47 H47         3.5934   54.7661   18.9122 H         1 UNK         0.0000 
     48 H48         3.9762   54.1534   17.3163 H         1 UNK         0.0000 
     49 H49         2.7920   51.9819   17.8870 H         1 UNK         0.0000 
     50 H50         1.7495   53.4045   18.1965 H         1 UNK         0.0000 
     51 H51         7.0304   54.0429   18.1428 H         1 UNK         0.0000 
     52 H52         5.8301   57.9632   18.8870 H         1 UNK         0.0000 
     53 H53         7.2455   59.6950   17.8851 H         1 UNK         0.0000 
     54 H54         9.0646   55.1205   18.8570 H         1 UNK         0.0000 
     55 H55        11.6015   56.3084   17.7601 H         1 UNK         0.0000 
     56 H56        12.0424   58.7843   16.7392 H         1 UNK         0.0000 
     57 H57         2.4791   53.3491   20.5158 H         1 UNK         0.0000 
@<TRIPOS>BOND
     1    1    6 ar   
     2    1    2 ar   
     3    1   36 1    
     4    2    3 ar   
     5    2   37 1    
     6    3    4 ar   
     7    3   32 1    
     8    4    5 ar   
     9    4   38 1    
    10    5    6 ar   
    11    5   39 1    
    12    6    7 1    
    13    7   11 2    
    14    7    8 1    
    15    8    9 2    
    16    9   10 1    
    17    9   12 1    
    18   10   11 1    
    19   12   13 1    
    20   12   40 1    
    21   12   41 1    
    22   13   18 1    
    23   13   14 1    
    24   13   57 1    
    25   14   15 1    
    26   14   42 1    
    27   14   43 1    
    28   15   16 1    
    29   15   44 1    
    30   15   45 1    
    31   16   17 1    
    32   16   19 1    
    33   16   46 1    
    34   17   18 1    
    35   17   47 1    
    36   17   48 1    
    37   18   49 1    
    38   18   50 1    
    39   19   20 am   BACKBONE|DICT|INTERRES
    40   19   51 1    
    41   20   21 2    
    42   20   22 1    
    43   22   27 ar   
    44   22   23 ar   
    45   23   24 ar   
    46   23   52 1    
    47   24   25 ar   
    48   24   53 1    
    49   25   30 ar   
    50   25   26 ar   
    51   26   27 ar   
    52   26   28 ar   
    53   27   54 1    
    54   28   29 ar   
    55   28   55 1    
    56   29   30 ar   
    57   29   56 1    
    58   30   31 1    
    59   32   33 1    
    60   32   34 1    
    61   32   35 1    
@<TRIPOS>SUBSTRUCTURE
     1 UNK         1 GROUP             0       ****    0 ROOT    
