@<TRIPOS>MOLECULE
ZINC44855680_746
63   66    1
SMALL
USER_CHARGES


@<TRIPOS>ATOM
      1 C1          0.2964   49.8656   24.7013 C.3       1 UNK         0.0000 
      2 C2         -0.3202   51.2639   24.4642 C.3       1 UNK         0.0000 
      3 C3          0.2113   51.9308   23.1684 C.3       1 UNK         0.0000 
      4 C4          1.7241   52.1886   23.2372 C.3       1 UNK         0.0000 
      5 H5          2.2168   51.2192   23.3520 H         1 UNK         0.0000 
      6 C6          2.0462   52.9170   24.5412 C.ar      1 UNK         0.0000 
      7 C7          3.1992   53.6967   24.7139 C.ar      1 UNK         0.0000 
      8 C8          3.5040   54.2667   25.9471 C.ar      1 UNK         0.0000 
      9 C9          2.6577   54.0958   27.0421 C.ar      1 UNK         0.0000 
     10 C10         1.5004   53.3177   26.8850 C.ar      1 UNK         0.0000 
     11 C11         1.1981   52.7457   25.6516 C.ar      1 UNK         0.0000 
     12 O12        -0.0333   52.1077   25.5925 O.3       1 UNK         0.0000 
     13 O13         3.0159   54.7347   28.2112 O.3       1 UNK         0.0000 
     14 C14         2.1096   54.7230   29.3082 C.3       1 UNK         0.0000 
     15 N15         2.2763   52.7816   22.0158 N.am      1 UNK         0.0000 
     16 C16         3.1338   52.1868   21.1674 C.2       1 UNK         0.0000 
     17 O17         3.5717   51.0489   21.3369 O.2       1 UNK         0.0000 
     18 C18         3.5531   52.9935   19.9257 C.3       1 UNK         0.0000 
     19 C19         3.0218   52.2530   18.6804 C.3       1 UNK         0.0000 
     20 C20         3.3560   53.0846   17.4341 C.3       1 UNK         0.0000 
     21 N21         4.8909   53.2980   17.3705 N.4       1 UNK         0.0000 
     22 C22         5.4737   53.9543   18.6478 C.3       1 UNK         0.0000 
     23 C23         5.0914   53.0923   19.8679 C.3       1 UNK         0.0000 
     24 C24         5.2868   54.0990   16.1022 C.3       1 UNK         0.0000 
     25 C25         4.5774   55.4419   15.9127 C.ar      1 UNK         0.0000 
     26 C26         3.4012   55.4982   15.1600 C.ar      1 UNK         0.0000 
     27 C27         2.7343   56.7068   14.9931 C.ar      1 UNK         0.0000 
     28 C28         3.2533   57.8668   15.5606 C.ar      1 UNK         0.0000 
     29 C29         4.4404   57.8289   16.2903 C.ar      1 UNK         0.0000 
     30 C30         5.1079   56.6161   16.4591 C.ar      1 UNK         0.0000 
     31 Br31        2.3258   59.5133   15.3305 Br        1 UNK         0.0000 
     32 C32        -1.8571   51.2195   24.4030 C.3       1 UNK         0.0000 
     33 H33         0.1217   49.2057   23.8494 H         1 UNK         0.0000 
     34 H34         1.3665   49.8932   24.8819 H         1 UNK         0.0000 
     35 H35        -0.1465   49.3913   25.5767 H         1 UNK         0.0000 
     36 H36        -0.0330   51.3323   22.2901 H         1 UNK         0.0000 
     37 H37        -0.2815   52.8948   23.0338 H         1 UNK         0.0000 
     38 H38         3.8799   53.8423   23.8875 H         1 UNK         0.0000 
     39 H39         4.3998   54.8589   26.0565 H         1 UNK         0.0000 
     40 H40         0.8102   53.1736   27.7013 H         1 UNK         0.0000 
     41 H41         2.5098   55.3461   30.1029 H         1 UNK         0.0000 
     42 H42         1.9722   53.7140   29.7058 H         1 UNK         0.0000 
     43 H43         1.1348   55.1342   29.0316 H         1 UNK         0.0000 
     44 H44         1.9708   53.7202   21.8035 H         1 UNK         0.0000 
     45 H45         3.1047   53.9802   20.0291 H         1 UNK         0.0000 
     46 H46         3.5044   51.2834   18.5418 H         1 UNK         0.0000 
     47 H47         1.9349   52.1573   18.6957 H         1 UNK         0.0000 
     48 H48         2.8706   54.0635   17.4540 H         1 UNK         0.0000 
     49 H49         3.0807   52.5357   16.5304 H         1 UNK         0.0000 
     50 H50         5.0869   54.9737   18.7145 H         1 UNK         0.0000 
     51 H51         6.5569   53.9682   18.5270 H         1 UNK         0.0000 
     52 H52         5.4944   53.6025   20.7444 H         1 UNK         0.0000 
     53 H53         5.5604   52.1162   19.7177 H         1 UNK         0.0000 
     54 H54         6.3700   54.2167   16.1472 H         1 UNK         0.0000 
     55 H55         5.0563   53.4192   15.2794 H         1 UNK         0.0000 
     56 H56         2.9905   54.6010   14.7149 H         1 UNK         0.0000 
     57 H57         1.8189   56.7482   14.4202 H         1 UNK         0.0000 
     58 H58         4.8402   58.7416   16.7127 H         1 UNK         0.0000 
     59 H59         6.0306   56.5924   17.0238 H         1 UNK         0.0000 
     60 H60        -2.2074   50.6186   23.5634 H         1 UNK         0.0000 
     61 H61        -2.2687   50.7855   25.3142 H         1 UNK         0.0000 
     62 H62        -2.2816   52.2184   24.3034 H         1 UNK         0.0000 
     63 H63         5.2960   52.3634   17.3186 H         1 UNK         0.0000 
@<TRIPOS>BOND
     1    1    2 1    
     2    1   33 1    
     3    1   34 1    
     4    1   35 1    
     5    2   12 1    
     6    2    3 1    
     7    2   32 1    
     8    3    4 1    
     9    3   36 1    
    10    3   37 1    
    11    4    5 1    
    12    4    6 1    
    13    4   15 1    
    14    6   11 ar   
    15    6    7 ar   
    16    7    8 ar   
    17    7   38 1    
    18    8    9 ar   
    19    8   39 1    
    20    9   10 ar   
    21    9   13 1    
    22   10   11 ar   
    23   10   40 1    
    24   11   12 1    
    25   13   14 1    
    26   14   41 1    
    27   14   42 1    
    28   14   43 1    
    29   15   16 am   BACKBONE|DICT|INTERRES
    30   15   44 1    
    31   16   17 2    
    32   16   18 1    
    33   18   23 1    
    34   18   19 1    
    35   18   45 1    
    36   19   20 1    
    37   19   46 1    
    38   19   47 1    
    39   20   21 1    
    40   20   48 1    
    41   20   49 1    
    42   21   22 1    
    43   21   24 1    
    44   21   63 1    
    45   22   23 1    
    46   22   50 1    
    47   22   51 1    
    48   23   52 1    
    49   23   53 1    
    50   24   25 1    
    51   24   54 1    
    52   24   55 1    
    53   25   30 ar   
    54   25   26 ar   
    55   26   27 ar   
    56   26   56 1    
    57   27   28 ar   
    58   27   57 1    
    59   28   29 ar   
    60   28   31 1    
    61   29   30 ar   
    62   29   58 1    
    63   30   59 1    
    64   32   60 1    
    65   32   61 1    
    66   32   62 1    
@<TRIPOS>SUBSTRUCTURE
     1 UNK         1 GROUP             0       ****    0 ROOT    
