@<TRIPOS>MOLECULE
ZINC09113314_2818
54   57    1
SMALL
USER_CHARGES


@<TRIPOS>ATOM
      1 C1          3.1768   53.9923   28.2544 C.ar      1 UNK         0.0000 
      2 C2          2.7077   53.6991   26.9754 C.ar      1 UNK         0.0000 
      3 C3          3.5697   53.7887   25.8846 C.ar      1 UNK         0.0000 
      4 C4          4.9038   54.1697   26.0777 C.ar      1 UNK         0.0000 
      5 C5          5.3638   54.4614   27.3665 C.ar      1 UNK         0.0000 
      6 C6          4.5013   54.3718   28.4550 C.ar      1 UNK         0.0000 
      7 C7          5.8983   54.2714   24.9242 C.3       1 UNK         0.0000 
      8 O8          5.2977   54.0961   23.6372 O.3       1 UNK         0.0000 
      9 C9          5.9675   54.4999   22.5223 C.2       1 UNK         0.0000 
     10 O10         7.1044   54.9713   22.5666 O.2       1 UNK         0.0000 
     11 N11         5.2116   54.3748   21.3447 N.am      1 UNK         0.0000 
     12 C12         3.8634   53.7737   21.3598 C.3       1 UNK         0.0000 
     13 C13         3.5099   53.2868   19.9557 C.2       1 UNK         0.0000 
     14 C14         4.2590   53.4314   18.8380 C.2       1 UNK         0.0000 
     15 C15         5.6069   54.1534   18.9292 C.3       1 UNK         0.0000 
     16 H16         6.3396   53.3614   19.1016 H         1 UNK         0.0000 
     17 C17         5.6844   55.1005   20.1473 C.3       1 UNK         0.0000 
     18 C18         5.9612   54.8339   17.5721 C.3       1 UNK         0.0000 
     19 H19         7.0055   55.1432   17.6645 H         1 UNK         0.0000 
     20 C20         5.9136   53.7978   16.3999 C.3       1 UNK         0.0000 
     21 C21         4.5813   53.0209   16.4189 C.2       1 UNK         0.0000 
     22 C22         3.8333   52.8867   17.5432 C.2       1 UNK         0.0000 
     23 C23         2.5915   52.1738   17.4613 C.1       1 UNK         0.0000 
     24 N24         1.5628   51.6462   17.3880 N.1       1 UNK         0.0000 
     25 N25         4.2335   52.4234   15.2253 N.pl3     1 UNK         0.0000 
     26 C26         6.1150   54.4806   15.1036 C.1       1 UNK         0.0000 
     27 N27         6.2729   55.0122   14.0873 N.1       1 UNK         0.0000 
     28 C28         7.0243   52.8396   16.5508 C.1       1 UNK         0.0000 
     29 N29         7.9039   52.0967   16.6687 N.1       1 UNK         0.0000 
     30 C30         5.1983   56.1428   17.2611 C.ar      1 UNK         0.0000 
     31 C31         5.9165   57.3276   17.0459 C.ar      1 UNK         0.0000 
     32 C32         5.2602   58.4965   16.6585 C.ar      1 UNK         0.0000 
     33 C33         3.8779   58.4966   16.4818 C.ar      1 UNK         0.0000 
     34 C34         3.1503   57.3324   16.7015 C.ar      1 UNK         0.0000 
     35 C35         3.8059   56.1713   17.0990 C.ar      1 UNK         0.0000 
     36 Cl36        1.4384   57.3136   16.4811 Cl        1 UNK         0.0000 
     37 H37         2.5045   53.9243   29.0965 H         1 UNK         0.0000 
     38 H38         1.6795   53.4010   26.8303 H         1 UNK         0.0000 
     39 H39         3.1972   53.5537   24.8978 H         1 UNK         0.0000 
     40 H40         6.3896   54.7555   27.5349 H         1 UNK         0.0000 
     41 H41         4.8611   54.6015   29.4481 H         1 UNK         0.0000 
     42 H42         6.6779   53.5221   25.0609 H         1 UNK         0.0000 
     43 H43         6.3736   55.2513   24.9858 H         1 UNK         0.0000 
     44 H44         3.1218   54.5007   21.6942 H         1 UNK         0.0000 
     45 H45         3.8092   52.9297   22.0488 H         1 UNK         0.0000 
     46 H46         2.5610   52.7761   19.8713 H         1 UNK         0.0000 
     47 H47         6.7235   55.4168   20.2448 H         1 UNK         0.0000 
     48 H48         5.1054   56.0127   20.0150 H         1 UNK         0.0000 
     49 H49         4.8130   52.5048   14.4017 H         1 UNK         0.0000 
     50 H50         3.4707   51.7600   15.1910 H         1 UNK         0.0000 
     51 H51         6.9915   57.3466   17.1503 H         1 UNK         0.0000 
     52 H52         5.8178   59.4071   16.4846 H         1 UNK         0.0000 
     53 H53         3.3772   59.4061   16.1805 H         1 UNK         0.0000 
     54 H54         3.1982   55.2985   17.2507 H         1 UNK         0.0000 
@<TRIPOS>BOND
     1    1    6 ar   
     2    1    2 ar   
     3    1   37 1    
     4    2    3 ar   
     5    2   38 1    
     6    3    4 ar   
     7    3   39 1    
     8    4    5 ar   
     9    4    7 1    
    10    5    6 ar   
    11    5   40 1    
    12    6   41 1    
    13    7    8 1    
    14    7   42 1    
    15    7   43 1    
    16    8    9 1    
    17    9   10 2    
    18    9   11 am   BACKBONE|DICT|INTERRES
    19   11   17 1    
    20   11   12 1    
    21   12   13 1    
    22   12   44 1    
    23   12   45 1    
    24   13   14 2    
    25   13   46 1    
    26   14   22 1    
    27   14   15 1    
    28   15   16 1    
    29   15   17 1    
    30   15   18 1    
    31   17   47 1    
    32   17   48 1    
    33   18   19 1    
    34   18   20 1    
    35   18   30 1    
    36   20   21 1    
    37   20   26 1    
    38   20   28 1    
    39   21   22 2    
    40   21   25 1    
    41   22   23 1    
    42   23   24 3    
    43   25   49 1    
    44   25   50 1    
    45   26   27 3    
    46   28   29 3    
    47   30   35 ar   
    48   30   31 ar   
    49   31   32 ar   
    50   31   51 1    
    51   32   33 ar   
    52   32   52 1    
    53   33   34 ar   
    54   33   53 1    
    55   34   35 ar   
    56   34   36 1    
    57   35   54 1    
@<TRIPOS>SUBSTRUCTURE
     1 UNK         1 GROUP             0       ****    0 ROOT    
