@<TRIPOS>MOLECULE
ZINC17518458_2460
60   62    1
SMALL
USER_CHARGES


@<TRIPOS>ATOM
      1 C1          2.9874   52.7586   30.4117 C.3       1 UNK         0.0000 
      2 C2          1.8869   53.4199   29.5410 C.3       1 UNK         0.0000 
      3 C3          0.6350   52.5054   29.6337 C.3       1 UNK         0.0000 
      4 C4          1.4989   54.7983   30.1261 C.3       1 UNK         0.0000 
      5 C5          2.4040   53.6128   28.0919 C.ar      1 UNK         0.0000 
      6 C6          3.6073   54.2967   27.8655 C.ar      1 UNK         0.0000 
      7 C7          4.1072   54.4633   26.5756 C.ar      1 UNK         0.0000 
      8 C8          3.4120   53.9569   25.4704 C.ar      1 UNK         0.0000 
      9 C9          2.1946   53.2957   25.6932 C.ar      1 UNK         0.0000 
     10 C10         1.7017   53.1241   26.9822 C.ar      1 UNK         0.0000 
     11 C11         3.9907   54.1044   24.0764 C.2       1 UNK         0.0000 
     12 O12         5.1704   54.4339   23.9177 O.2       1 UNK         0.0000 
     13 N13         3.1215   53.9016   23.0594 N.am      1 UNK         0.0000 
     14 N14         3.5149   54.0410   21.7243 N.am      1 UNK         0.0000 
     15 C15         4.1212   53.0227   21.0720 C.2       1 UNK         0.0000 
     16 O16         4.4463   51.9628   21.6141 O.2       1 UNK         0.0000 
     17 C17         4.2761   53.1517   19.5403 C.3       1 UNK         0.0000 
     18 C18         3.2686   52.1954   18.8350 C.3       1 UNK         0.0000 
     19 C19         3.2608   52.4066   17.3118 C.3       1 UNK         0.0000 
     20 N20         3.0833   53.8423   17.0160 N.pl3     1 UNK         0.0000 
     21 C21         4.2156   54.6852   17.4581 C.3       1 UNK         0.0000 
     22 C22         4.3527   54.6191   18.9956 C.3       1 UNK         0.0000 
     23 S23         2.1713   54.3154   15.5710 S.o2      1 UNK         0.0000 
     24 O24         2.9915   55.2395   14.7783 O.2       1 UNK         0.0000 
     25 O25         1.6023   53.1091   14.9566 O.2       1 UNK         0.0000 
     26 C26         0.7764   55.2306   16.2369 C.ar      1 UNK         0.0000 
     27 C27        -0.3360   54.5150   16.6988 C.ar      1 UNK         0.0000 
     28 C28        -1.4381   55.1870   17.2274 C.ar      1 UNK         0.0000 
     29 C29        -1.4417   56.5788   17.2875 C.ar      1 UNK         0.0000 
     30 C30        -0.3357   57.2947   16.8334 C.ar      1 UNK         0.0000 
     31 C31         0.7819   56.6293   16.3286 C.ar      1 UNK         0.0000 
     32 F32         1.8509   57.3589   15.9388 F         1 UNK         0.0000 
     33 F33        -2.5035   54.4903   17.6807 F         1 UNK         0.0000 
     34 H34         2.6268   52.5125   31.4121 H         1 UNK         0.0000 
     35 H35         3.8621   53.3972   30.5341 H         1 UNK         0.0000 
     36 H36         3.3333   51.8279   29.9609 H         1 UNK         0.0000 
     37 H37        -0.2204   52.9264   29.1030 H         1 UNK         0.0000 
     38 H38         0.8272   51.5128   29.2238 H         1 UNK         0.0000 
     39 H39         0.3150   52.3635   30.6677 H         1 UNK         0.0000 
     40 H40         0.7255   55.2776   29.5236 H         1 UNK         0.0000 
     41 H41         1.1039   54.7112   31.1394 H         1 UNK         0.0000 
     42 H42         2.3452   55.4843   30.1637 H         1 UNK         0.0000 
     43 H43         4.1736   54.6994   28.6919 H         1 UNK         0.0000 
     44 H44         5.0478   54.9803   26.4459 H         1 UNK         0.0000 
     45 H45         1.6205   52.8764   24.8802 H         1 UNK         0.0000 
     46 H46         0.7693   52.5935   27.0929 H         1 UNK         0.0000 
     47 H47         2.2571   53.3906   23.1519 H         1 UNK         0.0000 
     48 H48         3.1964   54.8974   21.2930 H         1 UNK         0.0000 
     49 H49         5.2654   52.7325   19.3422 H         1 UNK         0.0000 
     50 H50         3.5043   51.1464   19.0196 H         1 UNK         0.0000 
     51 H51         2.2472   52.4159   19.1506 H         1 UNK         0.0000 
     52 H52         4.2281   52.0963   16.9122 H         1 UNK         0.0000 
     53 H53         2.4849   51.8123   16.8308 H         1 UNK         0.0000 
     54 H54         5.1292   54.2792   17.0203 H         1 UNK         0.0000 
     55 H55         4.0829   55.7082   17.1037 H         1 UNK         0.0000 
     56 H56         3.5044   55.2081   19.3357 H         1 UNK         0.0000 
     57 H57         5.2913   55.1036   19.2703 H         1 UNK         0.0000 
     58 H58        -0.3493   53.4349   16.6520 H         1 UNK         0.0000 
     59 H59        -2.2973   57.1056   17.6800 H         1 UNK         0.0000 
     60 H60        -0.3355   58.3743   16.8818 H         1 UNK         0.0000 
@<TRIPOS>BOND
     1    1    2 1    
     2    1   34 1    
     3    1   35 1    
     4    1   36 1    
     5    2    3 1    
     6    2    4 1    
     7    2    5 1    
     8    3   37 1    
     9    3   38 1    
    10    3   39 1    
    11    4   40 1    
    12    4   41 1    
    13    4   42 1    
    14    5   10 ar   
    15    5    6 ar   
    16    6    7 ar   
    17    6   43 1    
    18    7    8 ar   
    19    7   44 1    
    20    8    9 ar   
    21    8   11 1    
    22    9   10 ar   
    23    9   45 1    
    24   10   46 1    
    25   11   12 2    
    26   11   13 am   BACKBONE|DICT|INTERRES
    27   13   14 1    
    28   13   47 1    
    29   14   15 am   BACKBONE|DICT|INTERRES
    30   14   48 1    
    31   15   16 2    
    32   15   17 1    
    33   17   22 1    
    34   17   18 1    
    35   17   49 1    
    36   18   19 1    
    37   18   50 1    
    38   18   51 1    
    39   19   20 1    
    40   19   52 1    
    41   19   53 1    
    42   20   21 1    
    43   20   23 1    
    44   21   22 1    
    45   21   54 1    
    46   21   55 1    
    47   22   56 1    
    48   22   57 1    
    49   23   24 2    
    50   23   25 2    
    51   23   26 1    
    52   26   31 ar   
    53   26   27 ar   
    54   27   28 ar   
    55   27   58 1    
    56   28   29 ar   
    57   28   33 1    
    58   29   30 ar   
    59   29   59 1    
    60   30   31 ar   
    61   30   60 1    
    62   31   32 1    
@<TRIPOS>SUBSTRUCTURE
     1 UNK         1 GROUP             0       ****    0 ROOT    
