@<TRIPOS>MOLECULE
ZINC19631801_2613
54   57    1
SMALL
USER_CHARGES


@<TRIPOS>ATOM
      1 C1          2.0379   56.0595   29.5198 C.3       1 UNK         0.0000 
      2 O2          2.1788   55.1222   28.4596 O.3       1 UNK         0.0000 
      3 C3          1.3732   53.9957   28.4426 C.ar      1 UNK         0.0000 
      4 C4          0.5513   53.6181   29.5207 C.ar      1 UNK         0.0000 
      5 C5         -0.2393   52.4724   29.4482 C.ar      1 UNK         0.0000 
      6 C6         -0.2381   51.6979   28.2916 C.ar      1 UNK         0.0000 
      7 C7          0.5736   52.0502   27.2160 C.ar      1 UNK         0.0000 
      8 C8          1.3863   53.1914   27.2878 C.ar      1 UNK         0.0000 
      9 N9          2.2600   53.5221   26.2372 N.am      1 UNK         0.0000 
     10 C10         1.9938   53.4907   24.9130 C.2       1 UNK         0.0000 
     11 O11         0.8696   53.2974   24.4512 O.2       1 UNK         0.0000 
     12 C12         3.1495   53.6990   24.0512 C.2       1 UNK         0.0000 
     13 C13         4.4019   54.2211   24.4744 C.2       1 UNK         0.0000 
     14 C14         5.3273   54.3542   23.4613 C.2       1 UNK         0.0000 
     15 S15         4.7116   53.8979   21.9204 S.3       1 UNK         0.0000 
     16 C16         3.1902   53.4655   22.6508 C.2       1 UNK         0.0000 
     17 N17         2.2825   52.8965   21.7697 N.am      1 UNK         0.0000 
     18 C18         1.8505   51.6217   21.8823 C.2       1 UNK         0.0000 
     19 O19         2.0375   50.9215   22.8822 O.2       1 UNK         0.0000 
     20 C20         1.1859   50.9986   20.6222 C.3       1 UNK         0.0000 
     21 H21         1.0912   51.7681   19.8532 H         1 UNK         0.0000 
     22 C22         2.2098   49.9193   20.1131 C.3       1 UNK         0.0000 
     23 C23         1.5752   48.8420   19.2477 C.2       1 UNK         0.0000 
     24 C24         0.2547   48.7031   19.0501 C.2       1 UNK         0.0000 
     25 C25        -0.7967   49.5835   19.6992 C.3       1 UNK         0.0000 
     26 C26        -0.2175   50.3561   20.9263 C.3       1 UNK         0.0000 
     27 H27        -0.1368   49.6319   21.7410 H         1 UNK         0.0000 
     28 C28        -1.2641   51.4196   21.3654 C.2       1 UNK         0.0000 
     29 O29        -1.8392   52.0967   20.4807 O.co2     1 UNK         0.0000 
     30 O30        -1.4177   51.6047   22.5907 O.co2     1 UNK         0.0000 
     31 C31         6.6503   54.8983   23.9277 C.3       1 UNK         0.0000 
     32 C32         6.2727   55.4338   25.3156 C.3       1 UNK         0.0000 
     33 C33         5.0367   54.6486   25.7826 C.3       1 UNK         0.0000 
     34 H34         2.7060   56.8975   29.3422 H         1 UNK         0.0000 
     35 H35         1.0239   56.4564   29.5759 H         1 UNK         0.0000 
     36 H36         2.3048   55.6247   30.4821 H         1 UNK         0.0000 
     37 H37         0.5153   54.1971   30.4304 H         1 UNK         0.0000 
     38 H38        -0.8580   52.1845   30.2871 H         1 UNK         0.0000 
     39 H39        -0.8579   50.8138   28.2309 H         1 UNK         0.0000 
     40 H40         0.5777   51.4255   26.3334 H         1 UNK         0.0000 
     41 H41         3.1888   53.7971   26.5151 H         1 UNK         0.0000 
     42 H42         2.1596   53.3675   20.8830 H         1 UNK         0.0000 
     43 H43         3.0742   50.3817   19.6315 H         1 UNK         0.0000 
     44 H44         2.6161   49.3325   20.9410 H         1 UNK         0.0000 
     45 H45         2.2330   48.1554   18.7326 H         1 UNK         0.0000 
     46 H46        -0.0710   47.9161   18.3852 H         1 UNK         0.0000 
     47 H47        -1.6503   48.9792   20.0110 H         1 UNK         0.0000 
     48 H48        -1.1688   50.2542   18.9221 H         1 UNK         0.0000 
     49 H49         7.4170   54.1237   23.9844 H         1 UNK         0.0000 
     50 H50         7.0363   55.6993   23.2965 H         1 UNK         0.0000 
     51 H51         7.0967   55.3658   26.0258 H         1 UNK         0.0000 
     52 H52         6.0141   56.4913   25.2321 H         1 UNK         0.0000 
     53 H53         4.3948   55.2689   26.4095 H         1 UNK         0.0000 
     54 H54         5.3458   53.7837   26.3723 H         1 UNK         0.0000 
@<TRIPOS>BOND
     1    1    2 1    
     2    1   34 1    
     3    1   35 1    
     4    1   36 1    
     5    2    3 1    
     6    3    8 ar   
     7    3    4 ar   
     8    4    5 ar   
     9    4   37 1    
    10    5    6 ar   
    11    5   38 1    
    12    6    7 ar   
    13    6   39 1    
    14    7    8 ar   
    15    7   40 1    
    16    8    9 1    
    17    9   10 am   BACKBONE|DICT|INTERRES
    18    9   41 1    
    19   10   11 2    
    20   10   12 1    
    21   12   16 2    
    22   12   13 1    
    23   13   33 1    
    24   13   14 2    
    25   14   15 1    
    26   14   31 1    
    27   15   16 1    
    28   16   17 am   BACKBONE|DICT|INTERRES
    29   17   18 am   BACKBONE|DICT|INTERRES
    30   17   42 1    
    31   18   19 2    
    32   18   20 1    
    33   20   21 1    
    34   20   26 1    
    35   20   22 1    
    36   22   23 1    
    37   22   43 1    
    38   22   44 1    
    39   23   24 2    
    40   23   45 1    
    41   24   25 1    
    42   24   46 1    
    43   25   26 1    
    44   25   47 1    
    45   25   48 1    
    46   26   27 1    
    47   26   28 1    
    48   28   29 2    
    49   28   30 1    
    50   31   32 1    
    51   31   49 1    
    52   31   50 1    
    53   32   33 1    
    54   32   51 1    
    55   32   52 1    
    56   33   53 1    
    57   33   54 1    
@<TRIPOS>SUBSTRUCTURE
     1 UNK         1 GROUP             0       ****    0 ROOT    
