@<TRIPOS>MOLECULE
ZINC20183141_6038
67   71    1
SMALL
USER_CHARGES


@<TRIPOS>ATOM
      1 C1         12.2249   49.8385   16.6740 C.3       1 UNK         0.0000 
      2 C2         11.0002   50.2590   15.8840 C.ar      1 UNK         0.0000 
      3 C3         10.6966   49.6268   14.6798 C.ar      1 UNK         0.0000 
      4 C4          9.5712   50.0103   13.9549 C.ar      1 UNK         0.0000 
      5 C5          8.7419   51.0381   14.4158 C.ar      1 UNK         0.0000 
      6 C6          9.0606   51.7131   15.6138 C.ar      1 UNK         0.0000 
      7 C7         10.1826   51.2944   16.3436 C.ar      1 UNK         0.0000 
      8 N8          8.2500   52.7229   16.1253 N.pl3     1 UNK         0.0000 
      9 C9          8.8135   53.9837   16.6376 C.3       1 UNK         0.0000 
     10 C10         8.4196   54.3529   18.0863 C.3       1 UNK         0.0000 
     11 N11         6.9565   54.2082   18.2901 N.pl3     1 UNK         0.0000 
     12 C12         6.1392   53.5790   17.2287 C.3       1 UNK         0.0000 
     13 C13         6.9324   52.3780   16.6743 C.3       1 UNK         0.0000 
     14 C14         6.3565   54.6579   19.4437 C.2       1 UNK         0.0000 
     15 S15         6.7047   56.1717   20.0858 S.2       1 UNK         0.0000 
     16 N16         5.5043   53.7507   20.0232 N.pl3     1 UNK         0.0000 
     17 C17         4.8405   53.7557   21.2662 C.ar      1 UNK         0.0000 
     18 C18         3.5045   53.3531   21.2904 C.ar      1 UNK         0.0000 
     19 C19         2.7867   53.3187   22.4855 C.ar      1 UNK         0.0000 
     20 C20         3.4308   53.6975   23.6828 C.ar      1 UNK         0.0000 
     21 C21         4.7986   54.1024   23.6974 C.ar      1 UNK         0.0000 
     22 C22         5.4951   54.0965   22.4586 C.ar      1 UNK         0.0000 
     23 C23         5.3812   54.4960   24.9427 C.ar      1 UNK         0.0000 
     24 C24         4.6128   54.4438   26.1091 C.ar      1 UNK         0.0000 
     25 C25         3.2912   53.9940   26.0736 C.ar      1 UNK         0.0000 
     26 N26         2.7591   53.6617   24.8816 N.pl3     1 UNK         0.0000 
     27 N27         2.4904   53.8729   27.2538 N.pl3     1 UNK         0.0000 
     28 C28         1.2377   53.0945   27.3391 C.3       1 UNK         0.0000 
     29 C29         0.6097   53.5565   28.6480 C.3       1 UNK         0.0000 
     30 C30         1.8077   53.7732   29.5414 C.3       1 UNK         0.0000 
     31 C31         2.8782   54.3367   28.6059 C.3       1 UNK         0.0000 
     32 C32         6.8264   54.9655   25.0051 C.3       1 UNK         0.0000 
     33 C33         7.5496   51.4339   13.5508 C.3       1 UNK         0.0000 
     34 H34        12.5178   50.5973   17.4015 H         1 UNK         0.0000 
     35 H35        12.0424   48.8968   17.1910 H         1 UNK         0.0000 
     36 H36        13.0726   49.6903   16.0019 H         1 UNK         0.0000 
     37 H37        11.3282   48.8390   14.2961 H         1 UNK         0.0000 
     38 H38         9.3572   49.5092   13.0224 H         1 UNK         0.0000 
     39 H39        10.4181   51.7754   17.2816 H         1 UNK         0.0000 
     40 H40         9.8987   53.9951   16.5356 H         1 UNK         0.0000 
     41 H41         8.4281   54.7479   15.9617 H         1 UNK         0.0000 
     42 H42         8.9388   53.6980   18.7824 H         1 UNK         0.0000 
     43 H43         8.7691   55.3647   18.2981 H         1 UNK         0.0000 
     44 H44         5.9237   54.2985   16.4383 H         1 UNK         0.0000 
     45 H45         5.1749   53.2235   17.5910 H         1 UNK         0.0000 
     46 H46         6.3193   51.8777   15.9252 H         1 UNK         0.0000 
     47 H47         7.1044   51.6967   17.5105 H         1 UNK         0.0000 
     48 H48         5.2036   53.0031   19.4128 H         1 UNK         0.0000 
     49 H49         3.0050   53.0835   20.3695 H         1 UNK         0.0000 
     50 H50         1.7500   53.0158   22.4949 H         1 UNK         0.0000 
     51 H51         6.5389   54.3760   22.4364 H         1 UNK         0.0000 
     52 H52         5.0580   54.7305   27.0511 H         1 UNK         0.0000 
     53 H53         0.5840   53.2966   26.4908 H         1 UNK         0.0000 
     54 H54         1.4949   52.0335   27.3429 H         1 UNK         0.0000 
     55 H55         0.0720   54.4957   28.5012 H         1 UNK         0.0000 
     56 H56        -0.0964   52.8278   29.0505 H         1 UNK         0.0000 
     57 H57         2.1377   52.8180   29.9559 H         1 UNK         0.0000 
     58 H58         1.5879   54.4371   30.3793 H         1 UNK         0.0000 
     59 H59         3.8753   53.9836   28.8689 H         1 UNK         0.0000 
     60 H60         2.8716   55.4277   28.5977 H         1 UNK         0.0000 
     61 H61         7.1039   55.2460   26.0201 H         1 UNK         0.0000 
     62 H62         7.5002   54.1746   24.6746 H         1 UNK         0.0000 
     63 H63         6.9801   55.8300   24.3590 H         1 UNK         0.0000 
     64 H64         7.3300   52.4992   13.6367 H         1 UNK         0.0000 
     65 H65         7.7558   51.2495   12.4949 H         1 UNK         0.0000 
     66 H66         6.6621   50.8651   13.8289 H         1 UNK         0.0000 
     67 H67         1.8025   53.3446   24.8726 H         1 UNK         0.0000 
@<TRIPOS>BOND
     1    1    2 1    
     2    1   34 1    
     3    1   35 1    
     4    1   36 1    
     5    2    7 ar   
     6    2    3 ar   
     7    3    4 ar   
     8    3   37 1    
     9    4    5 ar   
    10    4   38 1    
    11    5    6 ar   
    12    5   33 1    
    13    6    7 ar   
    14    6    8 1    
    15    7   39 1    
    16    8   13 1    
    17    8    9 1    
    18    9   10 1    
    19    9   40 1    
    20    9   41 1    
    21   10   11 1    
    22   10   42 1    
    23   10   43 1    
    24   11   12 1    
    25   11   14 1    
    26   12   13 1    
    27   12   44 1    
    28   12   45 1    
    29   13   46 1    
    30   13   47 1    
    31   14   15 2    
    32   14   16 1    
    33   16   17 1    
    34   16   48 1    
    35   17   22 ar   
    36   17   18 ar   
    37   18   19 ar   
    38   18   49 1    
    39   19   20 ar   
    40   19   50 1    
    41   20   26 ar   
    42   20   21 ar   
    43   21   22 ar   
    44   21   23 ar   
    45   22   51 1    
    46   23   24 ar   
    47   23   32 1    
    48   24   25 ar   
    49   24   52 1    
    50   25   26 ar   
    51   25   27 1    
    52   26   67 1    
    53   27   31 1    
    54   27   28 1    
    55   28   29 1    
    56   28   53 1    
    57   28   54 1    
    58   29   30 1    
    59   29   55 1    
    60   29   56 1    
    61   30   31 1    
    62   30   57 1    
    63   30   58 1    
    64   31   59 1    
    65   31   60 1    
    66   32   61 1    
    67   32   62 1    
    68   32   63 1    
    69   33   64 1    
    70   33   65 1    
    71   33   66 1    
@<TRIPOS>SUBSTRUCTURE
     1 UNK         1 GROUP             0       ****    0 ROOT    
