ZINC20347498_3725
                    3D
 Schrodinger Suite 2024-2.
 65 68  0  0  1  0            999 V2000
   -1.0616   55.9308   16.9665 C   0  0  0  0  0  0
    0.2141   56.6046   16.4957 C   0  0  0  0  0  0
    0.1603   57.7375   15.6820 C   0  0  0  0  0  0
    1.3361   58.3707   15.2814 C   0  0  0  0  0  0
    2.5733   57.8710   15.6899 C   0  0  0  0  0  0
    2.6469   56.7218   16.4815 C   0  0  0  0  0  0
    1.4565   56.0912   16.8810 C   0  0  0  0  0  0
    3.9317   56.3019   16.8727 N   0  0  0  0  0  0
    4.3263   55.0815   17.2880 C   0  0  0  0  0  0
    3.5965   54.0915   17.3396 O   0  0  0  0  0  0
    5.8124   54.9759   17.6637 C   0  0  0  0  0  0
    6.3071   53.4494   18.5476 S   0  0  0  0  0  0
    5.2727   53.4475   20.0011 C   0  0  0  0  0  0
    5.1339   54.4243   20.9223 C   0  0  0  0  0  0
    4.1986   54.2512   22.1358 C   0  0  1  0  0  0
    3.5558   55.1315   22.1236 H   0  0  0  0  0  0
    3.2819   52.9987   21.9677 C   0  0  0  0  0  0
    3.5305   52.0768   20.9910 C   0  0  0  0  0  0
    4.5374   52.2925   20.0773 N   0  0  0  0  0  0
    2.7146   50.8406   20.6375 C   0  0  0  0  0  0
    2.1447   52.9296   22.8810 C   0  0  0  0  0  0
    1.5019   53.9391   23.1676 O   0  0  0  0  0  0
    1.8970   51.7150   23.4168 N   0  0  0  0  0  0
    0.8944   51.3821   24.3583 C   0  0  0  0  0  0
    0.7434   52.0592   25.5940 C   0  0  0  0  0  0
   -0.2652   51.6620   26.4778 C   0  0  0  0  0  0
   -1.0921   50.5859   26.1768 C   0  0  0  0  0  0
   -0.9127   49.8850   24.9918 C   0  0  0  0  0  0
    0.0743   50.2680   24.0785 C   0  0  0  0  0  0
    0.2349   49.4339   22.8145 C   0  0  0  0  0  0
    1.7108   53.1351   26.0763 C   0  0  0  0  0  0
    4.9763   54.2513   23.4499 C   0  0  0  0  0  0
    6.3155   54.0979   23.8003 C   0  0  0  0  0  0
    6.4030   54.2521   25.1866 C   0  0  0  0  0  0
    5.1162   54.4961   25.6279 C   0  0  0  0  0  0
    4.2577   54.4979   24.5772 O   0  0  0  0  0  0
    5.9820   55.5780   20.8754 C   0  0  0  0  0  0
    6.6999   56.4892   20.8583 N   0  0  0  0  0  0
   -1.9210   56.2189   16.3606 H   0  0  0  0  0  0
   -1.2563   56.1873   18.0108 H   0  0  0  0  0  0
   -0.9641   54.8454   16.8998 H   0  0  0  0  0  0
   -0.7909   58.1391   15.3690 H   0  0  0  0  0  0
    1.2904   59.2569   14.6659 H   0  0  0  0  0  0
    3.4694   58.3871   15.3829 H   0  0  0  0  0  0
    1.4778   55.2294   17.5308 H   0  0  0  0  0  0
    4.6473   57.0059   16.7807 H   0  0  0  0  0  0
    6.3918   55.0095   16.7414 H   0  0  0  0  0  0
    6.1142   55.8433   18.2514 H   0  0  0  0  0  0
    4.7041   51.5915   19.3551 H   0  0  0  0  0  0
    3.0938   49.9669   21.1688 H   0  0  0  0  0  0
    1.6618   50.9829   20.8714 H   0  0  0  0  0  0
    2.7537   50.6188   19.5684 H   0  0  0  0  0  0
    2.3916   50.9369   23.0134 H   0  0  0  0  0  0
   -0.3900   52.1673   27.4249 H   0  0  0  0  0  0
   -1.8420   50.2608   26.8849 H   0  0  0  0  0  0
   -1.5441   49.0320   24.7970 H   0  0  0  0  0  0
   -0.3567   48.5172   22.8431 H   0  0  0  0  0  0
   -0.0681   50.0113   21.9401 H   0  0  0  0  0  0
    1.2757   49.1335   22.6878 H   0  0  0  0  0  0
    1.6752   53.2633   27.1594 H   0  0  0  0  0  0
    2.7350   52.8474   25.8367 H   0  0  0  0  0  0
    1.5048   54.0965   25.6080 H   0  0  0  0  0  0
    7.1395   53.9048   23.1270 H   0  0  0  0  0  0
    7.2884   54.1876   25.7956 H   0  0  0  0  0  0
    4.6795   54.6749   26.6002 H   0  0  0  0  0  0
  1  2  1  0  0  0
  1 39  1  0  0  0
  1 40  1  0  0  0
  1 41  1  0  0  0
  2  7  2  0  0  0
  2  3  1  0  0  0
  3  4  2  0  0  0
  3 42  1  0  0  0
  4  5  1  0  0  0
  4 43  1  0  0  0
  5  6  2  0  0  0
  5 44  1  0  0  0
  6  7  1  0  0  0
  6  8  1  0  0  0
  7 45  1  0  0  0
  8  9  1  0  0  0
  8 46  1  0  0  0
  9 10  2  0  0  0
  9 11  1  0  0  0
 11 12  1  0  0  0
 11 47  1  0  0  0
 11 48  1  0  0  0
 12 13  1  0  0  0
 13 19  1  0  0  0
 13 14  2  0  0  0
 14 15  1  0  0  0
 14 37  1  0  0  0
 15 16  1  0  0  0
 15 17  1  0  0  0
 15 32  1  0  0  0
 17 18  2  0  0  0
 17 21  1  0  0  0
 18 19  1  0  0  0
 18 20  1  0  0  0
 19 49  1  0  0  0
 20 50  1  0  0  0
 20 51  1  0  0  0
 20 52  1  0  0  0
 21 22  2  0  0  0
 21 23  1  0  0  0
 23 24  1  0  0  0
 23 53  1  0  0  0
 24 29  2  0  0  0
 24 25  1  0  0  0
 25 26  2  0  0  0
 25 31  1  0  0  0
 26 27  1  0  0  0
 26 54  1  0  0  0
 27 28  2  0  0  0
 27 55  1  0  0  0
 28 29  1  0  0  0
 28 56  1  0  0  0
 29 30  1  0  0  0
 30 57  1  0  0  0
 30 58  1  0  0  0
 30 59  1  0  0  0
 31 60  1  0  0  0
 31 61  1  0  0  0
 31 62  1  0  0  0
 32 36  1  0  0  0
 32 33  2  0  0  0
 33 34  1  0  0  0
 33 63  1  0  0  0
 34 35  2  0  0  0
 34 64  1  0  0  0
 35 36  1  0  0  0
 35 65  1  0  0  0
 37 38  3  0  0  0
M  END
> <i_i_glide_confnum>
13

> <i_i_glide_lignum>
3726

> <i_i_glide_posenum>
103

> <i_i_glide_rotatable_bonds>
10

> <i_m_Source_File_Index>
1134

> <b_m_subgroup_collapsed>
0

> <r_i_docking_score>
-5.0341

> <r_i_glide_ecoul>
-4.10663

> <r_i_glide_eff_state_penalty>
0

> <r_i_glide_einternal>
8.78896

> <r_i_glide_emodel>
-62.0471

> <r_i_glide_energy>
-49.531

> <r_i_glide_erotb>
0.702128

> <r_i_glide_esite>
-0.0804069

> <r_i_glide_evdw>
-45.4244

> <r_i_glide_gscore>
-5.0341

> <r_i_glide_hbond>
-0.364952

> <r_i_glide_ligand_efficiency>
-0.136057

> <r_i_glide_ligand_efficiency_ln>
-1.09178

> <r_i_glide_ligand_efficiency_sa>
-0.453371

> <r_i_glide_lipo>
-1.93546

> <r_i_glide_metal>
0

> <r_i_glide_rewards>
-0.468195

> <s_i_glide_gridfile>
wee1_glide-grid

> <s_m_Source_File>
wee1_decoys_glide_SP.sdf

> <s_m_Source_Path>
/Users/zhangxujun/Desktop

> <s_m_entry_id>
1409

> <s_m_entry_name>
wee1_decoys_glide_SP.1134

> <s_m_subgroup_title>
wee1_decoys_glide_SP

> <s_m_subgroupid>
wee1_decoys_glide_SP


$$$$
