ZINC36221249_5406
                    3D
 Schrodinger Suite 2024-2.
 65 69  0  0  1  0            999 V2000
    0.8279   54.9700   30.4822 C   0  0  0  0  0  0
    0.3039   53.7163   30.7961 C   0  0  0  0  0  0
    0.4526   52.6626   29.8980 C   0  0  0  0  0  0
    1.1328   52.8661   28.6926 C   0  0  0  0  0  0
    1.6863   54.1179   28.4013 C   0  0  0  0  0  0
    1.5246   55.1762   29.2927 C   0  0  0  0  0  0
    1.3356   51.7035   27.7297 C   0  0  0  0  0  0
    0.2981   51.6343   26.6995 N   0  0  0  0  0  0
    0.3015   52.3562   25.5622 C   0  0  0  0  0  0
    1.2473   53.0744   25.2423 O   0  0  0  0  0  0
   -0.9553   52.3425   24.6504 C   0  0  1  0  0  0
   -1.1202   53.3843   24.3816 H   0  0  0  0  0  0
   -0.8395   51.4796   23.3893 C   0  0  2  0  0  0
   -1.4243   51.9629   22.6033 H   0  0  0  0  0  0
   -1.5599   50.3108   23.7437 O   0  0  0  0  0  0
   -2.4502   50.5241   24.7333 C   0  0  0  0  0  0
   -3.3081   49.7029   25.0486 O   0  0  0  0  0  0
   -2.1557   51.7829   25.2606 N   0  0  0  0  0  0
   -2.8746   52.3714   26.3927 C   0  0  0  0  0  0
   -4.3384   52.6967   26.1185 C   0  0  0  0  0  0
   -4.6800   53.6125   25.1196 C   0  0  0  0  0  0
   -6.0194   53.9069   24.8818 C   0  0  0  0  0  0
   -7.0126   53.2972   25.6461 C   0  0  0  0  0  0
   -6.6765   52.3893   26.6478 C   0  0  0  0  0  0
   -5.3373   52.0858   26.8831 C   0  0  0  0  0  0
    0.5280   51.2190   22.7507 C   0  0  0  0  0  0
    1.0738   49.9296   22.6969 C   0  0  0  0  0  0
    2.3043   49.7106   22.0794 C   0  0  0  0  0  0
    3.0098   50.7800   21.5335 C   0  0  0  0  0  0
    2.4960   52.0826   21.6154 C   0  0  0  0  0  0
    1.2423   52.2905   22.1972 C   0  0  0  0  0  0
    3.1850   53.1851   21.0863 N   0  0  0  0  0  0
    4.5186   53.3838   21.1569 C   0  0  0  0  0  0
    5.2711   52.7146   21.8693 O   0  0  0  0  0  0
    5.0700   54.4875   20.2841 C   0  0  0  0  0  0
    4.5412   54.7068   19.0006 C   0  0  0  0  0  0
    5.0606   55.7016   18.1734 C   0  0  0  0  0  0
    6.1248   56.4877   18.6115 C   0  0  0  0  0  0
    6.6641   56.2785   19.8797 C   0  0  0  0  0  0
    6.1399   55.2958   20.7201 C   0  0  0  0  0  0
    6.6864   55.1424   21.9511 F   0  0  0  0  0  0
    0.7042   55.7882   31.1783 H   0  0  0  0  0  0
   -0.2208   53.5592   31.7292 H   0  0  0  0  0  0
    0.0325   51.6970   30.1421 H   0  0  0  0  0  0
    2.2285   54.2751   27.4800 H   0  0  0  0  0  0
    1.9367   56.1496   29.0667 H   0  0  0  0  0  0
    2.3266   51.7944   27.2811 H   0  0  0  0  0  0
    1.3501   50.7698   28.2893 H   0  0  0  0  0  0
   -0.5078   51.0630   26.9118 H   0  0  0  0  0  0
   -2.8000   51.6942   27.2464 H   0  0  0  0  0  0
   -2.3729   53.2906   26.6943 H   0  0  0  0  0  0
   -3.9132   54.0838   24.5215 H   0  0  0  0  0  0
   -6.2955   54.5952   24.0946 H   0  0  0  0  0  0
   -8.0516   53.5276   25.4554 H   0  0  0  0  0  0
   -7.4532   51.9174   27.2340 H   0  0  0  0  0  0
   -5.0801   51.3737   27.6547 H   0  0  0  0  0  0
    0.5450   49.0851   23.1183 H   0  0  0  0  0  0
    2.7083   48.7097   22.0256 H   0  0  0  0  0  0
    3.9564   50.5907   21.0472 H   0  0  0  0  0  0
    0.8361   53.2905   22.2473 H   0  0  0  0  0  0
    2.6248   53.8902   20.6211 H   0  0  0  0  0  0
    3.7325   54.0955   18.6202 H   0  0  0  0  0  0
    4.6488   55.8544   17.1867 H   0  0  0  0  0  0
    6.5337   57.2525   17.9653 H   0  0  0  0  0  0
    7.5019   56.8731   20.2069 H   0  0  0  0  0  0
  1  6  2  0  0  0
  1  2  1  0  0  0
  1 42  1  0  0  0
  2  3  2  0  0  0
  2 43  1  0  0  0
  3  4  1  0  0  0
  3 44  1  0  0  0
  4  5  2  0  0  0
  4  7  1  0  0  0
  5  6  1  0  0  0
  5 45  1  0  0  0
  6 46  1  0  0  0
  7  8  1  0  0  0
  7 47  1  0  0  0
  7 48  1  0  0  0
  8  9  1  0  0  0
  8 49  1  0  0  0
  9 10  2  0  0  0
  9 11  1  0  0  0
 11 12  1  0  0  0
 11 18  1  0  0  0
 11 13  1  0  0  0
 13 14  1  0  0  0
 13 15  1  0  0  0
 13 26  1  0  0  0
 15 16  1  0  0  0
 16 17  2  0  0  0
 16 18  1  0  0  0
 18 19  1  0  0  0
 19 20  1  0  0  0
 19 50  1  0  0  0
 19 51  1  0  0  0
 20 25  2  0  0  0
 20 21  1  0  0  0
 21 22  2  0  0  0
 21 52  1  0  0  0
 22 23  1  0  0  0
 22 53  1  0  0  0
 23 24  2  0  0  0
 23 54  1  0  0  0
 24 25  1  0  0  0
 24 55  1  0  0  0
 25 56  1  0  0  0
 26 31  2  0  0  0
 26 27  1  0  0  0
 27 28  2  0  0  0
 27 57  1  0  0  0
 28 29  1  0  0  0
 28 58  1  0  0  0
 29 30  2  0  0  0
 29 59  1  0  0  0
 30 31  1  0  0  0
 30 32  1  0  0  0
 31 60  1  0  0  0
 32 33  1  0  0  0
 32 61  1  0  0  0
 33 34  2  0  0  0
 33 35  1  0  0  0
 35 40  2  0  0  0
 35 36  1  0  0  0
 36 37  2  0  0  0
 36 62  1  0  0  0
 37 38  1  0  0  0
 37 63  1  0  0  0
 38 39  2  0  0  0
 38 64  1  0  0  0
 39 40  1  0  0  0
 39 65  1  0  0  0
 40 41  1  0  0  0
M  END
> <i_i_glide_confnum>
257

> <i_i_glide_lignum>
5407

> <i_i_glide_posenum>
173

> <i_i_glide_rotatable_bonds>
10

> <i_m_Source_File_Index>
2847

> <b_m_subgroup_collapsed>
0

> <r_i_docking_score>
-5.66471

> <r_i_glide_ecoul>
-4.19761

> <r_i_glide_eff_state_penalty>
0

> <r_i_glide_einternal>
5.74837

> <r_i_glide_emodel>
-67.4847

> <r_i_glide_energy>
-52.3269

> <r_i_glide_erotb>
0.675418

> <r_i_glide_esite>
-0.0318537

> <r_i_glide_evdw>
-48.1293

> <r_i_glide_gscore>
-5.66471

> <r_i_glide_hbond>
-0.32

> <r_i_glide_ligand_efficiency>
-0.145249

> <r_i_glide_ligand_efficiency_ln>
-1.21467

> <r_i_glide_ligand_efficiency_sa>
-0.49257

> <r_i_glide_lipo>
-2.56526

> <r_i_glide_metal>
0

> <r_i_glide_rewards>
-0.386904

> <s_i_glide_gridfile>
wee1_glide-grid

> <s_m_Source_File>
wee1_decoys_glide_SP.sdf

> <s_m_Source_Path>
/Users/zhangxujun/Desktop

> <s_m_entry_id>
3122

> <s_m_entry_name>
wee1_decoys_glide_SP.2847

> <s_m_subgroup_title>
wee1_decoys_glide_SP

> <s_m_subgroupid>
wee1_decoys_glide_SP


$$$$
