@<TRIPOS>MOLECULE
ZINC01499308_621
38   40    1
SMALL
USER_CHARGES


@<TRIPOS>ATOM
      1 C1          5.0588   54.3565   28.4039 C.3       1 UNK         0.0000 
      2 C2          4.9332   54.3210   26.8914 C.ar      1 UNK         0.0000 
      3 C3          3.6807   54.4210   26.2787 C.ar      1 UNK         0.0000 
      4 C4          3.5677   54.3673   24.8875 C.ar      1 UNK         0.0000 
      5 C5          4.7123   54.2083   24.0979 C.ar      1 UNK         0.0000 
      6 C6          5.9624   54.0935   24.7131 C.ar      1 UNK         0.0000 
      7 C7          6.0729   54.1513   26.1027 C.ar      1 UNK         0.0000 
      8 Br8         7.5039   53.6966   23.6711 Br        1 UNK         0.0000 
      9 O9          4.6224   54.2024   22.7273 O.3       1 UNK         0.0000 
     10 C10         4.3495   52.9382   22.1254 C.3       1 UNK         0.0000 
     11 C11         4.2102   53.1342   20.6035 C.2       1 UNK         0.0000 
     12 O12         4.7166   54.1163   20.0611 O.2       1 UNK         0.0000 
     13 N13         3.5276   52.2418   19.8643 N.am      1 UNK         0.0000 
     14 N14         2.9983   51.0982   20.3402 N.2       1 UNK         0.0000 
     15 C15         2.2912   50.4449   19.4956 C.2       1 UNK         0.0000 
     16 C16         1.8185   50.7186   18.1305 C.ar      1 UNK         0.0000 
     17 C17         1.9442   51.7947   17.2401 C.ar      1 UNK         0.0000 
     18 C18         1.3619   51.7215   15.9721 C.ar      1 UNK         0.0000 
     19 C19         0.6517   50.5818   15.5892 C.ar      1 UNK         0.0000 
     20 C20         0.5153   49.5111   16.4743 C.ar      1 UNK         0.0000 
     21 C21         1.1037   49.6039   17.7349 C.ar      1 UNK         0.0000 
     22 N22         1.0985   48.6887   18.7556 N.am      1 UNK         0.0000 
     23 C23         1.7695   49.1207   19.8304 C.2       1 UNK         0.0000 
     24 O24         1.9071   48.4990   20.8825 O.2       1 UNK         0.0000 
     25 F25         1.4838   52.7580   15.1123 F         1 UNK         0.0000 
     26 Br26        1.8464   54.4967   24.0794 Br        1 UNK         0.0000 
     27 H27         4.0947   54.2296   28.8981 H         1 UNK         0.0000 
     28 H28         5.5054   55.2961   28.7300 H         1 UNK         0.0000 
     29 H29         5.7064   53.5481   28.7460 H         1 UNK         0.0000 
     30 H30         2.7899   54.5347   26.8789 H         1 UNK         0.0000 
     31 H31         7.0404   54.0331   26.5688 H         1 UNK         0.0000 
     32 H32         5.1804   52.2539   22.3010 H         1 UNK         0.0000 
     33 H33         3.4387   52.5011   22.5378 H         1 UNK         0.0000 
     34 H34         3.4246   52.3757   18.8700 H         1 UNK         0.0000 
     35 H35         2.4847   52.6925   17.4954 H         1 UNK         0.0000 
     36 H36         0.2103   50.5320   14.6054 H         1 UNK         0.0000 
     37 H37        -0.0335   48.6319   16.1719 H         1 UNK         0.0000 
     38 H38         0.6506   47.7872   18.7158 H         1 UNK         0.0000 
@<TRIPOS>BOND
     1    1    2 1    
     2    1   27 1    
     3    1   28 1    
     4    1   29 1    
     5    2    7 ar   
     6    2    3 ar   
     7    3    4 ar   
     8    3   30 1    
     9    4    5 ar   
    10    4   26 1    
    11    5    6 ar   
    12    5    9 1    
    13    6    7 ar   
    14    6    8 1    
    15    7   31 1    
    16    9   10 1    
    17   10   11 1    
    18   10   32 1    
    19   10   33 1    
    20   11   12 2    
    21   11   13 am   BACKBONE|DICT|INTERRES
    22   13   14 1    
    23   13   34 1    
    24   14   15 2    
    25   15   23 1    
    26   15   16 1    
    27   16   21 ar   
    28   16   17 ar   
    29   17   18 ar   
    30   17   35 1    
    31   18   19 ar   
    32   18   25 1    
    33   19   20 ar   
    34   19   36 1    
    35   20   21 ar   
    36   20   37 1    
    37   21   22 1    
    38   22   23 am   BACKBONE|DICT|INTERRES
    39   22   38 1    
    40   23   24 2    
@<TRIPOS>SUBSTRUCTURE
     1 UNK         1 GROUP             0       ****    0 ROOT    
