@<TRIPOS>MOLECULE
ZINC36719804_1782
31   32    1
SMALL
USER_CHARGES


@<TRIPOS>ATOM
      1 C1          5.3536   54.3043   18.5703 C.ar      1 UNK         0.0000 
      2 C2          4.7494   53.2657   19.2720 C.ar      1 UNK         0.0000 
      3 C3          4.7944   53.2338   20.6648 C.ar      1 UNK         0.0000 
      4 C4          5.4511   54.2542   21.3772 C.ar      1 UNK         0.0000 
      5 C5          6.0622   55.2966   20.6572 C.ar      1 UNK         0.0000 
      6 C6          6.0080   55.3182   19.2642 C.ar      1 UNK         0.0000 
      7 F7          6.7062   56.3072   21.2860 F         1 UNK         0.0000 
      8 C8          5.5166   54.2242   22.8818 C.2       1 UNK         0.0000 
      9 O9          6.5975   54.3239   23.4613 O.2       1 UNK         0.0000 
     10 N10         4.3139   54.0966   23.4799 N.am      1 UNK         0.0000 
     11 C11         3.9789   54.0967   24.8460 C.ar      1 UNK         0.0000 
     12 C12         2.6760   53.6962   25.1493 C.ar      1 UNK         0.0000 
     13 C13         2.2276   53.6968   26.4670 C.ar      1 UNK         0.0000 
     14 C14         3.0734   54.1359   27.4866 C.ar      1 UNK         0.0000 
     15 C15         4.3912   54.4968   27.1991 C.ar      1 UNK         0.0000 
     16 C16         4.8445   54.4839   25.8813 C.ar      1 UNK         0.0000 
     17 S17         2.4432   54.3070   29.1549 S.o2      1 UNK         0.0000 
     18 O18         1.2098   53.5222   29.2499 O.2       1 UNK         0.0000 
     19 O19         3.5593   54.0957   30.0815 O.2       1 UNK         0.0000 
     20 N20         1.9887   55.9864   29.2783 N.pl3     1 UNK         0.0000 
     21 F21         4.2116   52.1936   21.3082 F         1 UNK         0.0000 
     22 H22         5.3201   54.3172   17.4905 H         1 UNK         0.0000 
     23 H23         4.2615   52.4660   18.7321 H         1 UNK         0.0000 
     24 H24         6.4787   56.1238   18.7199 H         1 UNK         0.0000 
     25 H25         3.5390   53.9464   22.8523 H         1 UNK         0.0000 
     26 H26         1.9976   53.3853   24.3676 H         1 UNK         0.0000 
     27 H27         1.2104   53.4019   26.6833 H         1 UNK         0.0000 
     28 H28         5.0528   54.8284   27.9875 H         1 UNK         0.0000 
     29 H29         5.8569   54.8011   25.6883 H         1 UNK         0.0000 
     30 H30         0.9901   56.1600   29.4065 H         1 UNK         0.0000 
     31 H31         2.6079   56.5703   29.8456 H         1 UNK         0.0000 
@<TRIPOS>BOND
     1    1    6 ar   
     2    1    2 ar   
     3    1   22 1    
     4    2    3 ar   
     5    2   23 1    
     6    3    4 ar   
     7    3   21 1    
     8    4    5 ar   
     9    4    8 1    
    10    5    6 ar   
    11    5    7 1    
    12    6   24 1    
    13    8    9 2    
    14    8   10 am   BACKBONE|DICT|INTERRES
    15   10   11 1    
    16   10   25 1    
    17   11   16 ar   
    18   11   12 ar   
    19   12   13 ar   
    20   12   26 1    
    21   13   14 ar   
    22   13   27 1    
    23   14   15 ar   
    24   14   17 1    
    25   15   16 ar   
    26   15   28 1    
    27   16   29 1    
    28   17   18 2    
    29   17   19 2    
    30   17   20 1    
    31   20   30 1    
    32   20   31 1    
@<TRIPOS>SUBSTRUCTURE
     1 UNK         1 GROUP             0       ****    0 ROOT    
