@<TRIPOS>MOLECULE
ZINC52886385_6171
32   34    1
SMALL
USER_CHARGES


@<TRIPOS>ATOM
      1 C1          4.8548   53.1004   28.4812 C.ar      1 UNK         0.0000 
      2 C2          4.1705   52.5718   29.5724 C.ar      1 UNK         0.0000 
      3 C3          2.7836   52.6249   29.6453 C.ar      1 UNK         0.0000 
      4 C4          2.0654   53.2460   28.5935 C.ar      1 UNK         0.0000 
      5 C5          2.7665   53.7821   27.5153 C.ar      1 UNK         0.0000 
      6 C6          4.1600   53.7033   27.4276 C.ar      1 UNK         0.0000 
      7 C7          4.8777   54.1872   26.2166 C.ar      1 UNK         0.0000 
      8 C8          4.2954   54.0966   24.9427 C.ar      1 UNK         0.0000 
      9 C9          5.0237   54.4452   23.8073 C.ar      1 UNK         0.0000 
     10 C10         6.3282   54.8971   23.9744 C.ar      1 UNK         0.0000 
     11 N11         6.9037   55.0486   25.1910 N.ar      1 UNK         0.0000 
     12 C12         6.1815   54.6979   26.2844 C.ar      1 UNK         0.0000 
     13 N13         7.1044   55.1918   22.8630 N.pl3     1 UNK         0.0000 
     14 O14         0.6910   53.2806   28.5012 O.3       1 UNK         0.0000 
     15 C15        -0.0136   52.1428   28.9742 C.3       1 UNK         0.0000 
     16 C16        -0.2201   52.2369   30.4819 C.3       1 UNK         0.0000 
     17 C17         1.0156   52.6711   31.2728 C.3       1 UNK         0.0000 
     18 O18         2.2190   52.0965   30.7877 O.3       1 UNK         0.0000 
     19 H19         5.9299   53.0016   28.4483 H         1 UNK         0.0000 
     20 H20         4.7119   52.0954   30.3748 H         1 UNK         0.0000 
     21 H21         2.1972   54.2331   26.7162 H         1 UNK         0.0000 
     22 H22         3.2982   53.7031   24.8164 H         1 UNK         0.0000 
     23 H23         4.5886   54.3425   22.8243 H         1 UNK         0.0000 
     24 H24         6.6864   54.8128   27.2331 H         1 UNK         0.0000 
     25 H25         6.7603   54.9656   21.9414 H         1 UNK         0.0000 
     26 H26         8.1014   55.3047   23.0391 H         1 UNK         0.0000 
     27 H27         0.4867   51.2149   28.6858 H         1 UNK         0.0000 
     28 H28        -0.9810   52.1044   28.4729 H         1 UNK         0.0000 
     29 H29        -0.6155   51.2969   30.8652 H         1 UNK         0.0000 
     30 H30        -0.9813   52.9754   30.6827 H         1 UNK         0.0000 
     31 H31         0.8969   52.3865   32.3191 H         1 UNK         0.0000 
     32 H32         1.1051   53.7605   31.2846 H         1 UNK         0.0000 
@<TRIPOS>BOND
     1    1    6 ar   
     2    1    2 ar   
     3    1   19 1    
     4    2    3 ar   
     5    2   20 1    
     6    3   18 1    
     7    3    4 ar   
     8    4    5 ar   
     9    4   14 1    
    10    5    6 ar   
    11    5   21 1    
    12    6    7 1    
    13    7   12 ar   
    14    7    8 ar   
    15    8    9 ar   
    16    8   22 1    
    17    9   10 ar   
    18    9   23 1    
    19   10   11 ar   
    20   10   13 1    
    21   11   12 ar   
    22   12   24 1    
    23   13   25 1    
    24   13   26 1    
    25   14   15 1    
    26   15   16 1    
    27   15   27 1    
    28   15   28 1    
    29   16   17 1    
    30   16   29 1    
    31   16   30 1    
    32   17   18 1    
    33   17   31 1    
    34   17   32 1    
@<TRIPOS>SUBSTRUCTURE
     1 UNK         1 GROUP             0       ****    0 ROOT    
