ZINC00747584_4338
                    3D
 Schrodinger Suite 2024-2.
 60 63  0  0  1  0            999 V2000
    7.2286   54.2079   17.5674 C   0  0  0  0  0  0
    6.0906   54.0525   18.3540 C   0  0  0  0  0  0
    6.0557   54.5781   19.6457 C   0  0  0  0  0  0
    7.1548   55.2995   20.1349 C   0  0  0  0  0  0
    8.2918   55.4544   19.3455 C   0  0  0  0  0  0
    8.3387   54.9025   18.0609 C   0  0  0  0  0  0
    9.5960   55.0785   17.2080 C   0  0  0  0  0  0
   10.0101   56.3481   17.2496 F   0  0  0  0  0  0
   10.5650   54.2949   17.6823 F   0  0  0  0  0  0
    9.3882   54.7550   15.9295 F   0  0  0  0  0  0
    4.8848   54.3558   20.3887 N   0  0  0  0  0  0
    4.7815   54.2020   21.7229 C   0  0  0  0  0  0
    5.7385   54.1849   22.4996 O   0  0  0  0  0  0
    3.4912   54.0512   22.0821 N   0  0  0  0  0  0
    2.9637   53.7889   23.3613 C   0  0  0  0  0  0
    3.6128   54.0980   24.5577 C   0  0  0  0  0  0
    3.0071   53.8030   25.7725 C   0  0  0  0  0  0
    1.7580   53.1666   25.8484 C   0  0  0  0  0  0
    1.1087   52.8015   24.6325 C   0  0  0  0  0  0
    1.7044   53.1951   23.4174 C   0  0  0  0  0  0
   -0.2888   52.1902   24.5828 C   0  0  0  0  0  0
   -1.1231   52.5050   25.4329 O   0  0  0  0  0  0
   -0.6129   51.3313   23.5702 N   0  0  0  0  0  0
    0.3774   50.4435   22.9276 C   0  0  0  0  0  0
    0.4788   49.1725   23.7887 C   0  0  0  0  0  0
   -0.8872   48.4799   23.9760 C   0  0  0  0  0  0
   -1.9799   49.4837   24.4011 C   0  0  0  0  0  0
   -1.9756   50.7577   23.5172 C   0  0  0  0  0  0
    1.2360   52.9463   27.1410 N   0  0  0  0  0  0
    1.4205   53.8419   28.2916 C   0  0  0  0  0  0
    0.7234   53.2533   29.5201 C   0  0  0  0  0  0
   -0.0485   52.0808   28.9527 C   0  0  0  0  0  0
    0.7628   51.6893   27.7215 C   0  0  0  0  0  0
    7.2428   53.7738   16.5782 H   0  0  0  0  0  0
    5.2520   53.4935   17.9617 H   0  0  0  0  0  0
    7.1435   55.7282   21.1259 H   0  0  0  0  0  0
    9.1426   55.9952   19.7361 H   0  0  0  0  0  0
    4.0636   54.1502   19.8401 H   0  0  0  0  0  0
    2.8112   54.0599   21.3352 H   0  0  0  0  0  0
    4.5750   54.5859   24.5705 H   0  0  0  0  0  0
    3.5437   54.0718   26.6685 H   0  0  0  0  0  0
    1.1878   53.0212   22.4823 H   0  0  0  0  0  0
    1.3416   50.8941   22.7059 H   0  0  0  0  0  0
   -0.0119   50.1956   21.9388 H   0  0  0  0  0  0
    0.9271   49.4053   24.7574 H   0  0  0  0  0  0
    1.1711   48.4947   23.2945 H   0  0  0  0  0  0
   -1.1791   48.0053   23.0389 H   0  0  0  0  0  0
   -0.8035   47.6794   24.7127 H   0  0  0  0  0  0
   -2.9583   49.0050   24.3506 H   0  0  0  0  0  0
   -1.8459   49.7594   25.4490 H   0  0  0  0  0  0
   -2.7437   51.4914   23.7675 H   0  0  0  0  0  0
   -2.1821   50.5011   22.4778 H   0  0  0  0  0  0
    2.4823   53.9565   28.5099 H   0  0  0  0  0  0
    1.0537   54.8429   28.0626 H   0  0  0  0  0  0
    1.4549   52.9057   30.2520 H   0  0  0  0  0  0
    0.0567   53.9681   30.0040 H   0  0  0  0  0  0
   -1.0605   52.3567   28.6540 H   0  0  0  0  0  0
   -0.1484   51.2713   29.6738 H   0  0  0  0  0  0
    0.1432   51.1367   27.0186 H   0  0  0  0  0  0
    1.5996   51.0217   27.9305 H   0  0  0  0  0  0
  1  6  2  0  0  0
  1  2  1  0  0  0
  1 34  1  0  0  0
  2  3  2  0  0  0
  2 35  1  0  0  0
  3  4  1  0  0  0
  3 11  1  0  0  0
  4  5  2  0  0  0
  4 36  1  0  0  0
  5  6  1  0  0  0
  5 37  1  0  0  0
  6  7  1  0  0  0
  7  8  1  0  0  0
  7  9  1  0  0  0
  7 10  1  0  0  0
 11 12  1  0  0  0
 11 38  1  0  0  0
 12 13  2  0  0  0
 12 14  1  0  0  0
 14 15  1  0  0  0
 14 39  1  0  0  0
 15 20  2  0  0  0
 15 16  1  0  0  0
 16 17  2  0  0  0
 16 40  1  0  0  0
 17 18  1  0  0  0
 17 41  1  0  0  0
 18 19  2  0  0  0
 18 29  1  0  0  0
 19 20  1  0  0  0
 19 21  1  0  0  0
 20 42  1  0  0  0
 21 22  2  0  0  0
 21 23  1  0  0  0
 23 28  1  0  0  0
 23 24  1  0  0  0
 24 25  1  0  0  0
 24 43  1  0  0  0
 24 44  1  0  0  0
 25 26  1  0  0  0
 25 45  1  0  0  0
 25 46  1  0  0  0
 26 27  1  0  0  0
 26 47  1  0  0  0
 26 48  1  0  0  0
 27 28  1  0  0  0
 27 49  1  0  0  0
 27 50  1  0  0  0
 28 51  1  0  0  0
 28 52  1  0  0  0
 29 33  1  0  0  0
 29 30  1  0  0  0
 30 31  1  0  0  0
 30 53  1  0  0  0
 30 54  1  0  0  0
 31 32  1  0  0  0
 31 55  1  0  0  0
 31 56  1  0  0  0
 32 33  1  0  0  0
 32 57  1  0  0  0
 32 58  1  0  0  0
 33 59  1  0  0  0
 33 60  1  0  0  0
M  END
> <i_i_glide_confnum>
292

> <i_i_glide_lignum>
4339

> <i_i_glide_posenum>
373

> <i_i_glide_rotatable_bonds>
8

> <i_m_Source_File_Index>
3921

> <b_m_subgroup_collapsed>
0

> <r_i_docking_score>
-4.71245

> <r_i_glide_ecoul>
-2.96349

> <r_i_glide_eff_state_penalty>
0

> <r_i_glide_einternal>
10.9906

> <r_i_glide_emodel>
-54.7318

> <r_i_glide_energy>
-45.5622

> <r_i_glide_erotb>
0.664466

> <r_i_glide_esite>
-0.00863151

> <r_i_glide_evdw>
-42.5987

> <r_i_glide_gscore>
-4.71245

> <r_i_glide_hbond>
-0.169127

> <r_i_glide_ligand_efficiency>
-0.142802

> <r_i_glide_ligand_efficiency_ln>
-1.04803

> <r_i_glide_ligand_efficiency_sa>
-0.458041

> <r_i_glide_lipo>
-2.12632

> <r_i_glide_metal>
0

> <r_i_glide_rewards>
-0.49838

> <s_i_glide_gridfile>
wee1_glide-grid

> <s_m_Source_File>
wee1_decoys_glide_SP.sdf

> <s_m_Source_Path>
/Users/zhangxujun/Desktop

> <s_m_entry_id>
4196

> <s_m_entry_name>
wee1_decoys_glide_SP.3921

> <s_m_subgroup_title>
wee1_decoys_glide_SP

> <s_m_subgroupid>
wee1_decoys_glide_SP


$$$$
