@<TRIPOS>MOLECULE
ZINC02235176_2642
49   53    1
SMALL
USER_CHARGES


@<TRIPOS>ATOM
      1 C1         -0.4363   52.1068   24.6605 C.ar      1 UNK         0.0000 
      2 C2         -0.5808   51.9495   23.2837 C.ar      1 UNK         0.0000 
      3 C3          0.4382   52.3331   22.4133 C.ar      1 UNK         0.0000 
      4 C4          1.6292   52.8930   22.9308 C.ar      1 UNK         0.0000 
      5 C5          1.7790   53.0580   24.3389 C.ar      1 UNK         0.0000 
      6 C6          0.7273   52.6554   25.1965 C.ar      1 UNK         0.0000 
      7 N7          2.9343   53.5790   24.8436 N.ar      1 UNK         0.0000 
      8 C8          3.9434   53.8935   24.0229 C.ar      1 UNK         0.0000 
      9 C9          5.2848   54.3695   24.2480 C.ar      1 UNK         0.0000 
     10 C10         5.8422   54.4976   22.9691 C.ar      1 UNK         0.0000 
     11 N11         4.9118   54.1647   21.9807 N.pl3     1 UNK         0.0000 
     12 C12         3.7625   53.7329   22.6263 C.ar      1 UNK         0.0000 
     13 N13         2.6311   53.2635   22.0915 N.ar      1 UNK         0.0000 
     14 C14         5.1046   54.2336   20.5705 C.ar      1 UNK         0.0000 
     15 C15         4.6763   53.1901   19.7396 C.ar      1 UNK         0.0000 
     16 C16         4.8245   53.2970   18.3587 C.ar      1 UNK         0.0000 
     17 C17         5.3890   54.4416   17.8043 C.ar      1 UNK         0.0000 
     18 C18         5.8040   55.4888   18.6200 C.ar      1 UNK         0.0000 
     19 C19         5.6583   55.3875   19.9993 C.ar      1 UNK         0.0000 
     20 F20         5.5315   54.5420   16.4636 F         1 UNK         0.0000 
     21 N21         7.1043   54.8983   22.6123 N.pl3     1 UNK         0.0000 
     22 C22         5.9518   54.6559   25.5312 C.2       1 UNK         0.0000 
     23 O23         7.0986   55.1069   25.6086 O.2       1 UNK         0.0000 
     24 O24         5.1678   54.3709   26.6045 O.3       1 UNK         0.0000 
     25 C25         5.6424   54.6349   27.9277 C.3       1 UNK         0.0000 
     26 C26         4.6509   54.2567   29.0563 C.3       1 UNK         0.0000 
     27 H27         5.1039   54.4948   30.0166 H         1 UNK         0.0000 
     28 C28         4.1270   52.8224   29.0636 C.3       1 UNK         0.0000 
     29 C29         2.8137   52.8825   28.3152 C.3       1 UNK         0.0000 
     30 C30         2.4485   54.3695   28.2750 C.3       1 UNK         0.0000 
     31 O31         3.4577   55.0347   29.0300 O.3       1 UNK         0.0000 
     32 H32        -1.2338   51.7992   25.3207 H         1 UNK         0.0000 
     33 H33        -1.4888   51.5167   22.8886 H         1 UNK         0.0000 
     34 H34         0.3303   52.2082   21.3453 H         1 UNK         0.0000 
     35 H35         0.8270   52.7698   26.2652 H         1 UNK         0.0000 
     36 H36         4.2379   52.2901   20.1492 H         1 UNK         0.0000 
     37 H37         4.5056   52.4937   17.7124 H         1 UNK         0.0000 
     38 H38         6.2237   56.3806   18.1788 H         1 UNK         0.0000 
     39 H39         5.9511   56.2258   20.6140 H         1 UNK         0.0000 
     40 H40         7.8207   55.0975   23.3030 H         1 UNK         0.0000 
     41 H41         7.4064   54.9028   21.6485 H         1 UNK         0.0000 
     42 H42         5.8718   55.6964   28.0129 H         1 UNK         0.0000 
     43 H43         6.5925   54.1294   28.1055 H         1 UNK         0.0000 
     44 H44         3.9569   52.5158   30.0959 H         1 UNK         0.0000 
     45 H45         4.8467   52.1025   28.6699 H         1 UNK         0.0000 
     46 H46         2.0417   52.2841   28.8015 H         1 UNK         0.0000 
     47 H47         2.9437   52.4948   27.3060 H         1 UNK         0.0000 
     48 H48         1.4669   54.5653   28.7076 H         1 UNK         0.0000 
     49 H49         2.4509   54.7587   27.2576 H         1 UNK         0.0000 
@<TRIPOS>BOND
     1    1    6 ar   
     2    1    2 ar   
     3    1   32 1    
     4    2    3 ar   
     5    2   33 1    
     6    3    4 ar   
     7    3   34 1    
     8    4   13 ar   
     9    4    5 ar   
    10    5    6 ar   
    11    5    7 ar   
    12    6   35 1    
    13    7    8 ar   
    14    8   12 ar   
    15    8    9 ar   
    16    9   10 ar   
    17    9   22 1    
    18   10   11 ar   
    19   10   21 1    
    20   11   12 ar   
    21   11   14 1    
    22   12   13 ar   
    23   14   19 ar   
    24   14   15 ar   
    25   15   16 ar   
    26   15   36 1    
    27   16   17 ar   
    28   16   37 1    
    29   17   18 ar   
    30   17   20 1    
    31   18   19 ar   
    32   18   38 1    
    33   19   39 1    
    34   21   40 1    
    35   21   41 1    
    36   22   23 2    
    37   22   24 1    
    38   24   25 1    
    39   25   26 1    
    40   25   42 1    
    41   25   43 1    
    42   26   27 1    
    43   26   31 1    
    44   26   28 1    
    45   28   29 1    
    46   28   44 1    
    47   28   45 1    
    48   29   30 1    
    49   29   46 1    
    50   29   47 1    
    51   30   31 1    
    52   30   48 1    
    53   30   49 1    
@<TRIPOS>SUBSTRUCTURE
     1 UNK         1 GROUP             0       ****    0 ROOT    
