@<TRIPOS>MOLECULE
ZINC22508424_5946
54   58    1
SMALL
USER_CHARGES


@<TRIPOS>ATOM
      1 C1         -4.4763   45.5500   25.3744 C.ar      1 UNK         0.0000 
      2 C2         -5.2109   45.8637   24.2369 C.ar      1 UNK         0.0000 
      3 C3         -4.8557   46.9491   23.4399 C.ar      1 UNK         0.0000 
      4 C4         -3.7404   47.7540   23.7839 C.ar      1 UNK         0.0000 
      5 C5         -3.3736   48.8888   23.0297 C.ar      1 UNK         0.0000 
      6 C6         -2.3046   49.7270   23.3870 C.ar      1 UNK         0.0000 
      7 C7         -1.5993   49.4242   24.5786 C.ar      1 UNK         0.0000 
      8 C8         -1.8909   48.2465   25.2821 C.ar      1 UNK         0.0000 
      9 C9         -2.9772   47.4208   24.9336 C.ar      1 UNK         0.0000 
     10 C10        -3.3545   46.3014   25.7203 C.ar      1 UNK         0.0000 
     11 C11        -0.5613   50.3558   25.1796 C.2       1 UNK         0.0000 
     12 O12         0.3726   50.7987   24.5105 O.2       1 UNK         0.0000 
     13 N13        -0.7922   50.6356   26.4822 N.am      1 UNK         0.0000 
     14 C14        -0.1095   51.4635   27.3932 C.ar      1 UNK         0.0000 
     15 C15        -0.7040   51.5883   28.6501 C.ar      1 UNK         0.0000 
     16 C16        -0.0986   52.3370   29.6526 C.ar      1 UNK         0.0000 
     17 C17         1.1209   52.9590   29.4103 C.ar      1 UNK         0.0000 
     18 C18         1.7615   52.8463   28.1618 C.ar      1 UNK         0.0000 
     19 C19         1.1072   52.1196   27.1466 C.ar      1 UNK         0.0000 
     20 N20         3.0443   53.4206   27.9100 N.am      1 UNK         0.0000 
     21 C21         3.5295   53.7284   26.5531 C.3       1 UNK         0.0000 
     22 C22         4.9935   54.0985   26.6757 C.3       1 UNK         0.0000 
     23 C23         5.2238   54.2523   28.1559 C.3       1 UNK         0.0000 
     24 C24         3.9760   53.7323   28.8616 C.2       1 UNK         0.0000 
     25 O25         3.9040   53.6167   30.0852 O.2       1 UNK         0.0000 
     26 N26        -2.0445   50.8502   22.6381 N.2       1 UNK         0.0000 
     27 S27        -1.8531   50.7998   21.0779 S.o2      1 UNK         0.0000 
     28 O28        -2.4208   49.6240   20.4061 O.2       1 UNK         0.0000 
     29 O29        -2.0986   52.0999   20.4446 O.2       1 UNK         0.0000 
     30 C30        -0.0722   50.5563   20.8810 C.2       1 UNK         0.0000 
     31 C31         0.5513   49.3339   20.6629 C.2       1 UNK         0.0000 
     32 C32         1.9399   49.4543   20.5253 C.2       1 UNK         0.0000 
     33 C33         2.3743   50.7677   20.6547 C.2       1 UNK         0.0000 
     34 S34         1.0699   51.8655   20.9752 S.3       1 UNK         0.0000 
     35 H35        -4.7802   44.7167   25.9918 H         1 UNK         0.0000 
     36 H36        -6.0772   45.2731   23.9766 H         1 UNK         0.0000 
     37 H37        -5.4437   47.1950   22.5667 H         1 UNK         0.0000 
     38 H38        -3.9819   49.1332   22.1732 H         1 UNK         0.0000 
     39 H39        -1.3172   47.9762   26.1582 H         1 UNK         0.0000 
     40 H40        -2.7910   46.0647   26.6138 H         1 UNK         0.0000 
     41 H41        -1.5713   50.1373   26.8923 H         1 UNK         0.0000 
     42 H42        -1.6321   51.0772   28.8699 H         1 UNK         0.0000 
     43 H43        -0.5651   52.4154   30.6262 H         1 UNK         0.0000 
     44 H44         1.5461   53.5293   30.2195 H         1 UNK         0.0000 
     45 H45         1.5659   52.0252   26.1782 H         1 UNK         0.0000 
     46 H46         3.4340   52.8863   25.8709 H         1 UNK         0.0000 
     47 H47         2.9606   54.5590   26.1320 H         1 UNK         0.0000 
     48 H48         5.2386   55.0010   26.1129 H         1 UNK         0.0000 
     49 H49         5.6153   53.2882   26.2921 H         1 UNK         0.0000 
     50 H50         5.3528   55.2971   28.4306 H         1 UNK         0.0000 
     51 H51         6.1116   53.7125   28.4904 H         1 UNK         0.0000 
     52 H52         0.0144   48.3986   20.5906 H         1 UNK         0.0000 
     53 H53         2.6056   48.6246   20.3302 H         1 UNK         0.0000 
     54 H54         3.3878   51.1349   20.5672 H         1 UNK         0.0000 
@<TRIPOS>BOND
     1    1   10 ar   
     2    1    2 ar   
     3    1   35 1    
     4    2    3 ar   
     5    2   36 1    
     6    3    4 ar   
     7    3   37 1    
     8    4    9 ar   
     9    4    5 ar   
    10    5    6 ar   
    11    5   38 1    
    12    6    7 ar   
    13    6   26 1    
    14    7    8 ar   
    15    7   11 1    
    16    8    9 ar   
    17    8   39 1    
    18    9   10 ar   
    19   10   40 1    
    20   11   12 2    
    21   11   13 am   BACKBONE|DICT|INTERRES
    22   13   14 1    
    23   13   41 1    
    24   14   19 ar   
    25   14   15 ar   
    26   15   16 ar   
    27   15   42 1    
    28   16   17 ar   
    29   16   43 1    
    30   17   18 ar   
    31   17   44 1    
    32   18   19 ar   
    33   18   20 1    
    34   19   45 1    
    35   20   24 am   BACKBONE|DICT|INTERRES
    36   20   21 1    
    37   21   22 1    
    38   21   46 1    
    39   21   47 1    
    40   22   23 1    
    41   22   48 1    
    42   22   49 1    
    43   23   24 1    
    44   23   50 1    
    45   23   51 1    
    46   24   25 2    
    47   26   27 1    
    48   27   28 2    
    49   27   29 2    
    50   27   30 1    
    51   30   34 1    
    52   30   31 2    
    53   31   32 1    
    54   31   52 1    
    55   32   33 2    
    56   32   53 1    
    57   33   34 1    
    58   33   54 1    
@<TRIPOS>SUBSTRUCTURE
     1 UNK         1 GROUP             0       ****    0 ROOT    
