@<TRIPOS>MOLECULE
ZINC20744557_1565
41   45    1
SMALL
USER_CHARGES


@<TRIPOS>ATOM
      1 C1          1.0469   52.6581   26.2698 C.3       1 UNK         0.0000 
      2 C2          2.1567   53.2019   25.3975 C.ar      1 UNK         0.0000 
      3 C3          3.3161   53.9065   25.7505 C.ar      1 UNK         0.0000 
      4 C4          4.0159   54.0966   24.5627 C.ar      1 UNK         0.0000 
      5 N5          3.2475   53.5055   23.5792 N.pl3     1 UNK         0.0000 
      6 N6          2.1132   52.9993   24.0990 N.2       1 UNK         0.0000 
      7 C7          3.5283   53.3454   22.1994 C.ar      1 UNK         0.0000 
      8 C8          3.1378   52.1907   21.4821 C.ar      1 UNK         0.0000 
      9 C9          3.5625   52.1309   20.1338 C.ar      1 UNK         0.0000 
     10 N10         3.1048   50.9212   19.6806 N.pl3     1 UNK         0.0000 
     11 H11         3.2723   50.4962   18.7764 H         1 UNK         0.0000 
     12 C12         2.4462   50.3302   20.7339 C.ar      1 UNK         0.0000 
     13 N13         2.4385   51.0561   21.8242 N.2       1 UNK         0.0000 
     14 N14         4.2819   53.0557   19.4909 N.ar      1 UNK         0.0000 
     15 C15         4.6019   54.1144   20.2819 C.ar      1 UNK         0.0000 
     16 N16         4.2786   54.3082   21.5876 N.ar      1 UNK         0.0000 
     17 N17         5.2432   54.6643   24.3795 N.2       1 UNK         0.0000 
     18 C18         5.9117   54.8887   25.4342 C.2       1 UNK         0.0000 
     19 C19         5.5123   54.5139   26.8739 C.3       1 UNK         0.0000 
     20 C20         3.9368   54.4935   27.0249 C.3       1 UNK         0.0000 
     21 H21         3.6182   55.5285   27.0390 H         1 UNK         0.0000 
     22 C22         3.4019   53.8941   28.3258 C.ar      1 UNK         0.0000 
     23 C23         3.9945   52.7538   28.8799 C.ar      1 UNK         0.0000 
     24 C24         3.4613   52.1611   30.0184 C.ar      1 UNK         0.0000 
     25 C25         2.3071   52.6806   30.5944 C.ar      1 UNK         0.0000 
     26 C26         1.7219   53.8319   30.0752 C.ar      1 UNK         0.0000 
     27 C27         2.2764   54.4492   28.9570 C.ar      1 UNK         0.0000 
     28 F28         1.6919   55.5729   28.4820 F         1 UNK         0.0000 
     29 F29         1.7741   52.0962   31.6850 F         1 UNK         0.0000 
     30 O30         7.0923   55.5603   25.2938 O.3       1 UNK         0.0000 
     31 H31         1.3489   51.7373   26.7711 H         1 UNK         0.0000 
     32 H32         0.7506   53.3579   27.0467 H         1 UNK         0.0000 
     33 H33         0.1417   52.4302   25.7039 H         1 UNK         0.0000 
     34 H34         2.0206   49.3426   20.6168 H         1 UNK         0.0000 
     35 H35         5.1859   54.8955   19.8157 H         1 UNK         0.0000 
     36 H36         5.9499   53.5390   27.0822 H         1 UNK         0.0000 
     37 H37         5.9496   55.2158   27.5867 H         1 UNK         0.0000 
     38 H38         4.8607   52.2990   28.4281 H         1 UNK         0.0000 
     39 H39         3.9438   51.2972   30.4423 H         1 UNK         0.0000 
     40 H40         0.8383   54.2434   30.5405 H         1 UNK         0.0000 
     41 H41         7.2576   55.6852   24.3554 H         1 UNK         0.0000 
@<TRIPOS>BOND
     1    1    2 1    
     2    1   31 1    
     3    1   32 1    
     4    1   33 1    
     5    2    6 ar   
     6    2    3 ar   
     7    3   20 1    
     8    3    4 ar   
     9    4    5 ar   
    10    4   17 1    
    11    5    6 ar   
    12    5    7 1    
    13    7   16 ar   
    14    7    8 ar   
    15    8   13 ar   
    16    8    9 ar   
    17    9   10 ar   
    18    9   14 ar   
    19   10   11 1    
    20   10   12 ar   
    21   12   13 ar   
    22   12   34 1    
    23   14   15 ar   
    24   15   16 ar   
    25   15   35 1    
    26   17   18 2    
    27   18   19 1    
    28   18   30 1    
    29   19   20 1    
    30   19   36 1    
    31   19   37 1    
    32   20   21 1    
    33   20   22 1    
    34   22   27 ar   
    35   22   23 ar   
    36   23   24 ar   
    37   23   38 1    
    38   24   25 ar   
    39   24   39 1    
    40   25   26 ar   
    41   25   29 1    
    42   26   27 ar   
    43   26   40 1    
    44   27   28 1    
    45   30   41 1    
@<TRIPOS>SUBSTRUCTURE
     1 UNK         1 GROUP             0       ****    0 ROOT    
