ZINC35374418_3659
                    3D
 Schrodinger Suite 2024-2.
 56 58  0  0  1  0            999 V2000
   -1.8526   56.1471   17.7211 C   0  0  0  0  0  0
   -0.5127   55.7357   17.0942 C   0  0  0  0  0  0
   -0.6368   54.7500   15.9051 C   0  0  1  0  0  0
   -1.3061   55.2109   15.1772 H   0  0  0  0  0  0
    0.7213   54.5774   15.1918 C   0  0  0  0  0  0
   -1.2695   53.3866   16.2828 C   0  0  0  0  0  0
   -0.4642   52.6210   17.2400 N   0  0  0  0  0  0
   -0.8475   52.2419   18.4731 C   0  0  0  0  0  0
   -1.9589   52.4970   18.9442 O   0  0  0  0  0  0
    0.1795   51.4874   19.3337 C   0  0  1  0  0  0
   -0.2516   51.3068   20.3206 H   0  0  0  0  0  0
    0.6927   50.1890   18.6812 C   0  0  0  0  0  0
    2.2535   49.8171   19.5136 S   0  0  0  0  0  0
    2.5551   51.4849   20.1615 C   0  0  0  0  0  0
    1.4363   52.3446   19.5519 N   0  3  0  0  0  0
    3.8995   52.0815   19.7421 C   0  0  0  0  0  0
    4.1302   53.5018   20.2982 C   0  0  0  0  0  0
    3.9639   53.4820   21.7780 N   0  0  0  0  0  0
    2.7452   52.8571   22.3537 C   0  0  0  0  0  0
    2.4687   51.4901   21.6937 C   0  0  0  0  0  0
    4.8658   54.2019   22.5162 C   0  0  0  0  0  0
    5.7779   54.8340   21.9738 O   0  0  0  0  0  0
    4.8040   54.2580   24.0384 C   0  0  0  0  0  0
    3.6014   54.4964   24.7273 C   0  0  0  0  0  0
    3.5559   54.4971   26.1225 C   0  0  0  0  0  0
    4.7233   54.3287   26.8587 C   0  0  0  0  0  0
    5.9336   54.1407   26.1999 C   0  0  0  0  0  0
    5.9796   54.0955   24.8065 C   0  0  0  0  0  0
    7.5044   53.6968   24.0860 Cl  0  0  0  0  0  0
    4.6723   54.3505   28.5850 Cl  0  0  0  0  0  0
   -1.6975   56.9065   18.4873 H   0  0  0  0  0  0
   -2.3510   55.3004   18.1917 H   0  0  0  0  0  0
   -2.5258   56.5673   16.9735 H   0  0  0  0  0  0
   -0.0037   56.6413   16.7600 H   0  0  0  0  0  0
    0.1292   55.3082   17.8646 H   0  0  0  0  0  0
    1.4811   54.1671   15.8593 H   0  0  0  0  0  0
    0.6401   53.9117   14.3329 H   0  0  0  0  0  0
    1.0912   55.5331   14.8197 H   0  0  0  0  0  0
   -2.2877   53.5375   16.6459 H   0  0  0  0  0  0
   -1.3748   52.7695   15.3880 H   0  0  0  0  0  0
    0.4227   52.2952   16.8818 H   0  0  0  0  0  0
    0.0054   49.3506   18.8060 H   0  0  0  0  0  0
    0.9240   50.2907   17.6191 H   0  0  0  0  0  0
    1.7743   52.6654   18.6580 H   0  0  0  0  0  0
    4.7076   51.4317   20.0811 H   0  0  0  0  0  0
    3.9899   52.0969   18.6535 H   0  0  0  0  0  0
    5.1446   53.7649   19.9892 H   0  0  0  0  0  0
    3.4249   54.2058   19.8613 H   0  0  0  0  0  0
    2.8752   52.5893   23.3990 H   0  0  0  0  0  0
    1.8982   53.5270   22.2100 H   0  0  0  0  0  0
    1.5059   51.1080   22.0351 H   0  0  0  0  0  0
    3.1987   50.7724   22.0790 H   0  0  0  0  0  0
    2.6817   54.6874   24.1931 H   0  0  0  0  0  0
    2.6184   54.6315   26.6419 H   0  0  0  0  0  0
    6.8375   53.9845   26.7722 H   0  0  0  0  0  0
    1.2675   53.1833   20.0930 H   0  0  0  0  0  0
  1  2  1  0  0  0
  1 31  1  0  0  0
  1 32  1  0  0  0
  1 33  1  0  0  0
  2  3  1  0  0  0
  2 34  1  0  0  0
  2 35  1  0  0  0
  3  4  1  0  0  0
  3  5  1  0  0  0
  3  6  1  0  0  0
  5 36  1  0  0  0
  5 37  1  0  0  0
  5 38  1  0  0  0
  6  7  1  0  0  0
  6 39  1  0  0  0
  6 40  1  0  0  0
  7  8  1  0  0  0
  7 41  1  0  0  0
  8  9  2  0  0  0
  8 10  1  0  0  0
 10 11  1  0  0  0
 10 15  1  0  0  0
 10 12  1  0  0  0
 12 13  1  0  0  0
 12 42  1  0  0  0
 12 43  1  0  0  0
 13 14  1  0  0  0
 14 20  1  0  0  0
 14 15  1  0  0  0
 14 16  1  0  0  0
 15 44  1  0  0  0
 15 56  1  0  0  0
 16 17  1  0  0  0
 16 45  1  0  0  0
 16 46  1  0  0  0
 17 18  1  0  0  0
 17 47  1  0  0  0
 17 48  1  0  0  0
 18 19  1  0  0  0
 18 21  1  0  0  0
 19 20  1  0  0  0
 19 49  1  0  0  0
 19 50  1  0  0  0
 20 51  1  0  0  0
 20 52  1  0  0  0
 21 22  2  0  0  0
 21 23  1  0  0  0
 23 28  2  0  0  0
 23 24  1  0  0  0
 24 25  2  0  0  0
 24 53  1  0  0  0
 25 26  1  0  0  0
 25 54  1  0  0  0
 26 27  2  0  0  0
 26 30  1  0  0  0
 27 28  1  0  0  0
 27 55  1  0  0  0
 28 29  1  0  0  0
M  CHG  1  15   1
M  END
> <i_i_glide_confnum>
5

> <i_i_glide_lignum>
3660

> <i_i_glide_posenum>
59

> <i_i_glide_rotatable_bonds>
7

> <i_m_Source_File_Index>
5692

> <b_m_subgroup_collapsed>
0

> <r_i_docking_score>
-5.23927

> <r_i_glide_ecoul>
-6.28103

> <r_i_glide_eff_state_penalty>
0

> <r_i_glide_einternal>
7.89074

> <r_i_glide_emodel>
-51.238

> <r_i_glide_energy>
-39.9033

> <r_i_glide_erotb>
0.605069

> <r_i_glide_esite>
-0.051452

> <r_i_glide_evdw>
-33.6222

> <r_i_glide_gscore>
-5.23927

> <r_i_glide_hbond>
-0.232375

> <r_i_glide_ligand_efficiency>
-0.187117

> <r_i_glide_ligand_efficiency_ln>
-1.20938

> <r_i_glide_ligand_efficiency_sa>
-0.568196

> <r_i_glide_lipo>
-2.06146

> <r_i_glide_metal>
0

> <r_i_glide_rewards>
-0.875786

> <s_i_glide_gridfile>
wee1_glide-grid

> <s_m_Source_File>
wee1_decoys_glide_SP.sdf

> <s_m_Source_Path>
/Users/zhangxujun/Desktop

> <s_m_entry_id>
5967

> <s_m_entry_name>
wee1_decoys_glide_SP.5692

> <s_m_subgroup_title>
wee1_decoys_glide_SP

> <s_m_subgroupid>
wee1_decoys_glide_SP


$$$$
