@<TRIPOS>MOLECULE
ZINC57345561_234
51   54    1
SMALL
USER_CHARGES


@<TRIPOS>ATOM
      1 C1          0.2370   52.8233   27.5283 C.ar      1 UNK         0.0000 
      2 C2          0.1408   52.7351   28.9147 C.ar      1 UNK         0.0000 
      3 C3          1.2898   52.6557   29.6957 C.ar      1 UNK         0.0000 
      4 C4          2.5497   52.6172   29.0770 C.ar      1 UNK         0.0000 
      5 C5          2.6206   52.6175   27.6789 C.ar      1 UNK         0.0000 
      6 C6          1.4863   52.7992   26.8799 C.ar      1 UNK         0.0000 
      7 N7          1.5774   52.8972   25.4489 N.pl3     1 UNK         0.0000 
      8 C8          2.5886   53.3206   24.5639 C.ar      1 UNK         0.0000 
      9 C9          2.0662   52.9604   23.2950 C.ar      1 UNK         0.0000 
     10 N10         0.8111   52.5776   23.4207 N.2       1 UNK         0.0000 
     11 N11         0.5096   52.4889   24.7498 N.2       1 UNK         0.0000 
     12 C12         2.7068   52.9798   21.8988 C.3       1 UNK         0.0000 
     13 N13         2.1119   52.0970   20.8757 N.3       1 UNK         0.0000 
     14 C14         2.7757   52.3563   19.5828 C.3       1 UNK         0.0000 
     15 C15         2.2279   51.4760   18.4437 C.3       1 UNK         0.0000 
     16 C16         2.2445   49.9846   18.8090 C.3       1 UNK         0.0000 
     17 C17         1.5674   49.7609   20.1679 C.3       1 UNK         0.0000 
     18 C18         2.1836   50.6706   21.2514 C.3       1 UNK         0.0000 
     19 N19         1.5048   49.2052   17.7141 N.4       1 UNK         0.0000 
     20 C20         3.9313   53.9492   24.9201 C.ar      1 UNK         0.0000 
     21 C21         5.0721   53.7975   24.1064 C.ar      1 UNK         0.0000 
     22 C22         6.3108   54.2903   24.5222 C.ar      1 UNK         0.0000 
     23 N23         6.4908   54.9054   25.7116 N.ar      1 UNK         0.0000 
     24 C24         5.3932   55.0786   26.4822 C.ar      1 UNK         0.0000 
     25 C25         4.1077   54.6909   26.0963 C.ar      1 UNK         0.0000 
     26 C26         3.8408   52.6398   29.8897 C.3       1 UNK         0.0000 
     27 F27         3.9044   53.8274   30.4815 F         1 UNK         0.0000 
     28 F28         3.8612   51.6968   30.8274 F         1 UNK         0.0000 
     29 F29         4.9266   52.4966   29.1305 F         1 UNK         0.0000 
     30 Cl30        1.1065   52.6189   31.4169 Cl        1 UNK         0.0000 
     31 H31        -0.6818   52.8997   26.9639 H         1 UNK         0.0000 
     32 H32        -0.8303   52.7441   29.3883 H         1 UNK         0.0000 
     33 H33         3.5840   52.4996   27.2068 H         1 UNK         0.0000 
     34 H34         3.7419   52.6661   21.9436 H         1 UNK         0.0000 
     35 H35         2.7229   54.0082   21.5335 H         1 UNK         0.0000 
     36 H36         3.8522   52.1956   19.6805 H         1 UNK         0.0000 
     37 H37         2.6535   53.4065   19.3132 H         1 UNK         0.0000 
     38 H38         2.7738   51.6427   17.5134 H         1 UNK         0.0000 
     39 H39         1.2153   51.8148   18.2190 H         1 UNK         0.0000 
     40 H40         3.2816   49.6439   18.8823 H         1 UNK         0.0000 
     41 H41         0.4992   49.9763   20.1104 H         1 UNK         0.0000 
     42 H42         1.6124   48.7088   20.4519 H         1 UNK         0.0000 
     43 H43         3.2265   50.3982   21.4252 H         1 UNK         0.0000 
     44 H44         1.6680   50.4933   22.1954 H         1 UNK         0.0000 
     45 H45         0.6056   49.6171   17.5142 H         1 UNK         0.0000 
     46 H46         1.3899   48.2385   17.9790 H         1 UNK         0.0000 
     47 H47         5.0687   53.2547   23.1861 H         1 UNK         0.0000 
     48 H48         7.1961   54.1568   23.9154 H         1 UNK         0.0000 
     49 H49         5.5596   55.5704   27.4294 H         1 UNK         0.0000 
     50 H50         3.2753   54.9134   26.7459 H         1 UNK         0.0000 
     51 H51         2.0889   49.2352   16.8821 H         1 UNK         0.0000 
@<TRIPOS>BOND
     1    1    6 ar   
     2    1    2 ar   
     3    1   31 1    
     4    2    3 ar   
     5    2   32 1    
     6    3    4 ar   
     7    3   30 1    
     8    4    5 ar   
     9    4   26 1    
    10    5    6 ar   
    11    5   33 1    
    12    6    7 1    
    13    7   11 ar   
    14    7    8 ar   
    15    8    9 ar   
    16    8   20 1    
    17    9   10 ar   
    18    9   12 1    
    19   10   11 ar   
    20   12   13 1    
    21   12   34 1    
    22   12   35 1    
    23   13   18 1    
    24   13   14 1    
    25   14   15 1    
    26   14   36 1    
    27   14   37 1    
    28   15   16 1    
    29   15   38 1    
    30   15   39 1    
    31   16   17 1    
    32   16   19 1    
    33   16   40 1    
    34   17   18 1    
    35   17   41 1    
    36   17   42 1    
    37   18   43 1    
    38   18   44 1    
    39   19   45 1    
    40   19   46 1    
    41   19   51 1    
    42   20   25 ar   
    43   20   21 ar   
    44   21   22 ar   
    45   21   47 1    
    46   22   23 ar   
    47   22   48 1    
    48   23   24 ar   
    49   24   25 ar   
    50   24   49 1    
    51   25   50 1    
    52   26   27 1    
    53   26   28 1    
    54   26   29 1    
@<TRIPOS>SUBSTRUCTURE
     1 UNK         1 GROUP             0       ****    0 ROOT    
