@<TRIPOS>MOLECULE
ZINC32126266_4942
47   50    1
SMALL
USER_CHARGES


@<TRIPOS>ATOM
      1 C1          1.5299   51.7860   22.2617 C.ar      1 UNK         0.0000 
      2 C2          2.7271   52.3045   21.7666 C.ar      1 UNK         0.0000 
      3 C3          3.2094   53.5200   22.2555 C.ar      1 UNK         0.0000 
      4 C4          2.4621   54.2459   23.1865 C.ar      1 UNK         0.0000 
      5 C5          1.2739   53.7314   23.6819 C.ar      1 UNK         0.0000 
      6 C6          0.8089   52.4956   23.2372 C.ar      1 UNK         0.0000 
      7 N7         -0.3584   52.0440   23.8703 N.am      1 UNK         0.0000 
      8 C8         -1.1276   50.9702   23.6123 C.2       1 UNK         0.0000 
      9 O9         -1.0194   50.2313   22.6334 O.2       1 UNK         0.0000 
     10 C10        -2.2333   50.7599   24.6148 C.ar      1 UNK         0.0000 
     11 C11        -3.5376   50.5544   24.1388 C.ar      1 UNK         0.0000 
     12 C12        -4.5967   50.3488   25.0214 C.ar      1 UNK         0.0000 
     13 C13        -4.3636   50.3211   26.3940 C.ar      1 UNK         0.0000 
     14 C14        -3.0710   50.4966   26.8816 C.ar      1 UNK         0.0000 
     15 C15        -2.0019   50.7108   26.0097 C.ar      1 UNK         0.0000 
     16 Cl16       -0.4272   50.8914   26.7191 Cl        1 UNK         0.0000 
     17 Cl17       -5.6727   50.0571   27.4881 Cl        1 UNK         0.0000 
     18 N18         4.4536   54.0035   21.8105 N.pl3     1 UNK         0.0000 
     19 C19         5.4807   54.4917   22.5701 C.2       1 UNK         0.0000 
     20 S20         6.7045   55.2968   21.7656 S.2       1 UNK         0.0000 
     21 N21         5.3805   54.2253   23.9158 N.am      1 UNK         0.0000 
     22 C22         6.0345   54.6797   25.0120 C.2       1 UNK         0.0000 
     23 O23         7.1031   55.2959   24.9992 O.2       1 UNK         0.0000 
     24 C24         5.3446   54.3881   26.3327 C.ar      1 UNK         0.0000 
     25 C25         6.0106   54.6767   27.5433 C.ar      1 UNK         0.0000 
     26 C26         5.3867   54.4968   28.7829 C.ar      1 UNK         0.0000 
     27 C27         4.0924   53.9987   28.7979 C.ar      1 UNK         0.0000 
     28 C28         3.4374   53.6964   27.6439 C.ar      1 UNK         0.0000 
     29 C29         4.0268   53.8775   26.3985 C.ar      1 UNK         0.0000 
     30 O30         2.1800   53.2728   27.9339 O.3       1 UNK         0.0000 
     31 C31         2.1317   53.1438   29.3313 C.3       1 UNK         0.0000 
     32 O32         3.2724   53.7731   29.8594 O.3       1 UNK         0.0000 
     33 H33         1.1994   50.8245   21.9000 H         1 UNK         0.0000 
     34 H34         3.2892   51.7445   21.0323 H         1 UNK         0.0000 
     35 H35         2.8152   55.1976   23.5543 H         1 UNK         0.0000 
     36 H36         0.7313   54.2948   24.4266 H         1 UNK         0.0000 
     37 H37        -0.6262   52.5727   24.6849 H         1 UNK         0.0000 
     38 H38        -3.7402   50.5630   23.0771 H         1 UNK         0.0000 
     39 H39        -5.5969   50.2042   24.6405 H         1 UNK         0.0000 
     40 H40        -2.8891   50.4353   27.9459 H         1 UNK         0.0000 
     41 H41         4.5581   54.0697   20.8071 H         1 UNK         0.0000 
     42 H42         4.5750   53.6652   24.1456 H         1 UNK         0.0000 
     43 H43         7.0153   55.0765   27.5433 H         1 UNK         0.0000 
     44 H44         5.9031   54.7838   29.6819 H         1 UNK         0.0000 
     45 H45         3.4563   53.6287   25.5198 H         1 UNK         0.0000 
     46 H46         1.2229   53.6079   29.7211 H         1 UNK         0.0000 
     47 H47         2.1472   52.0819   29.5882 H         1 UNK         0.0000 
@<TRIPOS>BOND
     1    1    6 ar   
     2    1    2 ar   
     3    1   33 1    
     4    2    3 ar   
     5    2   34 1    
     6    3    4 ar   
     7    3   18 1    
     8    4    5 ar   
     9    4   35 1    
    10    5    6 ar   
    11    5   36 1    
    12    6    7 1    
    13    7    8 am   BACKBONE|DICT|INTERRES
    14    7   37 1    
    15    8    9 2    
    16    8   10 1    
    17   10   15 ar   
    18   10   11 ar   
    19   11   12 ar   
    20   11   38 1    
    21   12   13 ar   
    22   12   39 1    
    23   13   14 ar   
    24   13   17 1    
    25   14   15 ar   
    26   14   40 1    
    27   15   16 1    
    28   18   19 1    
    29   18   41 1    
    30   19   20 2    
    31   19   21 am   BACKBONE|DICT|INTERRES
    32   21   22 am   BACKBONE|DICT|INTERRES
    33   21   42 1    
    34   22   23 2    
    35   22   24 1    
    36   24   29 ar   
    37   24   25 ar   
    38   25   26 ar   
    39   25   43 1    
    40   26   27 ar   
    41   26   44 1    
    42   27   32 1    
    43   27   28 ar   
    44   28   29 ar   
    45   28   30 1    
    46   29   45 1    
    47   30   31 1    
    48   31   32 1    
    49   31   46 1    
    50   31   47 1    
@<TRIPOS>SUBSTRUCTURE
     1 UNK         1 GROUP             0       ****    0 ROOT    
