@<TRIPOS>MOLECULE
ZINC60334522_4355
57   60    1
SMALL
USER_CHARGES


@<TRIPOS>ATOM
      1 C1         -0.8954   51.6970   30.0815 C.ar      1 UNK         0.0000 
      2 C2          0.0892   52.4969   30.6394 C.ar      1 UNK         0.0000 
      3 C3          1.1545   52.9281   29.8596 C.ar      1 UNK         0.0000 
      4 C4          1.2519   52.5601   28.5044 C.ar      1 UNK         0.0000 
      5 C5          0.2369   51.7537   27.9258 C.ar      1 UNK         0.0000 
      6 C6         -0.8383   51.3546   28.7361 C.ar      1 UNK         0.0000 
      7 C7          0.2653   51.3065   26.4737 C.2       1 UNK         0.0000 
      8 O8          0.7914   52.0188   25.6169 O.2       1 UNK         0.0000 
      9 N9         -0.2934   50.0978   26.2248 N.am      1 UNK         0.0000 
     10 C10        -0.5710   49.4809   24.9916 C.ar      1 UNK         0.0000 
     11 C11        -1.0761   48.1812   25.0576 C.ar      1 UNK         0.0000 
     12 C12        -1.4364   47.5014   23.8964 C.ar      1 UNK         0.0000 
     13 C13        -1.2955   48.1156   22.6525 C.ar      1 UNK         0.0000 
     14 C14        -0.7832   49.4164   22.5618 C.ar      1 UNK         0.0000 
     15 C15        -0.4251   50.0920   23.7341 C.ar      1 UNK         0.0000 
     16 C16        -0.6147   50.1175   21.2146 C.3       1 UNK         0.0000 
     17 F17        -0.8803   49.3110   20.1866 F         1 UNK         0.0000 
     18 F18        -1.4437   51.1613   21.1509 F         1 UNK         0.0000 
     19 F19         0.6378   50.5594   21.0855 F         1 UNK         0.0000 
     20 N20         2.3820   52.9089   27.7373 N.am      1 UNK         0.0000 
     21 C21         3.2763   53.8991   27.9152 C.2       1 UNK         0.0000 
     22 O22         3.1672   54.8005   28.7487 O.2       1 UNK         0.0000 
     23 C23         4.4916   53.8479   26.9740 C.3       1 UNK         0.0000 
     24 H24         4.6147   52.8120   26.6597 H         1 UNK         0.0000 
     25 C25         5.7746   54.2587   27.7386 C.3       1 UNK         0.0000 
     26 C26         6.9483   54.2874   26.7553 C.3       1 UNK         0.0000 
     27 C27         6.6679   55.1946   25.5371 C.3       1 UNK         0.0000 
     28 N28         5.4422   54.6942   24.8822 N.am      1 UNK         0.0000 
     29 C29         4.2354   54.7469   25.7348 C.3       1 UNK         0.0000 
     30 C30         5.5248   54.0986   23.6580 C.2       1 UNK         0.0000 
     31 O31         6.6040   54.0076   23.0657 O.2       1 UNK         0.0000 
     32 C32         4.2397   53.6354   22.9181 C.3       1 UNK         0.0000 
     33 C33         4.1107   54.0964   21.4750 C.3       1 UNK         0.0000 
     34 C34         4.4529   52.6631   21.7547 C.3       1 UNK         0.0000 
     35 H35        -1.6949   51.3066   30.6969 H         1 UNK         0.0000 
     36 H36         0.0385   52.7514   31.6874 H         1 UNK         0.0000 
     37 H37         1.9185   53.5145   30.3398 H         1 UNK         0.0000 
     38 H38        -1.6363   50.7364   28.3473 H         1 UNK         0.0000 
     39 H39        -0.6061   49.5648   27.0334 H         1 UNK         0.0000 
     40 H40        -1.1972   47.6951   26.0159 H         1 UNK         0.0000 
     41 H41        -1.8307   46.4990   23.9616 H         1 UNK         0.0000 
     42 H42        -1.5861   47.5758   21.7638 H         1 UNK         0.0000 
     43 H43        -0.0559   51.0987   23.6360 H         1 UNK         0.0000 
     44 H44         2.4713   52.3752   26.8839 H         1 UNK         0.0000 
     45 H45         6.0274   53.5411   28.5234 H         1 UNK         0.0000 
     46 H46         5.7020   55.2729   28.1389 H         1 UNK         0.0000 
     47 H47         7.1720   53.2767   26.4132 H         1 UNK         0.0000 
     48 H48         7.8398   54.6271   27.2816 H         1 UNK         0.0000 
     49 H49         7.5125   55.3004   24.8546 H         1 UNK         0.0000 
     50 H50         6.4532   56.2082   25.8703 H         1 UNK         0.0000 
     51 H51         4.1254   55.7781   26.0634 H         1 UNK         0.0000 
     52 H52         3.3042   54.5414   25.2112 H         1 UNK         0.0000 
     53 H53         3.3353   53.4999   23.5045 H         1 UNK         0.0000 
     54 H54         4.8704   54.7473   21.0406 H         1 UNK         0.0000 
     55 H55         3.1095   54.3309   21.1125 H         1 UNK         0.0000 
     56 H56         3.6984   51.8973   21.5745 H         1 UNK         0.0000 
     57 H57         5.4541   52.3015   21.5157 H         1 UNK         0.0000 
@<TRIPOS>BOND
     1    1    6 ar   
     2    1    2 ar   
     3    1   35 1    
     4    2    3 ar   
     5    2   36 1    
     6    3    4 ar   
     7    3   37 1    
     8    4    5 ar   
     9    4   20 1    
    10    5    6 ar   
    11    5    7 1    
    12    6   38 1    
    13    7    8 2    
    14    7    9 am   BACKBONE|DICT|INTERRES
    15    9   10 1    
    16    9   39 1    
    17   10   15 ar   
    18   10   11 ar   
    19   11   12 ar   
    20   11   40 1    
    21   12   13 ar   
    22   12   41 1    
    23   13   14 ar   
    24   13   42 1    
    25   14   15 ar   
    26   14   16 1    
    27   15   43 1    
    28   16   17 1    
    29   16   18 1    
    30   16   19 1    
    31   20   21 am   BACKBONE|DICT|INTERRES
    32   20   44 1    
    33   21   22 2    
    34   21   23 1    
    35   23   24 1    
    36   23   29 1    
    37   23   25 1    
    38   25   26 1    
    39   25   45 1    
    40   25   46 1    
    41   26   27 1    
    42   26   47 1    
    43   26   48 1    
    44   27   28 1    
    45   27   49 1    
    46   27   50 1    
    47   28   29 1    
    48   28   30 am   BACKBONE|DICT|INTERRES
    49   29   51 1    
    50   29   52 1    
    51   30   31 2    
    52   30   32 1    
    53   32   34 1    
    54   32   33 1    
    55   32   53 1    
    56   33   34 1    
    57   33   54 1    
    58   33   55 1    
    59   34   56 1    
    60   34   57 1    
@<TRIPOS>SUBSTRUCTURE
     1 UNK         1 GROUP             0       ****    0 ROOT    
