ZINC01768885_4514
                    3D
 Schrodinger Suite 2024-2.
 46 48  0  0  1  0            999 V2000
    5.3128   54.4963   27.0977 C   0  0  0  0  0  0
    6.5819   54.4842   26.5189 C   0  0  0  0  0  0
    6.7155   54.4638   25.1283 C   0  0  0  0  0  0
    5.5851   54.4506   24.3151 C   0  0  0  0  0  0
    4.3153   54.4967   24.8983 C   0  0  0  0  0  0
    4.1777   54.4979   26.2846 C   0  0  0  0  0  0
    3.1841   54.4869   24.0696 N   0  0  0  0  0  0
    3.3034   54.1305   22.6335 C   0  0  1  0  0  0
    2.7037   54.8555   22.0811 H   0  0  0  0  0  0
    4.7459   54.2380   22.0261 C   0  0  0  0  0  0
    4.9920   54.1885   20.8246 O   0  0  0  0  0  0
    5.7260   54.3951   22.9326 N   0  0  0  0  0  0
    2.7365   52.7097   22.3239 C   0  0  0  0  0  0
    1.4964   52.2802   23.1216 C   0  0  0  0  0  0
    0.5923   53.0874   23.3350 O   0  0  0  0  0  0
    1.4772   50.9940   23.5194 N   0  0  0  0  0  0
    0.4536   50.3775   24.2480 C   0  0  0  0  0  0
   -0.0547   49.2046   23.6828 C   0  0  0  0  0  0
   -1.0990   48.5185   24.2943 C   0  0  0  0  0  0
   -1.6338   48.9972   25.4855 C   0  0  0  0  0  0
   -1.1064   50.1410   26.0817 C   0  0  0  0  0  0
   -0.0515   50.8405   25.4878 C   0  0  0  0  0  0
    0.7036   52.1855   26.3949 S   0  0  0  0  0  0
    1.0586   51.6339   28.1049 C   0  0  0  0  0  0
    1.8142   52.6532   29.0075 C   0  0  0  0  0  0
    1.0840   54.0092   29.2156 C   0  0  0  0  0  0
    0.9745   54.7087   28.0841 F   0  0  0  0  0  0
    1.7487   54.7784   30.0815 F   0  0  0  0  0  0
   -0.1526   53.8510   29.6913 F   0  0  0  0  0  0
    3.0295   52.8816   28.5066 F   0  0  0  0  0  0
    2.0222   52.0979   30.2076 F   0  0  0  0  0  0
    1.8018   50.5292   28.0341 F   0  0  0  0  0  0
   -0.0861   51.2977   28.7001 F   0  0  0  0  0  0
    5.2105   54.5102   28.1729 H   0  0  0  0  0  0
    7.4564   54.4801   27.1538 H   0  0  0  0  0  0
    7.7005   54.4428   24.6866 H   0  0  0  0  0  0
    3.1934   54.5169   26.7268 H   0  0  0  0  0  0
    2.2470   54.4406   24.4506 H   0  0  0  0  0  0
    6.6490   54.4336   22.5307 H   0  0  0  0  0  0
    3.5075   51.9565   22.4762 H   0  0  0  0  0  0
    2.4507   52.6610   21.2719 H   0  0  0  0  0  0
    2.0656   50.3703   22.9898 H   0  0  0  0  0  0
    0.3420   48.8289   22.7494 H   0  0  0  0  0  0
   -1.4948   47.6180   23.8478 H   0  0  0  0  0  0
   -2.4310   48.4634   25.9822 H   0  0  0  0  0  0
   -1.5188   50.4541   27.0275 H   0  0  0  0  0  0
  1  6  2  0  0  0
  1  2  1  0  0  0
  1 34  1  0  0  0
  2  3  2  0  0  0
  2 35  1  0  0  0
  3  4  1  0  0  0
  3 36  1  0  0  0
  4 12  1  0  0  0
  4  5  2  0  0  0
  5  6  1  0  0  0
  5  7  1  0  0  0
  6 37  1  0  0  0
  7  8  1  0  0  0
  7 38  1  0  0  0
  8  9  1  0  0  0
  8 10  1  0  0  0
  8 13  1  0  0  0
 10 11  2  0  0  0
 10 12  1  0  0  0
 12 39  1  0  0  0
 13 14  1  0  0  0
 13 40  1  0  0  0
 13 41  1  0  0  0
 14 15  2  0  0  0
 14 16  1  0  0  0
 16 17  1  0  0  0
 16 42  1  0  0  0
 17 22  2  0  0  0
 17 18  1  0  0  0
 18 19  2  0  0  0
 18 43  1  0  0  0
 19 20  1  0  0  0
 19 44  1  0  0  0
 20 21  2  0  0  0
 20 45  1  0  0  0
 21 22  1  0  0  0
 21 46  1  0  0  0
 22 23  1  0  0  0
 23 24  1  0  0  0
 24 25  1  0  0  0
 24 32  1  0  0  0
 24 33  1  0  0  0
 25 26  1  0  0  0
 25 30  1  0  0  0
 25 31  1  0  0  0
 26 27  1  0  0  0
 26 28  1  0  0  0
 26 29  1  0  0  0
M  END
> <i_i_glide_confnum>
96

> <i_i_glide_lignum>
4515

> <i_i_glide_posenum>
69

> <i_i_glide_rotatable_bonds>
8

> <i_m_Source_File_Index>
2822

> <b_m_subgroup_collapsed>
0

> <r_i_docking_score>
-6.04222

> <r_i_glide_ecoul>
-2.92209

> <r_i_glide_eff_state_penalty>
0

> <r_i_glide_einternal>
7.18846

> <r_i_glide_emodel>
-60.1307

> <r_i_glide_energy>
-46.8316

> <r_i_glide_erotb>
0.525237

> <r_i_glide_esite>
-0.0747525

> <r_i_glide_evdw>
-43.9095

> <r_i_glide_gscore>
-6.04222

> <r_i_glide_hbond>
0

> <r_i_glide_ligand_efficiency>
-0.188819

> <r_i_glide_ligand_efficiency_ln>
-1.35302

> <r_i_glide_ligand_efficiency_sa>
-0.599464

> <r_i_glide_lipo>
-2.45244

> <r_i_glide_metal>
0

> <r_i_glide_rewards>
-1.40648

> <s_i_glide_gridfile>
wee1_glide-grid

> <s_m_Source_File>
wee1_decoys_glide_SP.sdf

> <s_m_Source_Path>
/Users/zhangxujun/Desktop

> <s_m_entry_id>
3097

> <s_m_entry_name>
wee1_decoys_glide_SP.2822

> <s_m_subgroup_title>
wee1_decoys_glide_SP

> <s_m_subgroupid>
wee1_decoys_glide_SP


$$$$
