@<TRIPOS>MOLECULE
ZINC64948721_2079
42   46    1
SMALL
USER_CHARGES


@<TRIPOS>ATOM
      1 C1          4.3294   53.1932   28.9350 C.ar      1 UNK         0.0000 
      2 C2          3.5200   52.6384   29.9319 C.ar      1 UNK         0.0000 
      3 C3          2.1547   52.5909   29.6925 C.ar      1 UNK         0.0000 
      4 C4          1.6061   53.0728   28.5379 C.ar      1 UNK         0.0000 
      5 C5          2.3907   53.6224   27.5273 C.ar      1 UNK         0.0000 
      6 C6          3.7838   53.6847   27.7305 C.ar      1 UNK         0.0000 
      7 C7          4.7098   54.2343   26.6948 C.2       1 UNK         0.0000 
      8 C8          5.9117   54.8943   26.9614 C.2       1 UNK         0.0000 
      9 S9          6.7041   55.2965   25.4790 S.3       1 UNK         0.0000 
     10 C10         5.3900   54.5585   24.6249 C.2       1 UNK         0.0000 
     11 N11         4.4411   54.0963   25.4043 N.2       1 UNK         0.0000 
     12 C12         5.3655   54.4957   23.1585 C.ar      1 UNK         0.0000 
     13 C13         4.3401   54.0962   22.2957 C.ar      1 UNK         0.0000 
     14 N14         4.8711   54.2687   21.0271 N.pl3     1 UNK         0.0000 
     15 N15         6.0863   54.8207   21.1062 N.2       1 UNK         0.0000 
     16 N16         6.4052   54.8974   22.4425 N.2       1 UNK         0.0000 
     17 C17         4.3189   53.9866   19.7580 C.ar      1 UNK         0.0000 
     18 C18         4.2756   55.0095   18.7993 C.ar      1 UNK         0.0000 
     19 C19         3.6859   54.7960   17.5477 C.ar      1 UNK         0.0000 
     20 C20         3.1721   53.5297   17.2455 C.ar      1 UNK         0.0000 
     21 C21         3.2503   52.4960   18.1763 C.ar      1 UNK         0.0000 
     22 C22         3.8290   52.7100   19.4283 C.ar      1 UNK         0.0000 
     23 Cl23        3.9756   51.3525   20.4977 Cl        1 UNK         0.0000 
     24 C24         3.5919   55.9231   16.5208 C.3       1 UNK         0.0000 
     25 F25         4.3891   56.9472   16.8277 F         1 UNK         0.0000 
     26 F26         2.3360   56.3699   16.4789 F         1 UNK         0.0000 
     27 F27         3.9302   55.4804   15.3091 F         1 UNK         0.0000 
     28 N28         3.0631   53.6535   22.5337 N.pl3     1 UNK         0.0000 
     29 O29         0.2585   52.9144   28.5792 O.3       1 UNK         0.0000 
     30 C30        -0.0284   52.2708   29.7961 C.3       1 UNK         0.0000 
     31 O31         1.1781   52.0991   30.4922 O.3       1 UNK         0.0000 
     32 H32         5.3985   53.2218   29.0898 H         1 UNK         0.0000 
     33 H33         3.9540   52.2562   30.8447 H         1 UNK         0.0000 
     34 H34         1.9403   53.9887   26.6146 H         1 UNK         0.0000 
     35 H35         6.3526   55.1454   27.9156 H         1 UNK         0.0000 
     36 H36         4.6751   55.9851   19.0375 H         1 UNK         0.0000 
     37 H37         2.7175   53.3388   16.2814 H         1 UNK         0.0000 
     38 H38         2.8991   51.5084   17.9126 H         1 UNK         0.0000 
     39 H39         2.7217   53.4947   23.4692 H         1 UNK         0.0000 
     40 H40         2.4115   53.4861   21.7776 H         1 UNK         0.0000 
     41 H41        -0.4835   51.2971   29.5964 H         1 UNK         0.0000 
     42 H42        -0.6791   52.8975   30.3996 H         1 UNK         0.0000 
@<TRIPOS>BOND
     1    1    6 ar   
     2    1    2 ar   
     3    1   32 1    
     4    2    3 ar   
     5    2   33 1    
     6    3   31 1    
     7    3    4 ar   
     8    4    5 ar   
     9    4   29 1    
    10    5    6 ar   
    11    5   34 1    
    12    6    7 1    
    13    7   11 1    
    14    7    8 2    
    15    8    9 1    
    16    8   35 1    
    17    9   10 1    
    18   10   11 2    
    19   10   12 1    
    20   12   16 ar   
    21   12   13 ar   
    22   13   14 ar   
    23   13   28 1    
    24   14   15 ar   
    25   14   17 1    
    26   15   16 ar   
    27   17   22 ar   
    28   17   18 ar   
    29   18   19 ar   
    30   18   36 1    
    31   19   20 ar   
    32   19   24 1    
    33   20   21 ar   
    34   20   37 1    
    35   21   22 ar   
    36   21   38 1    
    37   22   23 1    
    38   24   25 1    
    39   24   26 1    
    40   24   27 1    
    41   28   39 1    
    42   28   40 1    
    43   29   30 1    
    44   30   31 1    
    45   30   41 1    
    46   30   42 1    
@<TRIPOS>SUBSTRUCTURE
     1 UNK         1 GROUP             0       ****    0 ROOT    
