ZINC64002344_298
                    3D
 Schrodinger Suite 2024-2.
 65 69  0  0  1  0            999 V2000
    4.6181   52.3244   20.7043 C   0  0  0  0  0  0
    4.4503   53.8598   20.8682 C   0  0  1  0  0  0
    3.3993   54.0982   20.7066 H   0  0  0  0  0  0
    4.8509   54.2530   22.2764 C   0  0  0  0  0  0
    4.2031   53.9730   23.4916 C   0  0  0  0  0  0
    4.7805   54.2904   24.6874 N   0  0  0  0  0  0
    6.0026   54.8845   24.6461 C   0  0  0  0  0  0
    6.6996   55.2110   23.5278 N   0  0  0  0  0  0
    6.0894   54.8958   22.3567 C   0  0  0  0  0  0
    6.7959   55.2974   20.7934 S   0  0  0  0  0  0
    5.2979   54.7472   19.9074 C   0  0  1  0  0  0
    4.7644   55.6695   19.6810 H   0  0  0  0  0  0
    5.5765   54.1428   18.5119 C   0  0  0  0  0  0
    6.7205   54.0659   18.0605 O   0  0  0  0  0  0
    4.4978   53.7164   17.8328 N   0  0  0  0  0  0
    4.5054   53.0793   16.5163 C   0  0  2  0  0  0
    5.3742   52.4151   16.4756 H   0  0  0  0  0  0
    4.5861   54.0963   15.3605 C   0  0  0  0  0  0
    3.2798   54.8942   15.1868 C   0  0  0  0  0  0
    2.1781   53.9965   15.0157 O   0  0  0  0  0  0
    1.9318   53.0284   16.0458 C   0  0  0  0  0  0
    3.2412   52.2207   16.2923 C   0  0  0  0  0  0
    0.8832   52.0812   15.4359 C   0  0  0  0  0  0
    1.4005   53.7264   17.3209 C   0  0  0  0  0  0
    2.9690   53.2969   23.4714 N   0  0  0  0  0  0
    2.4133   52.6091   24.6361 C   0  0  0  0  0  0
    1.2039   53.2873   25.2719 C   0  0  0  0  0  0
    0.6324   52.5211   26.4602 C   0  0  0  0  0  0
    0.5487   52.8662   27.7615 C   0  0  0  0  0  0
    1.0243   54.0626   28.4808 C   0  0  0  0  0  0
    0.8098   54.2070   29.8035 C   0  0  0  0  0  0
    0.0945   53.1470   30.4980 C   0  0  0  0  0  0
   -0.3591   52.0441   29.8486 C   0  0  0  0  0  0
   -0.1394   51.8813   28.4746 C   0  0  0  0  0  0
   -0.4912   50.8967   27.6818 N   0  3  0  0  0  0
   -0.0372   51.1696   26.3072 C   0  0  0  0  0  0
    4.1321   51.7677   21.5057 H   0  0  0  0  0  0
    4.1833   51.9581   19.7744 H   0  0  0  0  0  0
    5.6680   52.0365   20.7034 H   0  0  0  0  0  0
    6.4588   55.1246   25.5946 H   0  0  0  0  0  0
    3.5858   53.8946   18.2230 H   0  0  0  0  0  0
    5.4226   54.7780   15.5172 H   0  0  0  0  0  0
    4.8095   53.5684   14.4327 H   0  0  0  0  0  0
    3.1244   55.5494   16.0431 H   0  0  0  0  0  0
    3.3468   55.5366   14.3090 H   0  0  0  0  0  0
    3.1103   51.5294   17.1269 H   0  0  0  0  0  0
    3.4418   51.5851   15.4286 H   0  0  0  0  0  0
    0.6355   51.2671   16.1174 H   0  0  0  0  0  0
    1.2388   51.6377   14.5057 H   0  0  0  0  0  0
   -0.0397   52.6121   15.2014 H   0  0  0  0  0  0
    1.2837   53.0166   18.1399 H   0  0  0  0  0  0
    2.0333   54.5338   17.6789 H   0  0  0  0  0  0
    0.4245   54.1757   17.1365 H   0  0  0  0  0  0
    2.4882   53.2120   22.5864 H   0  0  0  0  0  0
    2.1442   51.6008   24.3172 H   0  0  0  0  0  0
    3.1752   52.4968   25.4055 H   0  0  0  0  0  0
    1.5037   54.2806   25.5954 H   0  0  0  0  0  0
    0.4140   53.4233   24.5317 H   0  0  0  0  0  0
    1.5537   54.8542   27.9714 H   0  0  0  0  0  0
    1.1442   55.0876   30.3337 H   0  0  0  0  0  0
   -0.0926   53.2404   31.5602 H   0  0  0  0  0  0
   -0.8956   51.2973   30.4198 H   0  0  0  0  0  0
   -0.9134   51.1765   25.6572 H   0  0  0  0  0  0
    0.6398   50.3657   26.0131 H   0  0  0  0  0  0
   -0.9742   50.0319   27.9646 H   0  0  0  0  0  0
  1  2  1  0  0  0
  1 37  1  0  0  0
  1 38  1  0  0  0
  1 39  1  0  0  0
  2  3  1  0  0  0
  2 11  1  0  0  0
  2  4  1  0  0  0
  4  9  2  0  0  0
  4  5  1  0  0  0
  5  6  2  0  0  0
  5 25  1  0  0  0
  6  7  1  0  0  0
  7  8  2  0  0  0
  7 40  1  0  0  0
  8  9  1  0  0  0
  9 10  1  0  0  0
 10 11  1  0  0  0
 11 12  1  0  0  0
 11 13  1  0  0  0
 13 14  2  0  0  0
 13 15  1  0  0  0
 15 16  1  0  0  0
 15 41  1  0  0  0
 16 17  1  0  0  0
 16 22  1  0  0  0
 16 18  1  0  0  0
 18 19  1  0  0  0
 18 42  1  0  0  0
 18 43  1  0  0  0
 19 20  1  0  0  0
 19 44  1  0  0  0
 19 45  1  0  0  0
 20 21  1  0  0  0
 21 22  1  0  0  0
 21 23  1  0  0  0
 21 24  1  0  0  0
 22 46  1  0  0  0
 22 47  1  0  0  0
 23 48  1  0  0  0
 23 49  1  0  0  0
 23 50  1  0  0  0
 24 51  1  0  0  0
 24 52  1  0  0  0
 24 53  1  0  0  0
 25 26  1  0  0  0
 25 54  1  0  0  0
 26 27  1  0  0  0
 26 55  1  0  0  0
 26 56  1  0  0  0
 27 28  1  0  0  0
 27 57  1  0  0  0
 27 58  1  0  0  0
 28 36  1  0  0  0
 28 29  2  0  0  0
 29 34  1  0  0  0
 29 30  1  0  0  0
 30 31  2  0  0  0
 30 59  1  0  0  0
 31 32  1  0  0  0
 31 60  1  0  0  0
 32 33  2  0  0  0
 32 61  1  0  0  0
 33 34  1  0  0  0
 33 62  1  0  0  0
 34 35  2  0  0  0
 35 36  1  0  0  0
 35 65  1  0  0  0
 36 63  1  0  0  0
 36 64  1  0  0  0
M  CHG  1  35   1
M  END
> <i_i_glide_confnum>
201

> <i_i_glide_lignum>
299

> <i_i_glide_posenum>
68

> <i_i_glide_rotatable_bonds>
7

> <i_m_Source_File_Index>
4763

> <b_m_subgroup_collapsed>
0

> <r_i_docking_score>
-4.73875

> <r_i_glide_ecoul>
-3.25385

> <r_i_glide_eff_state_penalty>
0

> <r_i_glide_einternal>
3.6904

> <r_i_glide_emodel>
-55.125

> <r_i_glide_energy>
-41.9621

> <r_i_glide_erotb>
0.555984

> <r_i_glide_esite>
-0.151817

> <r_i_glide_evdw>
-38.7083

> <r_i_glide_gscore>
-4.73875

> <r_i_glide_hbond>
-0.2

> <r_i_glide_ligand_efficiency>
-0.143599

> <r_i_glide_ligand_efficiency_ln>
-1.05387

> <r_i_glide_ligand_efficiency_sa>
-0.460597

> <r_i_glide_lipo>
-1.84184

> <r_i_glide_metal>
0

> <r_i_glide_rewards>
-0.677586

> <s_i_glide_gridfile>
wee1_glide-grid

> <s_m_Source_File>
wee1_decoys_glide_SP.sdf

> <s_m_Source_Path>
/Users/zhangxujun/Desktop

> <s_m_entry_id>
5038

> <s_m_entry_name>
wee1_decoys_glide_SP.4763

> <s_m_subgroup_title>
wee1_decoys_glide_SP

> <s_m_subgroupid>
wee1_decoys_glide_SP


$$$$
