ZINC01389174_5727
                    3D
 Schrodinger Suite 2024-2.
 54 57  0  0  1  0            999 V2000
   -3.3998   46.5663   27.2267 C   0  0  0  0  0  0
   -3.3461   46.1973   25.7486 C   0  0  0  0  0  0
   -4.0962   45.3077   25.3362 O   0  0  0  0  0  0
   -2.3827   46.8805   24.8806 C   0  0  0  0  0  0
   -1.3493   47.7319   25.2817 C   0  0  0  0  0  0
   -0.6981   48.1039   24.1299 C   0  0  0  0  0  0
   -1.3103   47.4952   23.0850 O   0  0  0  0  0  0
   -2.3734   46.7308   23.5700 N   0  0  0  0  0  0
    0.4957   48.9743   23.8202 C   0  0  0  0  0  0
    0.0978   50.1107   22.9476 N   0  0  0  0  0  0
    0.9698   50.3800   21.8603 N   0  0  0  0  0  0
    2.3071   50.8061   22.2926 C   0  0  0  0  0  0
    0.8057   49.5576   20.7142 C   0  0  0  0  0  0
   -0.4385   49.3249   20.0833 C   0  0  0  0  0  0
   -0.4742   48.5192   18.9409 C   0  0  0  0  0  0
    0.7063   47.9845   18.4124 C   0  0  0  0  0  0
    1.9035   48.2888   19.0626 C   0  0  0  0  0  0
    1.9558   49.0484   20.1820 N   0  0  0  0  0  0
    0.6702   47.0973   17.1720 C   0  0  0  0  0  0
    0.3541   47.8355   16.1076 F   0  0  0  0  0  0
   -0.2553   46.1486   17.3235 F   0  0  0  0  0  0
    1.8403   46.4971   16.9455 F   0  0  0  0  0  0
   -1.9340   50.0073   20.6326 Cl  0  0  0  0  0  0
   -0.8322   51.4614   23.6646 S   0  0  0  0  0  0
   -1.0194   52.4966   22.6400 O   0  0  0  0  0  0
   -1.9976   50.8924   24.3513 O   0  0  0  0  0  0
    0.2199   52.1681   24.9356 C   0  0  0  0  0  0
    1.1300   53.1719   24.6057 C   0  0  0  0  0  0
    1.9894   53.6967   25.5659 C   0  0  0  0  0  0
    1.9219   53.2483   26.9086 C   0  0  0  0  0  0
    2.7691   53.7759   27.9151 C   0  0  0  0  0  0
    2.6683   53.3217   29.2281 C   0  0  0  0  0  0
    1.7336   52.3502   29.5718 C   0  0  0  0  0  0
    0.8957   51.8002   28.6034 C   0  0  0  0  0  0
    0.9733   52.2382   27.2569 C   0  0  0  0  0  0
    0.1352   51.6994   26.2481 C   0  0  0  0  0  0
   -2.4790   46.2664   27.7268 H   0  0  0  0  0  0
   -3.5076   47.6453   27.3431 H   0  0  0  0  0  0
   -4.2383   46.0769   27.7201 H   0  0  0  0  0  0
   -1.0919   48.0286   26.2887 H   0  0  0  0  0  0
    1.2315   48.3800   23.2861 H   0  0  0  0  0  0
    0.9868   49.3576   24.7138 H   0  0  0  0  0  0
    2.8578   51.2366   21.4534 H   0  0  0  0  0  0
    2.2782   51.5576   23.0744 H   0  0  0  0  0  0
    2.8829   49.9575   22.6676 H   0  0  0  0  0  0
   -1.4208   48.3234   18.4546 H   0  0  0  0  0  0
    2.8580   47.9409   18.6842 H   0  0  0  0  0  0
    1.1855   53.5412   23.5915 H   0  0  0  0  0  0
    2.7050   54.4587   25.2929 H   0  0  0  0  0  0
    3.4956   54.5332   27.6592 H   0  0  0  0  0  0
    3.3226   53.7302   29.9846 H   0  0  0  0  0  0
    1.6562   52.0155   30.5970 H   0  0  0  0  0  0
    0.1765   51.0395   28.8768 H   0  0  0  0  0  0
   -0.5730   50.9253   26.5125 H   0  0  0  0  0  0
  1  2  1  0  0  0
  1 37  1  0  0  0
  1 38  1  0  0  0
  1 39  1  0  0  0
  2  3  2  0  0  0
  2  4  1  0  0  0
  4  8  2  0  0  0
  4  5  1  0  0  0
  5  6  2  0  0  0
  5 40  1  0  0  0
  6  7  1  0  0  0
  6  9  1  0  0  0
  7  8  1  0  0  0
  9 10  1  0  0  0
  9 41  1  0  0  0
  9 42  1  0  0  0
 10 11  1  0  0  0
 10 24  1  0  0  0
 11 12  1  0  0  0
 11 13  1  0  0  0
 12 43  1  0  0  0
 12 44  1  0  0  0
 12 45  1  0  0  0
 13 18  2  0  0  0
 13 14  1  0  0  0
 14 15  2  0  0  0
 14 23  1  0  0  0
 15 16  1  0  0  0
 15 46  1  0  0  0
 16 17  2  0  0  0
 16 19  1  0  0  0
 17 18  1  0  0  0
 17 47  1  0  0  0
 19 20  1  0  0  0
 19 21  1  0  0  0
 19 22  1  0  0  0
 24 25  2  0  0  0
 24 26  2  0  0  0
 24 27  1  0  0  0
 27 36  2  0  0  0
 27 28  1  0  0  0
 28 29  2  0  0  0
 28 48  1  0  0  0
 29 30  1  0  0  0
 29 49  1  0  0  0
 30 35  2  0  0  0
 30 31  1  0  0  0
 31 32  2  0  0  0
 31 50  1  0  0  0
 32 33  1  0  0  0
 32 51  1  0  0  0
 33 34  2  0  0  0
 33 52  1  0  0  0
 34 35  1  0  0  0
 34 53  1  0  0  0
 35 36  1  0  0  0
 36 54  1  0  0  0
M  END
> <i_i_glide_confnum>
77

> <i_i_glide_lignum>
5728

> <i_i_glide_posenum>
23

> <i_i_glide_rotatable_bonds>
8

> <i_m_Source_File_Index>
116

> <b_m_subgroup_collapsed>
0

> <r_i_docking_score>
-4.12

> <r_i_glide_ecoul>
-6.46548

> <r_i_glide_eff_state_penalty>
0

> <r_i_glide_einternal>
4.96859

> <r_i_glide_emodel>
-51.5183

> <r_i_glide_energy>
-42.1802

> <r_i_glide_erotb>
0.355758

> <r_i_glide_esite>
-0.204795

> <r_i_glide_evdw>
-35.7147

> <r_i_glide_gscore>
-4.12

> <r_i_glide_hbond>
-0.16

> <r_i_glide_ligand_efficiency>
-0.114444

> <r_i_glide_ligand_efficiency_ln>
-0.898872

> <r_i_glide_ligand_efficiency_sa>
-0.377887

> <r_i_glide_lipo>
-1.41035

> <r_i_glide_metal>
0

> <r_i_glide_rewards>
0.0549522

> <s_i_glide_gridfile>
wee1_glide-grid

> <s_m_Source_File>
wee1_decoys_glide_SP.sdf

> <s_m_Source_Path>
/Users/zhangxujun/Desktop

> <s_m_entry_id>
391

> <s_m_entry_name>
wee1_decoys_glide_SP.116

> <s_m_subgroup_title>
wee1_decoys_glide_SP

> <s_m_subgroupid>
wee1_decoys_glide_SP


$$$$
