@<TRIPOS>MOLECULE
ZINC30976460_4834
66   69    1
SMALL
USER_CHARGES


@<TRIPOS>ATOM
      1 C1          4.8823   53.9017   28.4979 C.3       1 UNK         0.0000 
      2 C2          5.1458   54.1047   27.0162 C.ar      1 UNK         0.0000 
      3 C3          4.0940   54.0971   26.0993 C.ar      1 UNK         0.0000 
      4 C4          4.3525   54.2887   24.7429 C.ar      1 UNK         0.0000 
      5 C5          5.6630   54.4960   24.2881 C.ar      1 UNK         0.0000 
      6 C6          6.7049   54.4995   25.2207 C.ar      1 UNK         0.0000 
      7 C7          6.4522   54.3045   26.5763 C.ar      1 UNK         0.0000 
      8 C8          5.9546   54.7433   22.8315 C.2       1 UNK         0.0000 
      9 N9          5.0646   54.4966   21.8870 N.2       1 UNK         0.0000 
     10 C10         5.6508   54.9641   20.8156 C.2       1 UNK         0.0000 
     11 O11         6.8845   55.4667   21.0522 O.3       1 UNK         0.0000 
     12 N12         7.0807   55.2948   22.4191 N.2       1 UNK         0.0000 
     13 C13         5.1221   55.0368   19.3910 C.3       1 UNK         0.0000 
     14 N14         3.9045   54.0956   19.1913 N.4       1 UNK         0.0000 
     15 C15         3.1987   54.3742   17.8365 C.3       1 UNK         0.0000 
     16 C16         1.9799   53.4312   17.6880 C.3       1 UNK         0.0000 
     17 C17         2.4392   51.9580   17.8108 C.3       1 UNK         0.0000 
     18 C18         3.1168   51.7175   19.1770 C.3       1 UNK         0.0000 
     19 C19         4.3573   52.6206   19.2821 C.3       1 UNK         0.0000 
     20 C20         1.2518   50.9755   17.6939 C.2       1 UNK         0.0000 
     21 O21         0.1703   51.2203   18.2310 O.2       1 UNK         0.0000 
     22 N22         1.5045   49.8346   17.0341 N.am      1 UNK         0.0000 
     23 C23         0.6543   48.6536   16.9605 C.3       1 UNK         0.0000 
     24 C24         0.9975   47.6712   18.0956 C.3       1 UNK         0.0000 
     25 C25         0.3481   46.2848   17.9808 C.3       1 UNK         0.0000 
     26 S26         1.0043   45.2112   16.6613 S.3       1 UNK         0.0000 
     27 C27         0.1299   43.6360   16.9548 C.3       1 UNK         0.0000 
     28 C28         0.4616   43.0352   18.3149 C.ar      1 UNK         0.0000 
     29 C29        -0.3209   43.3675   19.4227 C.ar      1 UNK         0.0000 
     30 C30         0.0410   42.9139   20.6852 C.ar      1 UNK         0.0000 
     31 C31         1.1538   42.0966   20.8382 C.ar      1 UNK         0.0000 
     32 C32         1.9057   41.7091   19.7316 C.ar      1 UNK         0.0000 
     33 C33         1.5633   42.1860   18.4658 C.ar      1 UNK         0.0000 
     34 F34         1.5040   41.6968   22.0779 F         1 UNK         0.0000 
     35 H35         3.8281   53.7157   28.7103 H         1 UNK         0.0000 
     36 H36         5.4614   53.0554   28.8696 H         1 UNK         0.0000 
     37 H37         5.2002   54.7840   29.0569 H         1 UNK         0.0000 
     38 H38         3.0771   53.9434   26.4324 H         1 UNK         0.0000 
     39 H39         3.5230   54.2892   24.0498 H         1 UNK         0.0000 
     40 H40         7.7216   54.6506   24.8907 H         1 UNK         0.0000 
     41 H41         7.2683   54.3076   27.2843 H         1 UNK         0.0000 
     42 H42         5.8597   54.7388   18.6430 H         1 UNK         0.0000 
     43 H43         4.7707   56.0419   19.1562 H         1 UNK         0.0000 
     44 H44         3.9328   54.2419   17.0397 H         1 UNK         0.0000 
     45 H45         2.8653   55.4130   17.8632 H         1 UNK         0.0000 
     46 H46         1.5555   53.6304   16.7023 H         1 UNK         0.0000 
     47 H47         1.2790   53.6964   18.4809 H         1 UNK         0.0000 
     48 H48         3.1248   51.7004   16.9983 H         1 UNK         0.0000 
     49 H49         2.4629   51.9770   20.0126 H         1 UNK         0.0000 
     50 H50         3.4900   50.6952   19.2713 H         1 UNK         0.0000 
     51 H51         5.0781   52.4973   18.4725 H         1 UNK         0.0000 
     52 H52         4.8493   52.4552   20.2408 H         1 UNK         0.0000 
     53 H53         2.4635   49.6952   16.7085 H         1 UNK         0.0000 
     54 H54         0.8304   48.1735   15.9966 H         1 UNK         0.0000 
     55 H55        -0.4091   48.9010   16.9617 H         1 UNK         0.0000 
     56 H56         0.7069   48.1208   19.0468 H         1 UNK         0.0000 
     57 H57         2.0810   47.5436   18.1497 H         1 UNK         0.0000 
     58 H58        -0.7297   46.3826   17.8481 H         1 UNK         0.0000 
     59 H59         0.5003   45.7851   18.9354 H         1 UNK         0.0000 
     60 H60         0.3970   42.9344   16.1627 H         1 UNK         0.0000 
     61 H61        -0.9442   43.8018   16.8653 H         1 UNK         0.0000 
     62 H62        -1.1705   44.0277   19.3157 H         1 UNK         0.0000 
     63 H63        -0.5105   43.2405   21.5559 H         1 UNK         0.0000 
     64 H64         2.7701   41.0734   19.8613 H         1 UNK         0.0000 
     65 H65         2.1735   41.9267   17.6110 H         1 UNK         0.0000 
     66 H66         3.2313   54.2811   19.9269 H         1 UNK         0.0000 
@<TRIPOS>BOND
     1    1    2 1    
     2    1   35 1    
     3    1   36 1    
     4    1   37 1    
     5    2    7 ar   
     6    2    3 ar   
     7    3    4 ar   
     8    3   38 1    
     9    4    5 ar   
    10    4   39 1    
    11    5    6 ar   
    12    5    8 1    
    13    6    7 ar   
    14    6   40 1    
    15    7   41 1    
    16    8   12 2    
    17    8    9 1    
    18    9   10 2    
    19   10   11 1    
    20   10   13 1    
    21   11   12 1    
    22   13   14 1    
    23   13   42 1    
    24   13   43 1    
    25   14   19 1    
    26   14   15 1    
    27   14   66 1    
    28   15   16 1    
    29   15   44 1    
    30   15   45 1    
    31   16   17 1    
    32   16   46 1    
    33   16   47 1    
    34   17   18 1    
    35   17   20 1    
    36   17   48 1    
    37   18   19 1    
    38   18   49 1    
    39   18   50 1    
    40   19   51 1    
    41   19   52 1    
    42   20   21 2    
    43   20   22 am   BACKBONE|DICT|INTERRES
    44   22   23 1    
    45   22   53 1    
    46   23   24 1    
    47   23   54 1    
    48   23   55 1    
    49   24   25 1    
    50   24   56 1    
    51   24   57 1    
    52   25   26 1    
    53   25   58 1    
    54   25   59 1    
    55   26   27 1    
    56   27   28 1    
    57   27   60 1    
    58   27   61 1    
    59   28   33 ar   
    60   28   29 ar   
    61   29   30 ar   
    62   29   62 1    
    63   30   31 ar   
    64   30   63 1    
    65   31   32 ar   
    66   31   34 1    
    67   32   33 ar   
    68   32   64 1    
    69   33   65 1    
@<TRIPOS>SUBSTRUCTURE
     1 UNK         1 GROUP             0       ****    0 ROOT    
