@<TRIPOS>MOLECULE
ZINC39534434_367
72   74    1
SMALL
USER_CHARGES


@<TRIPOS>ATOM
      1 C1         -1.0422   45.5090   19.3003 C.3       1 UNK         0.0000 
      2 C2          0.3050   45.3841   18.5632 C.3       1 UNK         0.0000 
      3 C3          0.3061   44.2535   17.5202 C.3       1 UNK         0.0000 
      4 S4          0.7419   47.0182   17.6971 S.o2      1 UNK         0.0000 
      5 O5          2.1088   46.8969   17.1779 O.2       1 UNK         0.0000 
      6 O6         -0.3659   47.3798   16.8023 O.2       1 UNK         0.0000 
      7 C7          0.7750   48.2171   19.0300 C.ar      1 UNK         0.0000 
      8 C8          1.9041   48.3200   19.8446 C.ar      1 UNK         0.0000 
      9 C9          1.9049   49.2092   20.9181 C.ar      1 UNK         0.0000 
     10 C10         0.7846   50.0122   21.1690 C.ar      1 UNK         0.0000 
     11 C11        -0.3278   49.9264   20.3243 C.ar      1 UNK         0.0000 
     12 C12        -0.3357   49.0300   19.2602 C.ar      1 UNK         0.0000 
     13 C13         0.7410   50.9643   22.3775 C.3       1 UNK         0.0000 
     14 H14        -0.0751   51.6675   22.2027 H         1 UNK         0.0000 
     15 C15         2.0301   51.8325   22.5049 C.3       1 UNK         0.0000 
     16 N16         2.4977   52.4943   21.2657 N.pl3     1 UNK         0.0000 
     17 S17         4.2198   52.8326   21.0824 S.o2      1 UNK         0.0000 
     18 O18         4.9626   51.7099   21.6644 O.2       1 UNK         0.0000 
     19 O19         4.4235   53.2102   19.6820 O.2       1 UNK         0.0000 
     20 C20         4.5727   54.3942   22.1261 C.3       1 UNK         0.0000 
     21 C21         4.1876   54.2142   23.6062 C.3       1 UNK         0.0000 
     22 C22         6.0647   54.7499   21.9804 C.3       1 UNK         0.0000 
     23 N23         0.4522   50.2431   23.6516 N.3       1 UNK         0.0000 
     24 C24        -0.7723   49.4229   23.5915 C.3       1 UNK         0.0000 
     25 C25        -0.9666   48.5991   24.8810 C.3       1 UNK         0.0000 
     26 N26        -1.0629   49.5512   26.0817 N.4       1 UNK         0.0000 
     27 C27         0.1893   50.4373   26.1896 C.3       1 UNK         0.0000 
     28 H28         0.9876   49.7346   26.4426 H         1 UNK         0.0000 
     29 C29         0.4587   51.1340   24.8310 C.3       1 UNK         0.0000 
     30 C30        -0.0503   51.4252   27.3559 C.3       1 UNK         0.0000 
     31 C31         1.2059   52.1832   27.7789 C.ar      1 UNK         0.0000 
     32 C32         1.9224   51.7544   28.8969 C.ar      1 UNK         0.0000 
     33 C33         3.0769   52.4305   29.2936 C.ar      1 UNK         0.0000 
     34 C34         3.5127   53.5353   28.5645 C.ar      1 UNK         0.0000 
     35 C35         2.8023   53.9715   27.4482 C.ar      1 UNK         0.0000 
     36 C36         1.6464   53.2981   27.0591 C.ar      1 UNK         0.0000 
     37 H37        -1.3208   44.5680   19.7769 H         1 UNK         0.0000 
     38 H38        -1.8446   45.7867   18.6131 H         1 UNK         0.0000 
     39 H39        -0.9992   46.2680   20.0817 H         1 UNK         0.0000 
     40 H40         1.1042   45.2126   19.2814 H         1 UNK         0.0000 
     41 H41         0.1041   43.2853   17.9791 H         1 UNK         0.0000 
     42 H42        -0.4492   44.4253   16.7505 H         1 UNK         0.0000 
     43 H43         1.2722   44.1838   17.0176 H         1 UNK         0.0000 
     44 H44         2.7715   47.7031   19.6539 H         1 UNK         0.0000 
     45 H45         2.7764   49.2636   21.5572 H         1 UNK         0.0000 
     46 H46        -1.1982   50.5398   20.5029 H         1 UNK         0.0000 
     47 H47        -1.2076   48.9604   18.6237 H         1 UNK         0.0000 
     48 H48         1.8602   52.6258   23.2245 H         1 UNK         0.0000 
     49 H49         2.8346   51.2058   22.8816 H         1 UNK         0.0000 
     50 H50         1.8838   53.2115   20.8672 H         1 UNK         0.0000 
     51 H51         3.9589   55.1761   21.6821 H         1 UNK         0.0000 
     52 H52         4.5694   55.0326   24.2165 H         1 UNK         0.0000 
     53 H53         3.1095   54.2081   23.7469 H         1 UNK         0.0000 
     54 H54         4.5967   53.2969   24.0233 H         1 UNK         0.0000 
     55 H55         6.3059   55.7062   22.4408 H         1 UNK         0.0000 
     56 H56         6.6945   54.0008   22.4596 H         1 UNK         0.0000 
     57 H57         6.3538   54.8156   20.9303 H         1 UNK         0.0000 
     58 H58        -1.6279   50.0894   23.4655 H         1 UNK         0.0000 
     59 H59        -0.7400   48.7222   22.7578 H         1 UNK         0.0000 
     60 H60        -1.8953   48.0269   24.8823 H         1 UNK         0.0000 
     61 H61        -0.1293   47.9276   25.0826 H         1 UNK         0.0000 
     62 H62        -1.8850   50.1315   26.0010 H         1 UNK         0.0000 
     63 H63         1.4087   51.6506   24.9451 H         1 UNK         0.0000 
     64 H64        -0.3310   51.8726   24.6876 H         1 UNK         0.0000 
     65 H65        -0.8265   52.1495   27.1005 H         1 UNK         0.0000 
     66 H66        -0.4451   50.8965   28.2273 H         1 UNK         0.0000 
     67 H67         1.5826   50.8967   29.4548 H         1 UNK         0.0000 
     68 H68         3.6364   52.1000   30.1569 H         1 UNK         0.0000 
     69 H69         4.4115   54.0563   28.8629 H         1 UNK         0.0000 
     70 H70         3.1473   54.8262   26.8848 H         1 UNK         0.0000 
     71 H71         1.1046   53.6435   26.1922 H         1 UNK         0.0000 
     72 H72        -1.1822   49.0198   26.9593 H         1 UNK         0.0000 
@<TRIPOS>BOND
     1    1    2 1    
     2    1   37 1    
     3    1   38 1    
     4    1   39 1    
     5    2    3 1    
     6    2    4 1    
     7    2   40 1    
     8    3   41 1    
     9    3   42 1    
    10    3   43 1    
    11    4    5 2    
    12    4    6 2    
    13    4    7 1    
    14    7   12 ar   
    15    7    8 ar   
    16    8    9 ar   
    17    8   44 1    
    18    9   10 ar   
    19    9   45 1    
    20   10   11 ar   
    21   10   13 1    
    22   11   12 ar   
    23   11   46 1    
    24   12   47 1    
    25   13   14 1    
    26   13   15 1    
    27   13   23 1    
    28   15   16 1    
    29   15   48 1    
    30   15   49 1    
    31   16   17 1    
    32   16   50 1    
    33   17   18 2    
    34   17   19 2    
    35   17   20 1    
    36   20   21 1    
    37   20   22 1    
    38   20   51 1    
    39   21   52 1    
    40   21   53 1    
    41   21   54 1    
    42   22   55 1    
    43   22   56 1    
    44   22   57 1    
    45   23   29 1    
    46   23   24 1    
    47   24   25 1    
    48   24   58 1    
    49   24   59 1    
    50   25   26 1    
    51   25   60 1    
    52   25   61 1    
    53   26   27 1    
    54   26   62 1    
    55   26   72 1    
    56   27   28 1    
    57   27   29 1    
    58   27   30 1    
    59   29   63 1    
    60   29   64 1    
    61   30   31 1    
    62   30   65 1    
    63   30   66 1    
    64   31   36 ar   
    65   31   32 ar   
    66   32   33 ar   
    67   32   67 1    
    68   33   34 ar   
    69   33   68 1    
    70   34   35 ar   
    71   34   69 1    
    72   35   36 ar   
    73   35   70 1    
    74   36   71 1    
@<TRIPOS>SUBSTRUCTURE
     1 UNK         1 GROUP             0       ****    0 ROOT    
