@<TRIPOS>MOLECULE
ZINC16021446_4444
64   67    1
SMALL
USER_CHARGES


@<TRIPOS>ATOM
      1 C1          6.2085   54.8174   20.4640 C.3       1 UNK         0.0000 
      2 C2          5.7858   54.5948   21.9048 C.ar      1 UNK         0.0000 
      3 C3          6.7042   54.7356   22.9457 C.ar      1 UNK         0.0000 
      4 C4          6.2990   54.5790   24.2717 C.ar      1 UNK         0.0000 
      5 C5          4.9583   54.2892   24.5718 C.ar      1 UNK         0.0000 
      6 C6          4.0398   54.1054   23.5188 C.ar      1 UNK         0.0000 
      7 C7          4.4656   54.2487   22.1942 C.ar      1 UNK         0.0000 
      8 C8          2.5697   53.7912   23.7790 C.3       1 UNK         0.0000 
      9 N9          4.4596   54.2967   25.8866 N.am      1 UNK         0.0000 
     10 C10         5.0807   54.1202   27.0733 C.2       1 UNK         0.0000 
     11 O11         6.2370   53.7120   27.1874 O.2       1 UNK         0.0000 
     12 C12         4.2671   54.5147   28.3445 C.3       1 UNK         0.0000 
     13 C13         4.3382   53.4781   29.4818 C.3       1 UNK         0.0000 
     14 C14         3.4634   52.2496   29.2937 C.3       1 UNK         0.0000 
     15 C15         2.0240   52.4996   28.7883 C.3       1 UNK         0.0000 
     16 C16         1.9003   53.6427   27.7472 C.3       1 UNK         0.0000 
     17 C17         2.7788   54.8682   28.0762 C.3       1 UNK         0.0000 
     18 C18         1.4015   51.1539   28.3698 C.3       1 UNK         0.0000 
     19 N19         0.1478   51.1805   27.6291 N.am      1 UNK         0.0000 
     20 C20        -1.0267   51.5729   28.1394 C.2       1 UNK         0.0000 
     21 O21        -1.1191   52.0960   29.2518 O.2       1 UNK         0.0000 
     22 C22        -2.2683   51.2984   27.2570 C.3       1 UNK         0.0000 
     23 H23        -2.0174   50.4651   26.5953 H         1 UNK         0.0000 
     24 C24        -3.5215   50.9640   28.1105 C.3       1 UNK         0.0000 
     25 C25        -4.8069   50.9858   27.2840 C.ar      1 UNK         0.0000 
     26 C26        -5.9747   50.3780   27.7561 C.ar      1 UNK         0.0000 
     27 C27        -7.1620   50.4454   27.0318 C.ar      1 UNK         0.0000 
     28 C28        -7.1949   51.1274   25.8200 C.ar      1 UNK         0.0000 
     29 C29        -6.0365   51.7268   25.3315 C.ar      1 UNK         0.0000 
     30 C30        -4.8348   51.6616   26.0456 C.ar      1 UNK         0.0000 
     31 C31        -3.5504   52.2536   25.4666 C.3       1 UNK         0.0000 
     32 N32        -2.5169   52.5065   26.4687 N.3       1 UNK         0.0000 
     33 H33         7.2902   54.9197   20.3628 H         1 UNK         0.0000 
     34 H34         5.7271   55.7098   20.0623 H         1 UNK         0.0000 
     35 H35         5.8951   53.9736   19.8473 H         1 UNK         0.0000 
     36 H36         7.7275   54.9943   22.7243 H         1 UNK         0.0000 
     37 H37         7.0249   54.7384   25.0539 H         1 UNK         0.0000 
     38 H38         3.7585   54.1298   21.3838 H         1 UNK         0.0000 
     39 H39         2.1229   54.5531   24.4207 H         1 UNK         0.0000 
     40 H40         1.9850   53.7479   22.8571 H         1 UNK         0.0000 
     41 H41         2.4761   52.8313   24.2896 H         1 UNK         0.0000 
     42 H42         3.4639   54.4377   25.9433 H         1 UNK         0.0000 
     43 H43         4.8683   55.3421   28.6978 H         1 UNK         0.0000 
     44 H44         5.3546   53.1514   29.6500 H         1 UNK         0.0000 
     45 H45         4.1418   53.9802   30.4289 H         1 UNK         0.0000 
     46 H46         3.4794   51.6037   30.1716 H         1 UNK         0.0000 
     47 H47         3.9869   51.7036   28.5191 H         1 UNK         0.0000 
     48 H48         1.4886   52.8782   29.6616 H         1 UNK         0.0000 
     49 H49         0.8562   53.9180   27.5952 H         1 UNK         0.0000 
     50 H50         2.2314   53.2449   26.7891 H         1 UNK         0.0000 
     51 H51         2.3889   55.3833   28.9561 H         1 UNK         0.0000 
     52 H52         2.7042   55.6597   27.3305 H         1 UNK         0.0000 
     53 H53         2.0871   50.6541   27.6912 H         1 UNK         0.0000 
     54 H54         1.3442   50.4983   29.2377 H         1 UNK         0.0000 
     55 H55         0.1421   50.7162   26.7344 H         1 UNK         0.0000 
     56 H56        -3.3925   49.9960   28.5986 H         1 UNK         0.0000 
     57 H57        -3.6509   51.7011   28.9014 H         1 UNK         0.0000 
     58 H58        -5.9623   49.8577   28.7027 H         1 UNK         0.0000 
     59 H59        -8.0559   49.9746   27.4135 H         1 UNK         0.0000 
     60 H60        -8.1133   51.1840   25.2546 H         1 UNK         0.0000 
     61 H61        -6.0707   52.2354   24.3787 H         1 UNK         0.0000 
     62 H62        -3.7695   53.2067   24.9838 H         1 UNK         0.0000 
     63 H63        -3.1674   51.5876   24.6919 H         1 UNK         0.0000 
     64 H64        -1.6694   52.7847   25.9957 H         1 UNK         0.0000 
@<TRIPOS>BOND
     1    1    2 1    
     2    1   33 1    
     3    1   34 1    
     4    1   35 1    
     5    2    7 ar   
     6    2    3 ar   
     7    3    4 ar   
     8    3   36 1    
     9    4    5 ar   
    10    4   37 1    
    11    5    6 ar   
    12    5    9 1    
    13    6    7 ar   
    14    6    8 1    
    15    7   38 1    
    16    8   39 1    
    17    8   40 1    
    18    8   41 1    
    19    9   10 am   BACKBONE|DICT|INTERRES
    20    9   42 1    
    21   10   11 2    
    22   10   12 1    
    23   12   17 1    
    24   12   13 1    
    25   12   43 1    
    26   13   14 1    
    27   13   44 1    
    28   13   45 1    
    29   14   15 1    
    30   14   46 1    
    31   14   47 1    
    32   15   16 1    
    33   15   18 1    
    34   15   48 1    
    35   16   17 1    
    36   16   49 1    
    37   16   50 1    
    38   17   51 1    
    39   17   52 1    
    40   18   19 1    
    41   18   53 1    
    42   18   54 1    
    43   19   20 am   BACKBONE|DICT|INTERRES
    44   19   55 1    
    45   20   21 2    
    46   20   22 1    
    47   22   23 1    
    48   22   32 1    
    49   22   24 1    
    50   24   25 1    
    51   24   56 1    
    52   24   57 1    
    53   25   30 ar   
    54   25   26 ar   
    55   26   27 ar   
    56   26   58 1    
    57   27   28 ar   
    58   27   59 1    
    59   28   29 ar   
    60   28   60 1    
    61   29   30 ar   
    62   29   61 1    
    63   30   31 1    
    64   31   32 1    
    65   31   62 1    
    66   31   63 1    
    67   32   64 1    
@<TRIPOS>SUBSTRUCTURE
     1 UNK         1 GROUP             0       ****    0 ROOT    
