ZINC63778231_5119
                    3D
 Schrodinger Suite 2024-2.
 55 58  0  0  1  0            999 V2000
    6.7028   54.8241   22.7025 C   0  0  0  0  0  0
    7.2769   55.5856   21.6844 C   0  0  0  0  0  0
    6.6844   55.6198   20.4213 C   0  0  0  0  0  0
    5.5282   54.8834   20.1729 C   0  0  0  0  0  0
    4.9537   54.1011   21.1853 C   0  0  0  0  0  0
    5.5506   54.0827   22.4525 C   0  0  0  0  0  0
    3.6884   53.2939   20.9052 C   0  0  0  0  0  0
    2.7534   53.2962   22.0283 N   0  0  0  0  0  0
    2.2140   52.2169   22.6194 C   0  0  0  0  0  0
    2.4049   51.0726   22.2102 O   0  0  0  0  0  0
    1.2984   52.4396   23.8440 C   0  0  1  0  0  0
    1.3378   51.5273   24.4440 H   0  0  0  0  0  0
    1.6148   53.7027   24.7058 C   0  0  0  0  0  0
    2.2045   53.4212   26.0746 C   0  0  0  0  0  0
    3.4023   53.7374   26.6000 C   0  0  0  0  0  0
    4.5645   54.4231   26.0132 C   0  0  0  0  0  0
    5.6958   54.5903   26.7252 C   0  0  0  0  0  0
    5.7238   54.0964   28.0958 C   0  0  0  0  0  0
    4.6457   53.4882   28.6611 C   0  0  0  0  0  0
    3.4725   53.2966   27.9259 C   0  0  0  0  0  0
    2.3462   52.7296   28.2861 N   0  3  0  0  0  0
    1.3998   52.7373   27.1614 C   0  0  0  0  0  0
   -0.0651   52.5453   23.2782 N   0  0  0  0  0  0
   -1.4882   52.1656   24.2329 S   0  0  0  0  0  0
   -1.2150   52.4962   25.6374 O   0  0  0  0  0  0
   -2.6421   52.7307   23.5227 O   0  0  0  0  0  0
   -1.6188   50.3956   24.1068 C   0  0  0  0  0  0
   -1.4463   49.5804   25.2300 C   0  0  0  0  0  0
   -1.5720   48.2015   25.0992 C   0  0  0  0  0  0
   -1.8746   47.6544   23.8515 C   0  0  0  0  0  0
   -2.0290   48.4653   22.7312 C   0  0  0  0  0  0
   -1.9000   49.8418   22.8568 C   0  0  0  0  0  0
   -2.0967   45.9591   23.6816 Cl  0  0  0  0  0  0
    4.9725   54.9263   18.9399 F   0  0  0  0  0  0
    7.1711   54.7925   23.6752 H   0  0  0  0  0  0
    8.1913   56.1272   21.8766 H   0  0  0  0  0  0
    7.1281   56.2034   19.6283 H   0  0  0  0  0  0
    5.1341   53.4698   23.2388 H   0  0  0  0  0  0
    3.1619   53.6951   20.0344 H   0  0  0  0  0  0
    3.9951   52.2865   20.6084 H   0  0  0  0  0  0
    2.4018   54.2074   22.2890 H   0  0  0  0  0  0
    2.2657   54.4183   24.2057 H   0  0  0  0  0  0
    0.7046   54.2675   24.8804 H   0  0  0  0  0  0
    4.5417   54.8152   25.0065 H   0  0  0  0  0  0
    6.5505   55.0949   26.3025 H   0  0  0  0  0  0
    6.6248   54.2265   28.6824 H   0  0  0  0  0  0
    4.7171   53.1422   29.6806 H   0  0  0  0  0  0
    0.5114   53.2942   27.4695 H   0  0  0  0  0  0
    1.1246   51.7053   26.9325 H   0  0  0  0  0  0
   -0.1520   52.4895   22.2608 H   0  0  0  0  0  0
   -1.2272   49.9959   26.2036 H   0  0  0  0  0  0
   -1.4427   47.5708   25.9705 H   0  0  0  0  0  0
   -2.2589   48.0295   21.7677 H   0  0  0  0  0  0
   -2.0287   50.4740   21.9894 H   0  0  0  0  0  0
    2.1413   52.3323   29.1976 H   0  0  0  0  0  0
  1  6  2  0  0  0
  1  2  1  0  0  0
  1 35  1  0  0  0
  2  3  2  0  0  0
  2 36  1  0  0  0
  3  4  1  0  0  0
  3 37  1  0  0  0
  4  5  2  0  0  0
  4 34  1  0  0  0
  5  6  1  0  0  0
  5  7  1  0  0  0
  6 38  1  0  0  0
  7  8  1  0  0  0
  7 39  1  0  0  0
  7 40  1  0  0  0
  8  9  1  0  0  0
  8 41  1  0  0  0
  9 10  2  0  0  0
  9 11  1  0  0  0
 11 12  1  0  0  0
 11 13  1  0  0  0
 11 23  1  0  0  0
 13 14  1  0  0  0
 13 42  1  0  0  0
 13 43  1  0  0  0
 14 22  1  0  0  0
 14 15  2  0  0  0
 15 20  1  0  0  0
 15 16  1  0  0  0
 16 17  2  0  0  0
 16 44  1  0  0  0
 17 18  1  0  0  0
 17 45  1  0  0  0
 18 19  2  0  0  0
 18 46  1  0  0  0
 19 20  1  0  0  0
 19 47  1  0  0  0
 20 21  2  0  0  0
 21 22  1  0  0  0
 21 55  1  0  0  0
 22 48  1  0  0  0
 22 49  1  0  0  0
 23 24  1  0  0  0
 23 50  1  0  0  0
 24 25  2  0  0  0
 24 26  2  0  0  0
 24 27  1  0  0  0
 27 32  2  0  0  0
 27 28  1  0  0  0
 28 29  2  0  0  0
 28 51  1  0  0  0
 29 30  1  0  0  0
 29 52  1  0  0  0
 30 31  2  0  0  0
 30 33  1  0  0  0
 31 32  1  0  0  0
 31 53  1  0  0  0
 32 54  1  0  0  0
M  CHG  1  21   1
M  END
> <i_i_glide_confnum>
14

> <i_i_glide_lignum>
5120

> <i_i_glide_posenum>
208

> <i_i_glide_rotatable_bonds>
9

> <i_m_Source_File_Index>
5967

> <b_m_subgroup_collapsed>
0

> <r_i_docking_score>
-5.12484

> <r_i_glide_ecoul>
-2.51996

> <r_i_glide_eff_state_penalty>
0

> <r_i_glide_einternal>
13.4111

> <r_i_glide_emodel>
-53.8158

> <r_i_glide_energy>
-46.203

> <r_i_glide_erotb>
0.514286

> <r_i_glide_esite>
-0.0044008

> <r_i_glide_evdw>
-43.6831

> <r_i_glide_gscore>
-5.12484

> <r_i_glide_hbond>
0

> <r_i_glide_ligand_efficiency>
-0.155298

> <r_i_glide_ligand_efficiency_ln>
-1.13974

> <r_i_glide_ligand_efficiency_sa>
-0.498124

> <r_i_glide_lipo>
-3.23554

> <r_i_glide_metal>
0

> <r_i_glide_rewards>
0.16296

> <s_i_glide_gridfile>
wee1_glide-grid

> <s_m_Source_File>
wee1_decoys_glide_SP.sdf

> <s_m_Source_Path>
/Users/zhangxujun/Desktop

> <s_m_entry_id>
6242

> <s_m_entry_name>
wee1_decoys_glide_SP.5967

> <s_m_subgroup_title>
wee1_decoys_glide_SP

> <s_m_subgroupid>
wee1_decoys_glide_SP


$$$$
