@<TRIPOS>MOLECULE
ZINC08965983_2440
52   55    1
SMALL
USER_CHARGES


@<TRIPOS>ATOM
      1 C1          7.3347   55.6972   20.8199 C.ar      1 UNK         0.0000 
      2 C2          6.4801   55.1992   19.8420 C.ar      1 UNK         0.0000 
      3 C3          5.3985   54.4025   20.2074 C.ar      1 UNK         0.0000 
      4 C4          5.1632   54.0967   21.5557 C.ar      1 UNK         0.0000 
      5 C5          6.0284   54.5942   22.5549 C.ar      1 UNK         0.0000 
      6 C6          7.1045   55.4075   22.1639 C.ar      1 UNK         0.0000 
      7 N7          5.7301   54.2936   23.9025 N.am      1 UNK         0.0000 
      8 C8          6.1501   54.8614   25.0559 C.2       1 UNK         0.0000 
      9 O9          7.1006   55.6376   25.1623 O.2       1 UNK         0.0000 
     10 C10         5.3359   54.4920   26.2781 C.ar      1 UNK         0.0000 
     11 C11         5.8771   54.6227   27.5648 C.ar      1 UNK         0.0000 
     12 C12         5.0993   54.3589   28.6941 C.ar      1 UNK         0.0000 
     13 C13         3.7769   53.9343   28.5571 C.ar      1 UNK         0.0000 
     14 C14         3.2252   53.7806   27.2836 C.ar      1 UNK         0.0000 
     15 C15         4.0022   54.0669   26.1633 C.ar      1 UNK         0.0000 
     16 N16         1.9042   53.3765   27.0626 N.pl3     1 UNK         0.0000 
     17 S17         1.0285   52.2561   28.1105 S.o2      1 UNK         0.0000 
     18 O18         1.9988   51.2971   28.6511 O.2       1 UNK         0.0000 
     19 O19         0.1991   53.0816   28.9957 O.2       1 UNK         0.0000 
     20 C20        -0.0474   51.3992   26.9672 C.ar      1 UNK         0.0000 
     21 C21         0.3005   50.1343   26.4819 C.ar      1 UNK         0.0000 
     22 C22        -0.5167   49.4899   25.5543 C.ar      1 UNK         0.0000 
     23 C23        -1.6841   50.1076   25.1053 C.ar      1 UNK         0.0000 
     24 C24        -2.0355   51.3713   25.5869 C.ar      1 UNK         0.0000 
     25 C25        -1.2197   52.0145   26.5180 C.ar      1 UNK         0.0000 
     26 F26        -3.1611   51.9797   25.1474 F         1 UNK         0.0000 
     27 F27        -2.4712   49.4801   24.2016 F         1 UNK         0.0000 
     28 N28         4.0460   53.3065   21.8848 N.am      1 UNK         0.0000 
     29 C29         2.8211   53.8678   22.4530 C.3       1 UNK         0.0000 
     30 C30         1.9660   52.6672   22.7906 C.3       1 UNK         0.0000 
     31 C31         2.4498   51.6215   21.8100 C.3       1 UNK         0.0000 
     32 C32         3.8756   52.0322   21.4437 C.2       1 UNK         0.0000 
     33 O33         4.6947   51.3074   20.8831 O.2       1 UNK         0.0000 
     34 H34         8.1813   56.3048   20.5346 H         1 UNK         0.0000 
     35 H35         6.6563   55.4233   18.8003 H         1 UNK         0.0000 
     36 H36         4.7413   54.0205   19.4382 H         1 UNK         0.0000 
     37 H37         7.7916   55.8235   22.8823 H         1 UNK         0.0000 
     38 H38         4.9810   53.6275   24.0007 H         1 UNK         0.0000 
     39 H39         6.8966   54.9580   27.7010 H         1 UNK         0.0000 
     40 H40         5.5212   54.5001   29.6772 H         1 UNK         0.0000 
     41 H41         3.1834   53.7327   29.4366 H         1 UNK         0.0000 
     42 H42         3.5407   53.9600   25.1972 H         1 UNK         0.0000 
     43 H43         1.6182   53.3401   26.0979 H         1 UNK         0.0000 
     44 H44         1.1886   49.6334   26.8374 H         1 UNK         0.0000 
     45 H45        -0.2520   48.5047   25.1997 H         1 UNK         0.0000 
     46 H46        -1.4991   52.9928   26.8817 H         1 UNK         0.0000 
     47 H47         3.0134   54.5344   23.2914 H         1 UNK         0.0000 
     48 H48         2.3603   54.4822   21.6821 H         1 UNK         0.0000 
     49 H49         0.8980   52.8759   22.7188 H         1 UNK         0.0000 
     50 H50         2.1660   52.3379   23.8124 H         1 UNK         0.0000 
     51 H51         1.8603   51.6405   20.8923 H         1 UNK         0.0000 
     52 H52         2.4071   50.6101   22.2149 H         1 UNK         0.0000 
@<TRIPOS>BOND
     1    1    6 ar   
     2    1    2 ar   
     3    1   34 1    
     4    2    3 ar   
     5    2   35 1    
     6    3    4 ar   
     7    3   36 1    
     8    4    5 ar   
     9    4   28 1    
    10    5    6 ar   
    11    5    7 1    
    12    6   37 1    
    13    7    8 am   BACKBONE|DICT|INTERRES
    14    7   38 1    
    15    8    9 2    
    16    8   10 1    
    17   10   15 ar   
    18   10   11 ar   
    19   11   12 ar   
    20   11   39 1    
    21   12   13 ar   
    22   12   40 1    
    23   13   14 ar   
    24   13   41 1    
    25   14   15 ar   
    26   14   16 1    
    27   15   42 1    
    28   16   17 1    
    29   16   43 1    
    30   17   18 2    
    31   17   19 2    
    32   17   20 1    
    33   20   25 ar   
    34   20   21 ar   
    35   21   22 ar   
    36   21   44 1    
    37   22   23 ar   
    38   22   45 1    
    39   23   24 ar   
    40   23   27 1    
    41   24   25 ar   
    42   24   26 1    
    43   25   46 1    
    44   28   32 am   BACKBONE|DICT|INTERRES
    45   28   29 1    
    46   29   30 1    
    47   29   47 1    
    48   29   48 1    
    49   30   31 1    
    50   30   49 1    
    51   30   50 1    
    52   31   32 1    
    53   31   51 1    
    54   31   52 1    
    55   32   33 2    
@<TRIPOS>SUBSTRUCTURE
     1 UNK         1 GROUP             0       ****    0 ROOT    
