ZINC39609258_3665
                    3D
 Schrodinger Suite 2024-2.
 68 71  0  0  1  0            999 V2000
   -2.1596   52.7920   16.7225 C   0  0  0  0  0  0
   -0.6442   52.8478   16.8568 C   0  0  0  0  0  0
   -0.0566   52.4928   18.0810 C   0  0  0  0  0  0
    1.3275   52.5174   18.2335 C   0  0  0  0  0  0
    2.1466   52.9150   17.1750 C   0  0  0  0  0  0
    1.5641   53.2673   15.9503 C   0  0  0  0  0  0
    0.1757   53.2334   15.7783 C   0  0  0  0  0  0
   -0.4107   53.6079   14.4190 C   0  0  0  0  0  0
    3.6600   52.9376   17.3332 C   0  0  0  0  0  0
    4.2262   54.2441   17.9209 C   0  0  0  0  0  0
    3.9046   54.4523   19.3328 N   0  0  0  0  0  0
    4.5433   53.8650   20.3518 C   0  0  0  0  0  0
    5.5042   53.1219   20.1583 O   0  0  0  0  0  0
    4.0792   54.2285   21.7946 C   0  0  2  0  0  0
    3.6103   55.2098   21.7838 H   0  0  0  0  0  0
    5.3481   54.2751   22.6817 C   0  0  0  0  0  0
    4.8380   54.0349   24.0257 N   0  0  0  0  0  0
    3.5159   53.3924   23.9949 C   0  0  0  0  0  0
    3.1276   53.2061   22.5056 C   0  0  0  0  0  0
    1.6209   53.5207   22.3220 C   0  0  0  0  0  0
    0.7201   52.5717   23.1489 C   0  0  0  0  0  0
    0.9622   51.1264   22.6586 N   0  3  0  0  0  0
    2.4418   50.6852   22.6988 C   0  0  0  0  0  0
    3.3132   51.7390   21.9787 C   0  0  0  0  0  0
    5.5259   54.4009   25.1444 C   0  0  0  0  0  0
    6.6475   54.9156   25.1060 O   0  0  0  0  0  0
    4.9108   54.0907   26.4861 C   0  0  0  0  0  0
    5.6070   53.3128   27.4158 C   0  0  0  0  0  0
    4.9883   52.9148   28.6000 C   0  0  0  0  0  0
    3.6888   53.3147   28.8917 C   0  0  0  0  0  0
    3.0042   54.1529   28.0038 C   0  0  0  0  0  0
    3.6269   54.5368   26.8152 C   0  0  0  0  0  0
    1.5835   54.6125   28.2715 C   0  0  0  0  0  0
    2.8825   52.6823   30.4952 Br  0  0  0  0  0  0
   -2.5517   53.7389   16.3501 H   0  0  0  0  0  0
   -2.4353   52.0110   16.0141 H   0  0  0  0  0  0
   -2.6511   52.5817   17.6746 H   0  0  0  0  0  0
   -0.6724   52.1842   18.9123 H   0  0  0  0  0  0
    1.7662   52.2390   19.1806 H   0  0  0  0  0  0
    2.1969   53.5634   15.1260 H   0  0  0  0  0  0
    0.3583   53.8433   13.6842 H   0  0  0  0  0  0
   -1.0014   52.7745   14.0322 H   0  0  0  0  0  0
   -1.0683   54.4801   14.5129 H   0  0  0  0  0  0
    3.9771   52.0950   17.9391 H   0  0  0  0  0  0
    4.1243   52.7515   16.3647 H   0  0  0  0  0  0
    5.2927   54.3309   17.7070 H   0  0  0  0  0  0
    3.7717   55.0813   17.3904 H   0  0  0  0  0  0
    3.0081   54.8981   19.5210 H   0  0  0  0  0  0
    6.0060   53.4283   22.4799 H   0  0  0  0  0  0
    5.8982   55.2121   22.5764 H   0  0  0  0  0  0
    2.8405   54.1597   24.3718 H   0  0  0  0  0  0
    3.3597   52.5090   24.6188 H   0  0  0  0  0  0
    1.4278   54.5384   22.6655 H   0  0  0  0  0  0
    1.3272   53.5420   21.2820 H   0  0  0  0  0  0
    0.9339   52.5857   24.2192 H   0  0  0  0  0  0
   -0.3412   52.7698   22.9980 H   0  0  0  0  0  0
    0.4077   50.4741   23.2036 H   0  0  0  0  0  0
    2.7014   50.5324   23.7444 H   0  0  0  0  0  0
    2.4835   49.7117   22.2029 H   0  0  0  0  0  0
    3.1183   51.6732   20.9080 H   0  0  0  0  0  0
    4.3598   51.4482   22.0782 H   0  0  0  0  0  0
    6.6065   52.9634   27.2005 H   0  0  0  0  0  0
    5.5023   52.2678   29.2860 H   0  0  0  0  0  0
    3.1065   55.1904   26.1337 H   0  0  0  0  0  0
    0.9776   53.8081   28.6965 H   0  0  0  0  0  0
    1.5621   55.4540   28.9667 H   0  0  0  0  0  0
    1.1046   54.8922   27.3360 H   0  0  0  0  0  0
    0.6274   51.0500   21.7064 H   0  0  0  0  0  0
  1  2  1  0  0  0
  1 35  1  0  0  0
  1 36  1  0  0  0
  1 37  1  0  0  0
  2  7  2  0  0  0
  2  3  1  0  0  0
  3  4  2  0  0  0
  3 38  1  0  0  0
  4  5  1  0  0  0
  4 39  1  0  0  0
  5  6  2  0  0  0
  5  9  1  0  0  0
  6  7  1  0  0  0
  6 40  1  0  0  0
  7  8  1  0  0  0
  8 41  1  0  0  0
  8 42  1  0  0  0
  8 43  1  0  0  0
  9 10  1  0  0  0
  9 44  1  0  0  0
  9 45  1  0  0  0
 10 11  1  0  0  0
 10 46  1  0  0  0
 10 47  1  0  0  0
 11 12  1  0  0  0
 11 48  1  0  0  0
 12 13  2  0  0  0
 12 14  1  0  0  0
 14 15  1  0  0  0
 14 19  1  0  0  0
 14 16  1  0  0  0
 16 17  1  0  0  0
 16 49  1  0  0  0
 16 50  1  0  0  0
 17 18  1  0  0  0
 17 25  1  0  0  0
 18 19  1  0  0  0
 18 51  1  0  0  0
 18 52  1  0  0  0
 19 24  1  0  0  0
 19 20  1  0  0  0
 20 21  1  0  0  0
 20 53  1  0  0  0
 20 54  1  0  0  0
 21 22  1  0  0  0
 21 55  1  0  0  0
 21 56  1  0  0  0
 22 23  1  0  0  0
 22 57  1  0  0  0
 22 68  1  0  0  0
 23 24  1  0  0  0
 23 58  1  0  0  0
 23 59  1  0  0  0
 24 60  1  0  0  0
 24 61  1  0  0  0
 25 26  2  0  0  0
 25 27  1  0  0  0
 27 32  2  0  0  0
 27 28  1  0  0  0
 28 29  2  0  0  0
 28 62  1  0  0  0
 29 30  1  0  0  0
 29 63  1  0  0  0
 30 31  2  0  0  0
 30 34  1  0  0  0
 31 32  1  0  0  0
 31 33  1  0  0  0
 32 64  1  0  0  0
 33 65  1  0  0  0
 33 66  1  0  0  0
 33 67  1  0  0  0
M  CHG  1  22   1
M  END
> <i_i_glide_confnum>
34

> <i_i_glide_lignum>
3666

> <i_i_glide_posenum>
368

> <i_i_glide_rotatable_bonds>
7

> <i_m_Source_File_Index>
4082

> <b_m_subgroup_collapsed>
0

> <r_i_docking_score>
-5.32846

> <r_i_glide_ecoul>
-5.17726

> <r_i_glide_eff_state_penalty>
0

> <r_i_glide_einternal>
1.50411

> <r_i_glide_emodel>
-51.5319

> <r_i_glide_energy>
-36.4262

> <r_i_glide_erotb>
0.544409

> <r_i_glide_esite>
-0.0195515

> <r_i_glide_evdw>
-31.2489

> <r_i_glide_gscore>
-5.32846

> <r_i_glide_hbond>
-0.345256

> <r_i_glide_ligand_efficiency>
-0.161469

> <r_i_glide_ligand_efficiency_ln>
-1.18502

> <r_i_glide_ligand_efficiency_sa>
-0.517916

> <r_i_glide_lipo>
-2.30021

> <r_i_glide_metal>
0

> <r_i_glide_rewards>
-0.868824

> <s_i_glide_gridfile>
wee1_glide-grid

> <s_m_Source_File>
wee1_decoys_glide_SP.sdf

> <s_m_Source_Path>
/Users/zhangxujun/Desktop

> <s_m_entry_id>
4357

> <s_m_entry_name>
wee1_decoys_glide_SP.4082

> <s_m_subgroup_title>
wee1_decoys_glide_SP

> <s_m_subgroupid>
wee1_decoys_glide_SP


$$$$
