@<TRIPOS>MOLECULE
ZINC13353907_4930
62   65    1
SMALL
USER_CHARGES


@<TRIPOS>ATOM
      1 C1         -5.1981   54.3826   24.4812 C.3       1 UNK         0.0000 
      2 O2         -5.7133   53.5667   25.5256 O.3       1 UNK         0.0000 
      3 C3         -4.8613   52.6905   26.1728 C.ar      1 UNK         0.0000 
      4 C4         -3.4855   52.6293   25.9191 C.ar      1 UNK         0.0000 
      5 C5         -2.6615   51.7291   26.6009 C.ar      1 UNK         0.0000 
      6 C6         -3.2256   50.8966   27.5689 C.ar      1 UNK         0.0000 
      7 C7         -4.6021   50.9378   27.8484 C.ar      1 UNK         0.0000 
      8 C8         -5.4107   51.8449   27.1457 C.ar      1 UNK         0.0000 
      9 O9         -6.7623   51.9002   27.3977 O.3       1 UNK         0.0000 
     10 C10        -7.1169   52.7464   28.4839 C.3       1 UNK         0.0000 
     11 O11        -5.2228   50.1410   28.7937 O.3       1 UNK         0.0000 
     12 C12        -4.4503   49.2049   29.5393 C.3       1 UNK         0.0000 
     13 N13        -1.2673   51.6851   26.4128 N.am      1 UNK         0.0000 
     14 C14        -0.5780   52.0967   25.3282 C.2       1 UNK         0.0000 
     15 O15        -1.0739   52.2812   24.2127 O.2       1 UNK         0.0000 
     16 N16         0.7065   52.3531   25.6398 N.am      1 UNK         0.0000 
     17 C17         1.7054   52.8435   24.7826 C.ar      1 UNK         0.0000 
     18 C18         2.6711   53.6776   25.3548 C.ar      1 UNK         0.0000 
     19 C19         3.7535   54.1576   24.6186 C.ar      1 UNK         0.0000 
     20 C20         3.8538   53.7689   23.2773 C.ar      1 UNK         0.0000 
     21 C21         2.8769   52.9329   22.6749 C.ar      1 UNK         0.0000 
     22 C22         1.7934   52.4683   23.4328 C.ar      1 UNK         0.0000 
     23 N23         3.1070   52.6198   21.3714 N.2       1 UNK         0.0000 
     24 C24         4.1902   53.1899   20.9259 C.2       1 UNK         0.0000 
     25 S25         5.0974   54.1398   22.0975 S.3       1 UNK         0.0000 
     26 N26         4.5488   53.0278   19.5980 N.am      1 UNK         0.0000 
     27 C27         5.5006   53.6842   18.8966 C.2       1 UNK         0.0000 
     28 O28         6.2824   54.4969   19.3939 O.2       1 UNK         0.0000 
     29 C29         5.6402   53.3169   17.3898 C.3       1 UNK         0.0000 
     30 C30         4.2846   52.8981   16.7421 C.3       1 UNK         0.0000 
     31 C31         3.2607   54.0522   16.6321 C.3       1 UNK         0.0000 
     32 C32         3.8533   55.2681   15.8872 C.3       1 UNK         0.0000 
     33 C33         5.2208   55.7097   16.4533 C.3       1 UNK         0.0000 
     34 C34         6.2032   54.5200   16.5763 C.3       1 UNK         0.0000 
     35 H35        -6.0230   54.8967   23.9926 H         1 UNK         0.0000 
     36 H36        -4.4983   55.1280   24.8625 H         1 UNK         0.0000 
     37 H37        -4.6901   53.7918   23.7180 H         1 UNK         0.0000 
     38 H38        -3.0450   53.3005   25.2017 H         1 UNK         0.0000 
     39 H39        -2.5863   50.2106   28.1025 H         1 UNK         0.0000 
     40 H40        -8.2031   52.8080   28.5495 H         1 UNK         0.0000 
     41 H41        -6.7461   52.3524   29.4328 H         1 UNK         0.0000 
     42 H42        -6.7337   53.7613   28.3501 H         1 UNK         0.0000 
     43 H43        -5.1030   48.6570   30.2184 H         1 UNK         0.0000 
     44 H44        -3.9620   48.4735   28.8930 H         1 UNK         0.0000 
     45 H45        -3.6963   49.7079   30.1458 H         1 UNK         0.0000 
     46 H46        -0.7477   51.2573   27.1650 H         1 UNK         0.0000 
     47 H47         0.9487   52.3399   26.6185 H         1 UNK         0.0000 
     48 H48         2.5956   53.9479   26.3983 H         1 UNK         0.0000 
     49 H49         4.5015   54.7904   25.0755 H         1 UNK         0.0000 
     50 H50         1.0660   51.8090   22.9863 H         1 UNK         0.0000 
     51 H51         3.9934   52.3626   19.0802 H         1 UNK         0.0000 
     52 H52         6.3584   52.4975   17.3843 H         1 UNK         0.0000 
     53 H53         3.8763   52.0021   17.2121 H         1 UNK         0.0000 
     54 H54         4.5028   52.5143   15.7433 H         1 UNK         0.0000 
     55 H55         2.9290   54.3577   17.6255 H         1 UNK         0.0000 
     56 H56         2.3666   53.7029   16.1148 H         1 UNK         0.0000 
     57 H57         3.1535   56.1046   15.9220 H         1 UNK         0.0000 
     58 H58         3.9708   55.0167   14.8323 H         1 UNK         0.0000 
     59 H59         5.0759   56.1704   17.4310 H         1 UNK         0.0000 
     60 H60         5.6524   56.4854   15.8209 H         1 UNK         0.0000 
     61 H61         6.4693   54.1552   15.5828 H         1 UNK         0.0000 
     62 H62         7.1845   54.8182   16.9500 H         1 UNK         0.0000 
@<TRIPOS>BOND
     1    1    2 1    
     2    1   35 1    
     3    1   36 1    
     4    1   37 1    
     5    2    3 1    
     6    3    8 ar   
     7    3    4 ar   
     8    4    5 ar   
     9    4   38 1    
    10    5    6 ar   
    11    5   13 1    
    12    6    7 ar   
    13    6   39 1    
    14    7    8 ar   
    15    7   11 1    
    16    8    9 1    
    17    9   10 1    
    18   10   40 1    
    19   10   41 1    
    20   10   42 1    
    21   11   12 1    
    22   12   43 1    
    23   12   44 1    
    24   12   45 1    
    25   13   14 am   BACKBONE|DICT|INTERRES
    26   13   46 1    
    27   14   15 2    
    28   14   16 am   BACKBONE|DICT|INTERRES
    29   16   17 1    
    30   16   47 1    
    31   17   22 ar   
    32   17   18 ar   
    33   18   19 ar   
    34   18   48 1    
    35   19   20 ar   
    36   19   49 1    
    37   20   25 1    
    38   20   21 ar   
    39   21   22 ar   
    40   21   23 1    
    41   22   50 1    
    42   23   24 2    
    43   24   25 1    
    44   24   26 am   BACKBONE|DICT|INTERRES
    45   26   27 am   BACKBONE|DICT|INTERRES
    46   26   51 1    
    47   27   28 2    
    48   27   29 1    
    49   29   34 1    
    50   29   30 1    
    51   29   52 1    
    52   30   31 1    
    53   30   53 1    
    54   30   54 1    
    55   31   32 1    
    56   31   55 1    
    57   31   56 1    
    58   32   33 1    
    59   32   57 1    
    60   32   58 1    
    61   33   34 1    
    62   33   59 1    
    63   33   60 1    
    64   34   61 1    
    65   34   62 1    
@<TRIPOS>SUBSTRUCTURE
     1 UNK         1 GROUP             0       ****    0 ROOT    
