@<TRIPOS>MOLECULE
ZINC39637231_3668
68   71    1
SMALL
USER_CHARGES


@<TRIPOS>ATOM
      1 C1         -4.9643   48.5268   24.7242 C.3       1 UNK         0.0000 
      2 C2         -4.1272   49.4026   25.6896 C.3       1 UNK         0.0000 
      3 H3         -4.1196   48.9042   26.6604 H         1 UNK         0.0000 
      4 C4         -4.7656   50.7967   25.9161 C.3       1 UNK         0.0000 
      5 C5         -4.6546   51.7193   24.6814 C.3       1 UNK         0.0000 
      6 C6         -3.2045   51.8316   24.1617 C.3       1 UNK         0.0000 
      7 C7         -2.5414   50.4497   23.9622 C.3       1 UNK         0.0000 
      8 H8         -3.1374   49.9611   23.1903 H         1 UNK         0.0000 
      9 C9         -2.6429   49.5981   25.2698 C.3       1 UNK         0.0000 
     10 H10        -2.2049   50.1975   26.0705 H         1 UNK         0.0000 
     11 C11        -1.8565   48.2664   25.2539 C.3       1 UNK         0.0000 
     12 N12        -1.2059   50.5626   23.3769 N.am      1 UNK         0.0000 
     13 C13        -0.5844   49.7004   22.5500 C.2       1 UNK         0.0000 
     14 O14        -1.1369   48.7006   22.0878 O.2       1 UNK         0.0000 
     15 C15         0.8868   50.0104   22.1733 C.3       1 UNK         0.0000 
     16 H16         1.3639   49.0431   22.0347 H         1 UNK         0.0000 
     17 C17         1.6463   50.7590   23.2899 C.3       1 UNK         0.0000 
     18 N18         1.4477   52.1774   22.9462 N.am      1 UNK         0.0000 
     19 C19         1.0160   52.3453   21.5509 C.3       1 UNK         0.0000 
     20 C20         1.0320   50.9328   20.9215 C.3       1 UNK         0.0000 
     21 C21         0.0095   50.8341   19.7472 C.3       1 UNK         0.0000 
     22 C22         0.0569   49.4566   19.0454 C.3       1 UNK         0.0000 
     23 N23         1.4793   49.2404   18.4834 N.4       1 UNK         0.0000 
     24 C24         2.5757   49.3896   19.5534 C.3       1 UNK         0.0000 
     25 C25         2.4222   50.7648   20.2394 C.3       1 UNK         0.0000 
     26 C26         1.5917   53.2534   23.7658 C.2       1 UNK         0.0000 
     27 O27         1.5046   54.4101   23.3471 O.2       1 UNK         0.0000 
     28 C28         1.8482   53.0507   25.2397 C.ar      1 UNK         0.0000 
     29 C29         0.9644   52.3129   26.0422 C.ar      1 UNK         0.0000 
     30 C30         1.1716   52.2086   27.4167 C.ar      1 UNK         0.0000 
     31 C31         2.2620   52.8511   28.0234 C.ar      1 UNK         0.0000 
     32 C32         3.1370   53.5995   27.2255 C.ar      1 UNK         0.0000 
     33 C33         2.9258   53.7010   25.8510 C.ar      1 UNK         0.0000 
     34 F34         4.1933   54.2369   27.7779 F         1 UNK         0.0000 
     35 C35         2.5077   52.7452   29.5291 C.3       1 UNK         0.0000 
     36 F36         1.5247   52.0957   30.1588 F         1 UNK         0.0000 
     37 F37         3.6461   52.0795   29.7442 F         1 UNK         0.0000 
     38 F38         2.6131   53.9576   30.0790 F         1 UNK         0.0000 
     39 H39        -5.0409   48.9466   23.7200 H         1 UNK         0.0000 
     40 H40        -4.5423   47.5247   24.6308 H         1 UNK         0.0000 
     41 H41        -5.9838   48.4073   25.0970 H         1 UNK         0.0000 
     42 H42        -5.8159   50.6875   26.1942 H         1 UNK         0.0000 
     43 H43        -4.2825   51.2825   26.7665 H         1 UNK         0.0000 
     44 H44        -5.3007   51.3456   23.8854 H         1 UNK         0.0000 
     45 H45        -5.0379   52.7103   24.9281 H         1 UNK         0.0000 
     46 H46        -3.1986   52.3966   23.2282 H         1 UNK         0.0000 
     47 H47        -2.6214   52.4107   24.8785 H         1 UNK         0.0000 
     48 H48        -2.1352   47.6454   24.4016 H         1 UNK         0.0000 
     49 H49        -2.0388   47.6816   26.1558 H         1 UNK         0.0000 
     50 H50        -0.7800   48.4354   25.2017 H         1 UNK         0.0000 
     51 H51        -0.6662   51.3574   23.6850 H         1 UNK         0.0000 
     52 H52         1.3072   50.4470   24.2790 H         1 UNK         0.0000 
     53 H53         2.7034   50.5038   23.2168 H         1 UNK         0.0000 
     54 H54         1.5692   53.0797   20.9618 H         1 UNK         0.0000 
     55 H55        -0.0219   52.6775   21.5849 H         1 UNK         0.0000 
     56 H56        -1.0069   51.0077   20.1052 H         1 UNK         0.0000 
     57 H57         0.1800   51.6265   19.0163 H         1 UNK         0.0000 
     58 H58        -0.1379   48.6197   19.7183 H         1 UNK         0.0000 
     59 H59        -0.6250   49.3928   18.1933 H         1 UNK         0.0000 
     60 H60         1.5627   48.3336   18.0436 H         1 UNK         0.0000 
     61 H61         2.4940   48.5339   20.2221 H         1 UNK         0.0000 
     62 H62         3.5051   49.3074   18.9921 H         1 UNK         0.0000 
     63 H63         2.6049   51.5571   19.5095 H         1 UNK         0.0000 
     64 H64         3.2272   50.8851   20.9668 H         1 UNK         0.0000 
     65 H65         0.0973   51.8291   25.6139 H         1 UNK         0.0000 
     66 H66         0.4779   51.6260   28.0053 H         1 UNK         0.0000 
     67 H67         3.6088   54.2983   25.2662 H         1 UNK         0.0000 
     68 H68         1.6738   49.9081   17.7497 H         1 UNK         0.0000 
@<TRIPOS>BOND
     1    1    2 1    
     2    1   39 1    
     3    1   40 1    
     4    1   41 1    
     5    2    3 1    
     6    2    9 1    
     7    2    4 1    
     8    4    5 1    
     9    4   42 1    
    10    4   43 1    
    11    5    6 1    
    12    5   44 1    
    13    5   45 1    
    14    6    7 1    
    15    6   46 1    
    16    6   47 1    
    17    7    8 1    
    18    7    9 1    
    19    7   12 1    
    20    9   10 1    
    21    9   11 1    
    22   11   48 1    
    23   11   49 1    
    24   11   50 1    
    25   12   13 am   BACKBONE|DICT|INTERRES
    26   12   51 1    
    27   13   14 2    
    28   13   15 1    
    29   15   16 1    
    30   15   20 1    
    31   15   17 1    
    32   17   18 1    
    33   17   52 1    
    34   17   53 1    
    35   18   19 1    
    36   18   26 am   BACKBONE|DICT|INTERRES
    37   19   20 1    
    38   19   54 1    
    39   19   55 1    
    40   20   25 1    
    41   20   21 1    
    42   21   22 1    
    43   21   56 1    
    44   21   57 1    
    45   22   23 1    
    46   22   58 1    
    47   22   59 1    
    48   23   24 1    
    49   23   60 1    
    50   23   68 1    
    51   24   25 1    
    52   24   61 1    
    53   24   62 1    
    54   25   63 1    
    55   25   64 1    
    56   26   27 2    
    57   26   28 1    
    58   28   33 ar   
    59   28   29 ar   
    60   29   30 ar   
    61   29   65 1    
    62   30   31 ar   
    63   30   66 1    
    64   31   32 ar   
    65   31   35 1    
    66   32   33 ar   
    67   32   34 1    
    68   33   67 1    
    69   35   36 1    
    70   35   37 1    
    71   35   38 1    
@<TRIPOS>SUBSTRUCTURE
     1 UNK         1 GROUP             0       ****    0 ROOT    
