@<TRIPOS>MOLECULE
ZINC20702422_1030
67   71    1
SMALL
USER_CHARGES


@<TRIPOS>ATOM
      1 C1          2.2546   54.1952   27.0703 C.3       1 UNK         0.0000 
      2 C2          3.6634   54.2504   26.5133 C.ar      1 UNK         0.0000 
      3 C3          4.7464   54.2339   27.3865 C.ar      1 UNK         0.0000 
      4 C4          6.0447   54.1686   26.8849 C.ar      1 UNK         0.0000 
      5 C5          6.2580   54.0965   25.5041 C.ar      1 UNK         0.0000 
      6 C6          5.1772   54.0687   24.6178 C.ar      1 UNK         0.0000 
      7 C7          3.8882   54.2272   25.1352 C.ar      1 UNK         0.0000 
      8 N8          5.4354   53.7070   23.2818 N.pl3     1 UNK         0.0000 
      9 S9          4.2780   53.7130   21.9276 S.o2      1 UNK         0.0000 
     10 O10         5.0912   53.5271   20.7220 O.2       1 UNK         0.0000 
     11 O11         3.4462   54.8967   22.0969 O.2       1 UNK         0.0000 
     12 C12         3.1572   52.3151   22.0397 C.ar      1 UNK         0.0000 
     13 C13         3.3589   51.1635   21.2793 C.ar      1 UNK         0.0000 
     14 C14         2.4158   50.1360   21.3191 C.ar      1 UNK         0.0000 
     15 C15         1.2740   50.2518   22.1171 C.ar      1 UNK         0.0000 
     16 C16         1.0862   51.3782   22.9385 C.ar      1 UNK         0.0000 
     17 C17         2.0120   52.4141   22.8323 C.ar      1 UNK         0.0000 
     18 C18        -0.0824   51.4830   23.9233 C.3       1 UNK         0.0000 
     19 H19         0.3409   51.4318   24.9284 H         1 UNK         0.0000 
     20 C20        -0.9336   52.7274   23.7442 C.2       1 UNK         0.0000 
     21 C21        -2.1028   52.4421   23.1454 C.2       1 UNK         0.0000 
     22 C22        -2.2241   50.9599   22.8681 C.3       1 UNK         0.0000 
     23 C23        -1.1127   50.3670   23.7436 C.3       1 UNK         0.0000 
     24 H24        -1.5629   50.1894   24.7235 H         1 UNK         0.0000 
     25 C25        -0.5062   49.0090   23.3011 C.3       1 UNK         0.0000 
     26 H26         0.1406   48.6470   24.1035 H         1 UNK         0.0000 
     27 N27         0.3661   49.1815   22.1357 N.pl3     1 UNK         0.0000 
     28 C28        -1.5977   47.9492   23.1479 C.ar      1 UNK         0.0000 
     29 C29        -2.1446   47.6504   21.8965 C.ar      1 UNK         0.0000 
     30 C30        -3.1735   46.7227   21.7829 C.ar      1 UNK         0.0000 
     31 C31        -3.6653   46.0651   22.9164 C.ar      1 UNK         0.0000 
     32 C32        -3.1433   46.3695   24.1866 C.ar      1 UNK         0.0000 
     33 C33        -2.1008   47.3081   24.2840 C.ar      1 UNK         0.0000 
     34 O34        -3.6716   45.6966   25.2785 O.3       1 UNK         0.0000 
     35 C35        -3.1572   45.9677   26.5844 C.3       1 UNK         0.0000 
     36 O36        -4.7012   45.1599   22.7862 O.3       1 UNK         0.0000 
     37 C37        -4.4969   43.9834   22.1294 C.2       1 UNK         0.0000 
     38 O38        -3.4258   43.5659   21.6826 O.2       1 UNK         0.0000 
     39 C39        -5.7664   43.1529   22.0218 C.3       1 UNK         0.0000 
     40 C40         7.2063   54.0729   27.8436 C.3       1 UNK         0.0000 
     41 H41         2.1542   53.3332   27.7276 H         1 UNK         0.0000 
     42 H42         2.0382   55.0776   27.6720 H         1 UNK         0.0000 
     43 H43         1.5105   54.0965   26.2811 H         1 UNK         0.0000 
     44 H44         4.5759   54.2399   28.4538 H         1 UNK         0.0000 
     45 H45         7.2613   53.9700   25.1246 H         1 UNK         0.0000 
     46 H46         3.0452   54.2753   24.4843 H         1 UNK         0.0000 
     47 H47         6.3697   53.4088   23.0540 H         1 UNK         0.0000 
     48 H48         4.2223   51.0739   20.6339 H         1 UNK         0.0000 
     49 H49         2.5735   49.2562   20.7123 H         1 UNK         0.0000 
     50 H50         1.7887   53.3198   23.3626 H         1 UNK         0.0000 
     51 H51        -0.5907   53.7061   24.0455 H         1 UNK         0.0000 
     52 H52        -2.8771   53.1467   22.8840 H         1 UNK         0.0000 
     53 H53        -2.0821   50.7350   21.8103 H         1 UNK         0.0000 
     54 H54        -3.1980   50.5655   23.1610 H         1 UNK         0.0000 
     55 H55         0.5947   48.3256   21.6534 H         1 UNK         0.0000 
     56 H56        -1.7861   48.1514   21.0091 H         1 UNK         0.0000 
     57 H57        -3.5918   46.5117   20.8090 H         1 UNK         0.0000 
     58 H58        -1.6740   47.5627   25.2444 H         1 UNK         0.0000 
     59 H59        -3.6773   45.3474   27.3143 H         1 UNK         0.0000 
     60 H60        -2.0940   45.7315   26.6586 H         1 UNK         0.0000 
     61 H61        -3.3089   47.0092   26.8727 H         1 UNK         0.0000 
     62 H62        -6.4083   43.5453   21.2345 H         1 UNK         0.0000 
     63 H63        -6.3149   43.1742   22.9624 H         1 UNK         0.0000 
     64 H64        -5.5205   42.1171   21.7898 H         1 UNK         0.0000 
     65 H65         6.8866   54.0969   28.8843 H         1 UNK         0.0000 
     66 H66         7.7206   53.1280   27.6771 H         1 UNK         0.0000 
     67 H67         7.9037   54.8921   27.6820 H         1 UNK         0.0000 
@<TRIPOS>BOND
     1    1    2 1    
     2    1   41 1    
     3    1   42 1    
     4    1   43 1    
     5    2    7 ar   
     6    2    3 ar   
     7    3    4 ar   
     8    3   44 1    
     9    4    5 ar   
    10    4   40 1    
    11    5    6 ar   
    12    5   45 1    
    13    6    7 ar   
    14    6    8 1    
    15    7   46 1    
    16    8    9 1    
    17    8   47 1    
    18    9   10 2    
    19    9   11 2    
    20    9   12 1    
    21   12   17 ar   
    22   12   13 ar   
    23   13   14 ar   
    24   13   48 1    
    25   14   15 ar   
    26   14   49 1    
    27   15   27 1    
    28   15   16 ar   
    29   16   17 ar   
    30   16   18 1    
    31   17   50 1    
    32   18   19 1    
    33   18   23 1    
    34   18   20 1    
    35   20   21 2    
    36   20   51 1    
    37   21   22 1    
    38   21   52 1    
    39   22   23 1    
    40   22   53 1    
    41   22   54 1    
    42   23   24 1    
    43   23   25 1    
    44   25   26 1    
    45   25   27 1    
    46   25   28 1    
    47   27   55 1    
    48   28   33 ar   
    49   28   29 ar   
    50   29   30 ar   
    51   29   56 1    
    52   30   31 ar   
    53   30   57 1    
    54   31   32 ar   
    55   31   36 1    
    56   32   33 ar   
    57   32   34 1    
    58   33   58 1    
    59   34   35 1    
    60   35   59 1    
    61   35   60 1    
    62   35   61 1    
    63   36   37 1    
    64   37   38 2    
    65   37   39 1    
    66   39   62 1    
    67   39   63 1    
    68   39   64 1    
    69   40   65 1    
    70   40   66 1    
    71   40   67 1    
@<TRIPOS>SUBSTRUCTURE
     1 UNK         1 GROUP             0       ****    0 ROOT    
