@<TRIPOS>MOLECULE
ZINC00714902_4001
48   52    1
SMALL
USER_CHARGES


@<TRIPOS>ATOM
      1 C1          8.4127   55.2966   19.0170 C.ar      1 UNK         0.0000 
      2 C2          9.2037   55.6379   17.9216 C.ar      1 UNK         0.0000 
      3 C3          8.8161   56.6759   17.0740 C.ar      1 UNK         0.0000 
      4 C4          7.6246   57.3706   17.3235 C.ar      1 UNK         0.0000 
      5 C5          6.8358   57.0246   18.4231 C.ar      1 UNK         0.0000 
      6 C6          7.2276   55.9937   19.2849 C.ar      1 UNK         0.0000 
      7 C7          6.3619   55.6374   20.4907 C.3       1 UNK         0.0000 
      8 H8          5.7977   56.5482   20.7017 H         1 UNK         0.0000 
      9 C9          5.3630   54.4978   20.1766 C.3       1 UNK         0.0000 
     10 C10         4.4044   54.1475   21.3494 C.3       1 UNK         0.0000 
     11 H11         3.6056   54.8906   21.3567 H         1 UNK         0.0000 
     12 N12         5.1375   54.3126   22.6164 N.pl3     1 UNK         0.0000 
     13 C13         6.3778   54.8969   22.7734 C.ar      1 UNK         0.0000 
     14 C14         6.6134   54.9167   24.1261 C.ar      1 UNK         0.0000 
     15 C15         5.4490   54.4445   24.7404 C.ar      1 UNK         0.0000 
     16 N16         4.5667   54.0965   23.8171 N.2       1 UNK         0.0000 
     17 C17         5.2776   54.3236   26.1734 C.2       1 UNK         0.0000 
     18 O18         6.2260   54.5069   26.9393 O.2       1 UNK         0.0000 
     19 N19         4.0251   53.9950   26.5588 N.am      1 UNK         0.0000 
     20 C20         3.5784   53.6030   27.8297 C.ar      1 UNK         0.0000 
     21 C21         4.4185   52.9916   28.7909 C.ar      1 UNK         0.0000 
     22 C22         3.8995   52.5229   30.0035 C.ar      1 UNK         0.0000 
     23 C23         2.5394   52.6935   30.2292 C.ar      1 UNK         0.0000 
     24 C24         1.7251   53.2977   29.3157 C.ar      1 UNK         0.0000 
     25 C25         2.2078   53.7578   28.0961 C.ar      1 UNK         0.0000 
     26 O26         0.4493   53.3108   29.7849 O.3       1 UNK         0.0000 
     27 C27         0.5224   52.8330   31.1064 C.3       1 UNK         0.0000 
     28 O28         1.8017   52.2876   31.2928 O.3       1 UNK         0.0000 
     29 N29         7.1290   55.3122   21.6971 N.pl3     1 UNK         0.0000 
     30 C30         3.7327   52.7574   21.1863 C.3       1 UNK         0.0000 
     31 F31         3.1494   52.6422   19.9937 F         1 UNK         0.0000 
     32 F32         4.6252   51.7680   21.2814 F         1 UNK         0.0000 
     33 F33         2.7887   52.5440   22.1036 F         1 UNK         0.0000 
     34 Cl34        7.1029   58.6635   16.3000 Cl        1 UNK         0.0000 
     35 Cl35        9.8274   57.0761   15.7303 Cl        1 UNK         0.0000 
     36 H36         8.7336   54.4968   19.6684 H         1 UNK         0.0000 
     37 H37        10.1249   55.1002   17.7392 H         1 UNK         0.0000 
     38 H38         5.9195   57.5698   18.6045 H         1 UNK         0.0000 
     39 H39         5.9225   53.6081   19.8835 H         1 UNK         0.0000 
     40 H40         4.7697   54.7409   19.2918 H         1 UNK         0.0000 
     41 H41         7.5055   55.2735   24.6138 H         1 UNK         0.0000 
     42 H42         3.3298   53.9693   25.8280 H         1 UNK         0.0000 
     43 H43         5.4691   52.8332   28.5918 H         1 UNK         0.0000 
     44 H44         4.5369   52.0319   30.7255 H         1 UNK         0.0000 
     45 H45         1.5420   54.2068   27.3726 H         1 UNK         0.0000 
     46 H46         0.3779   53.6596   31.8067 H         1 UNK         0.0000 
     47 H47        -0.2432   52.0713   31.2805 H         1 UNK         0.0000 
     48 H48         7.8259   56.0187   21.8859 H         1 UNK         0.0000 
@<TRIPOS>BOND
     1    1    6 ar   
     2    1    2 ar   
     3    1   36 1    
     4    2    3 ar   
     5    2   37 1    
     6    3    4 ar   
     7    3   35 1    
     8    4    5 ar   
     9    4   34 1    
    10    5    6 ar   
    11    5   38 1    
    12    6    7 1    
    13    7    8 1    
    14    7   29 1    
    15    7    9 1    
    16    9   10 1    
    17    9   39 1    
    18    9   40 1    
    19   10   11 1    
    20   10   12 1    
    21   10   30 1    
    22   12   16 ar   
    23   12   13 ar   
    24   13   14 ar   
    25   13   29 1    
    26   14   15 ar   
    27   14   41 1    
    28   15   16 ar   
    29   15   17 1    
    30   17   18 2    
    31   17   19 am   BACKBONE|DICT|INTERRES
    32   19   20 1    
    33   19   42 1    
    34   20   25 ar   
    35   20   21 ar   
    36   21   22 ar   
    37   21   43 1    
    38   22   23 ar   
    39   22   44 1    
    40   23   28 1    
    41   23   24 ar   
    42   24   25 ar   
    43   24   26 1    
    44   25   45 1    
    45   26   27 1    
    46   27   28 1    
    47   27   46 1    
    48   27   47 1    
    49   29   48 1    
    50   30   31 1    
    51   30   32 1    
    52   30   33 1    
@<TRIPOS>SUBSTRUCTURE
     1 UNK         1 GROUP             0       ****    0 ROOT    
