@<TRIPOS>MOLECULE
ZINC44731543_1597
40   41    1
SMALL
USER_CHARGES


@<TRIPOS>ATOM
      1 C1          4.1776   52.5583   20.2831 C.3       1 UNK         0.0000 
      2 C2          4.2209   53.1871   21.6539 C.2       1 UNK         0.0000 
      3 C3          5.2258   53.6973   22.4521 C.2       1 UNK         0.0000 
      4 C4          4.6615   54.1529   23.6540 C.2       1 UNK         0.0000 
      5 C5          3.2983   53.8881   23.5101 C.2       1 UNK         0.0000 
      6 O6          3.0429   53.3104   22.3077 O.3       1 UNK         0.0000 
      7 C7          2.0947   54.0987   24.3925 C.3       1 UNK         0.0000 
      8 C8          5.3746   54.7880   24.8405 C.3       1 UNK         0.0000 
      9 H9          4.7294   55.5202   25.3274 H         1 UNK         0.0000 
     10 C10         6.7044   55.4608   24.4502 C.3       1 UNK         0.0000 
     11 N11         5.6382   53.6967   25.7872 N.pl3     1 UNK         0.0000 
     12 S12         5.9469   53.9378   27.4888 S.o2      1 UNK         0.0000 
     13 O13         6.8777   52.8967   27.9217 O.2       1 UNK         0.0000 
     14 O14         6.3043   55.3377   27.6560 O.2       1 UNK         0.0000 
     15 C15         4.3897   53.6768   28.3336 C.ar      1 UNK         0.0000 
     16 C16         3.3054   54.5094   28.0650 C.ar      1 UNK         0.0000 
     17 C17         2.1090   54.3414   28.7590 C.ar      1 UNK         0.0000 
     18 C18         1.9885   53.3402   29.7250 C.ar      1 UNK         0.0000 
     19 C19         3.0769   52.4966   29.9753 C.ar      1 UNK         0.0000 
     20 C20         4.2720   52.6611   29.2817 C.ar      1 UNK         0.0000 
     21 N21         0.7773   53.2216   30.4234 N.pl3     1 UNK         0.0000 
     22 N22         0.7044   52.4967   31.6853 N.3       1 UNK         0.0000 
     23 H23         5.1646   52.5088   19.8220 H         1 UNK         0.0000 
     24 H24         3.5356   53.1220   19.6058 H         1 UNK         0.0000 
     25 H25         3.7922   51.5390   20.3177 H         1 UNK         0.0000 
     26 H26         6.2725   53.7382   22.1932 H         1 UNK         0.0000 
     27 H27         2.3754   54.4942   25.3656 H         1 UNK         0.0000 
     28 H28         1.3965   54.8055   23.9458 H         1 UNK         0.0000 
     29 H29         1.5540   53.1682   24.5651 H         1 UNK         0.0000 
     30 H30         6.5777   56.1377   23.6082 H         1 UNK         0.0000 
     31 H31         7.1056   56.0456   25.2767 H         1 UNK         0.0000 
     32 H32         7.4622   54.7295   24.1640 H         1 UNK         0.0000 
     33 H33         6.0785   52.8607   25.3928 H         1 UNK         0.0000 
     34 H34         3.3962   55.2967   27.3334 H         1 UNK         0.0000 
     35 H35         1.2793   54.9999   28.5477 H         1 UNK         0.0000 
     36 H36         3.0007   51.7174   30.7173 H         1 UNK         0.0000 
     37 H37         5.1043   52.0070   29.4944 H         1 UNK         0.0000 
     38 H38         0.1616   54.0238   30.4330 H         1 UNK         0.0000 
     39 H39         0.8835   53.1289   32.4531 H         1 UNK         0.0000 
     40 H40        -0.2269   52.0943   31.8085 H         1 UNK         0.0000 
@<TRIPOS>BOND
     1    1    2 1    
     2    1   23 1    
     3    1   24 1    
     4    1   25 1    
     5    2    6 1    
     6    2    3 2    
     7    3    4 1    
     8    3   26 1    
     9    4    5 2    
    10    4    8 1    
    11    5    6 1    
    12    5    7 1    
    13    7   27 1    
    14    7   28 1    
    15    7   29 1    
    16    8    9 1    
    17    8   10 1    
    18    8   11 1    
    19   10   30 1    
    20   10   31 1    
    21   10   32 1    
    22   11   12 1    
    23   11   33 1    
    24   12   13 2    
    25   12   14 2    
    26   12   15 1    
    27   15   20 ar   
    28   15   16 ar   
    29   16   17 ar   
    30   16   34 1    
    31   17   18 ar   
    32   17   35 1    
    33   18   19 ar   
    34   18   21 1    
    35   19   20 ar   
    36   19   36 1    
    37   20   37 1    
    38   21   22 1    
    39   21   38 1    
    40   22   39 1    
    41   22   40 1    
@<TRIPOS>SUBSTRUCTURE
     1 UNK         1 GROUP             0       ****    0 ROOT    
