ZINC04560783_1540
                    3D
 Schrodinger Suite 2024-2.
 51 54  0  0  1  0            999 V2000
   -0.0660   51.3017   27.9418 C   0  0  0  0  0  0
    0.6399   52.5756   28.3842 C   0  0  0  0  0  0
    0.4044   53.0804   29.6686 C   0  0  0  0  0  0
    1.0206   54.2599   30.0840 C   0  0  0  0  0  0
    1.8897   54.9319   29.2276 C   0  0  0  0  0  0
    2.1375   54.4249   27.9514 C   0  0  0  0  0  0
    1.5048   53.2501   27.5075 C   0  0  0  0  0  0
    1.6798   52.7124   26.2423 O   0  0  0  0  0  0
    2.2430   53.4784   25.2144 C   0  0  2  0  0  0
    1.8576   54.4959   25.2600 H   0  0  0  0  0  0
    1.8485   52.8117   23.8760 C   0  0  2  0  0  0
    2.2760   51.8044   23.9286 H   0  0  0  0  0  0
    2.5418   53.5402   22.6839 C   0  0  1  0  0  0
    2.0976   54.5335   22.5904 H   0  0  0  0  0  0
    4.0534   53.6926   22.9414 C   0  0  2  0  0  0
    4.5202   52.7106   22.8817 H   0  0  0  0  0  0
    4.2496   54.3198   24.3261 C   0  0  1  0  0  0
    3.7815   55.2966   24.2969 H   0  0  0  0  0  0
    3.6429   53.5323   25.3498 O   0  0  0  0  0  0
    5.7515   54.5261   24.5639 C   0  0  0  0  0  0
    6.3045   55.2967   23.4888 O   0  0  0  0  0  0
    6.0658   54.6918   22.2372 C   0  0  1  0  0  0
    6.5009   53.6967   22.2909 H   0  0  0  0  0  0
    4.6800   54.5514   21.9841 O   0  0  0  0  0  0
    6.6753   55.5336   21.1637 C   0  0  0  0  0  0
    7.9253   55.5320   20.5615 C   0  0  0  0  0  0
    7.8892   56.4768   19.5347 C   0  0  0  0  0  0
    6.6335   57.0539   19.5883 C   0  0  0  0  0  0
    5.9049   56.4925   20.5872 O   0  0  0  0  0  0
    2.2949   52.8965   21.4476 O   0  0  0  0  0  0
    0.3919   52.6629   23.7265 N   0  0  0  0  0  0
   -0.2550   51.5745   23.2782 C   0  0  0  0  0  0
    0.3018   50.5363   22.9239 O   0  0  0  0  0  0
   -1.7718   51.6850   23.2133 C   0  0  0  0  0  0
   -0.6720   51.4945   27.0557 H   0  0  0  0  0  0
    0.6621   50.5371   27.6695 H   0  0  0  0  0  0
   -0.7212   50.8995   28.7148 H   0  0  0  0  0  0
   -0.2613   52.5622   30.3452 H   0  0  0  0  0  0
    0.8230   54.6481   31.0736 H   0  0  0  0  0  0
    2.3728   55.8427   29.5517 H   0  0  0  0  0  0
    2.8252   54.9573   27.3133 H   0  0  0  0  0  0
    5.9078   55.0716   25.4940 H   0  0  0  0  0  0
    6.2897   53.5829   24.6712 H   0  0  0  0  0  0
    8.7602   54.8968   20.8130 H   0  0  0  0  0  0
    8.6876   56.7195   18.8478 H   0  0  0  0  0  0
    6.1404   57.8236   19.0112 H   0  0  0  0  0  0
    2.4083   53.5436   20.7417 H   0  0  0  0  0  0
   -0.1655   53.4464   24.0308 H   0  0  0  0  0  0
   -2.1971   51.5711   24.2117 H   0  0  0  0  0  0
   -2.0744   52.6525   22.8096 H   0  0  0  0  0  0
   -2.1835   50.9028   22.5723 H   0  0  0  0  0  0
  1  2  1  0  0  0
  1 35  1  0  0  0
  1 36  1  0  0  0
  1 37  1  0  0  0
  2  7  2  0  0  0
  2  3  1  0  0  0
  3  4  2  0  0  0
  3 38  1  0  0  0
  4  5  1  0  0  0
  4 39  1  0  0  0
  5  6  2  0  0  0
  5 40  1  0  0  0
  6  7  1  0  0  0
  6 41  1  0  0  0
  7  8  1  0  0  0
  8  9  1  0  0  0
  9 10  1  0  0  0
  9 19  1  0  0  0
  9 11  1  0  0  0
 11 12  1  0  0  0
 11 13  1  0  0  0
 11 31  1  0  0  0
 13 14  1  0  0  0
 13 15  1  0  0  0
 13 30  1  0  0  0
 15 16  1  0  0  0
 15 24  1  0  0  0
 15 17  1  0  0  0
 17 18  1  0  0  0
 17 19  1  0  0  0
 17 20  1  0  0  0
 20 21  1  0  0  0
 20 42  1  0  0  0
 20 43  1  0  0  0
 21 22  1  0  0  0
 22 23  1  0  0  0
 22 24  1  0  0  0
 22 25  1  0  0  0
 25 29  1  0  0  0
 25 26  2  0  0  0
 26 27  1  0  0  0
 26 44  1  0  0  0
 27 28  2  0  0  0
 27 45  1  0  0  0
 28 29  1  0  0  0
 28 46  1  0  0  0
 30 47  1  0  0  0
 31 32  1  0  0  0
 31 48  1  0  0  0
 32 33  2  0  0  0
 32 34  1  0  0  0
 34 49  1  0  0  0
 34 50  1  0  0  0
 34 51  1  0  0  0
M  END
> <i_i_glide_confnum>
1

> <i_i_glide_lignum>
1541

> <i_i_glide_posenum>
237

> <i_i_glide_rotatable_bonds>
6

> <i_m_Source_File_Index>
4221

> <b_m_subgroup_collapsed>
0

> <r_i_docking_score>
-5.51166

> <r_i_glide_ecoul>
-1.88382

> <r_i_glide_eff_state_penalty>
0

> <r_i_glide_einternal>
2.08892

> <r_i_glide_emodel>
-48.993

> <r_i_glide_energy>
-36.3034

> <r_i_glide_erotb>
0.514242

> <r_i_glide_esite>
0

> <r_i_glide_evdw>
-34.4196

> <r_i_glide_gscore>
-5.51166

> <r_i_glide_hbond>
0

> <r_i_glide_ligand_efficiency>
-0.196845

> <r_i_glide_ligand_efficiency_ln>
-1.27225

> <r_i_glide_ligand_efficiency_sa>
-0.597737

> <r_i_glide_lipo>
-2.5741

> <r_i_glide_metal>
0

> <r_i_glide_rewards>
-1.44825

> <s_i_glide_gridfile>
wee1_glide-grid

> <s_m_Source_File>
wee1_decoys_glide_SP.sdf

> <s_m_Source_Path>
/Users/zhangxujun/Desktop

> <s_m_entry_id>
4496

> <s_m_entry_name>
wee1_decoys_glide_SP.4221

> <s_m_subgroup_title>
wee1_decoys_glide_SP

> <s_m_subgroupid>
wee1_decoys_glide_SP


$$$$
