ZINC51046363_228
                    3D
 Schrodinger Suite 2024-2.
 56 58  0  0  1  0            999 V2000
    3.7712   54.3191   27.0150 C   0  0  0  0  0  0
    4.4517   54.3958   25.6557 C   0  0  0  0  0  0
    3.7410   54.0311   24.5118 C   0  0  0  0  0  0
    4.3522   54.0469   23.2554 C   0  0  0  0  0  0
    5.6802   54.4967   23.1159 C   0  0  0  0  0  0
    6.3867   54.8577   24.2740 C   0  0  0  0  0  0
    5.7838   54.8086   25.5300 C   0  0  0  0  0  0
    6.7046   55.2909   26.9082 Cl  0  0  0  0  0  0
    6.1913   54.6510   21.8388 O   0  0  0  0  0  0
    7.5055   55.1676   21.6567 C   0  0  0  0  0  0
    3.5647   53.6454   22.1662 N   0  0  0  0  0  0
    3.9030   52.7251   21.2385 C   0  0  0  0  0  0
    4.9648   52.0963   21.2353 O   0  0  0  0  0  0
    2.8404   52.4630   20.1455 C   0  0  2  0  0  0
    2.1392   53.2964   20.1077 H   0  0  0  0  0  0
    2.1002   51.1733   20.5250 C   0  0  0  0  0  0
    3.5057   52.4907   18.7317 N   0  3  2  0  0  0
    4.1307   53.8773   18.4063 C   0  0  0  0  0  0
    4.8084   53.8250   17.0241 C   0  0  0  0  0  0
    3.8183   53.4496   15.9086 C   0  0  0  0  0  0
    3.1645   52.0926   16.2568 C   0  0  1  0  0  0
    3.9091   51.2984   16.2362 H   0  0  0  0  0  0
    2.4786   52.0763   17.6399 C   0  0  0  0  0  0
    2.1355   51.6971   15.1802 C   0  0  0  0  0  0
    1.2401   52.4797   14.8558 O   0  0  0  0  0  0
    2.2725   50.4726   14.6450 N   0  0  0  0  0  0
    1.4550   49.9347   13.5652 C   0  0  0  0  0  0
    0.9490   48.5189   13.6953 C   0  0  0  0  0  0
   -0.0137   49.6759   13.8144 C   0  0  0  0  0  0
    2.7314   53.9999   26.9437 H   0  0  0  0  0  0
    3.7947   55.2889   27.5105 H   0  0  0  0  0  0
    4.2996   53.6133   27.6556 H   0  0  0  0  0  0
    2.7160   53.7006   24.6071 H   0  0  0  0  0  0
    7.4076   55.2010   24.2112 H   0  0  0  0  0  0
    7.7145   55.2538   20.5900 H   0  0  0  0  0  0
    7.6223   56.1593   22.0917 H   0  0  0  0  0  0
    8.2532   54.4984   22.0818 H   0  0  0  0  0  0
    2.6162   53.9901   22.1561 H   0  0  0  0  0  0
    1.7688   51.1952   21.5651 H   0  0  0  0  0  0
    1.2098   51.0466   19.9092 H   0  0  0  0  0  0
    2.7496   50.3063   20.3831 H   0  0  0  0  0  0
    3.3407   54.6279   18.4702 H   0  0  0  0  0  0
    4.8934   54.0814   19.1584 H   0  0  0  0  0  0
    5.2623   54.7931   16.8048 H   0  0  0  0  0  0
    5.6301   53.1050   17.0508 H   0  0  0  0  0  0
    3.0775   54.2524   15.8708 H   0  0  0  0  0  0
    4.3883   53.3926   14.9785 H   0  0  0  0  0  0
    2.1868   51.0527   17.8822 H   0  0  0  0  0  0
    1.6390   52.7718   17.7233 H   0  0  0  0  0  0
    3.0708   49.9181   14.9381 H   0  0  0  0  0  0
    1.7396   50.3017   12.5763 H   0  0  0  0  0  0
    0.9259   47.8966   12.8004 H   0  0  0  0  0  0
    1.2118   47.9518   14.5896 H   0  0  0  0  0  0
   -0.4291   49.9293   14.7912 H   0  0  0  0  0  0
   -0.7137   49.8776   13.0030 H   0  0  0  0  0  0
    4.2613   51.8048   18.7100 H   0  0  0  0  0  0
  1  2  1  0  0  0
  1 30  1  0  0  0
  1 31  1  0  0  0
  1 32  1  0  0  0
  2  7  2  0  0  0
  2  3  1  0  0  0
  3  4  2  0  0  0
  3 33  1  0  0  0
  4  5  1  0  0  0
  4 11  1  0  0  0
  5  6  2  0  0  0
  5  9  1  0  0  0
  6  7  1  0  0  0
  6 34  1  0  0  0
  7  8  1  0  0  0
  9 10  1  0  0  0
 10 35  1  0  0  0
 10 36  1  0  0  0
 10 37  1  0  0  0
 11 12  1  0  0  0
 11 38  1  0  0  0
 12 13  2  0  0  0
 12 14  1  0  0  0
 14 15  1  0  0  0
 14 16  1  0  0  0
 14 17  1  0  0  0
 16 39  1  0  0  0
 16 40  1  0  0  0
 16 41  1  0  0  0
 17 23  1  0  0  0
 17 18  1  0  0  0
 17 56  1  0  0  0
 18 19  1  0  0  0
 18 42  1  0  0  0
 18 43  1  0  0  0
 19 20  1  0  0  0
 19 44  1  0  0  0
 19 45  1  0  0  0
 20 21  1  0  0  0
 20 46  1  0  0  0
 20 47  1  0  0  0
 21 22  1  0  0  0
 21 23  1  0  0  0
 21 24  1  0  0  0
 23 48  1  0  0  0
 23 49  1  0  0  0
 24 25  2  0  0  0
 24 26  1  0  0  0
 26 27  1  0  0  0
 26 50  1  0  0  0
 27 29  1  0  0  0
 27 28  1  0  0  0
 27 51  1  0  0  0
 28 29  1  0  0  0
 28 52  1  0  0  0
 28 53  1  0  0  0
 29 54  1  0  0  0
 29 55  1  0  0  0
M  CHG  1  17   1
M  END
> <i_i_glide_confnum>
121

> <i_i_glide_lignum>
229

> <i_i_glide_posenum>
394

> <i_i_glide_rotatable_bonds>
8

> <i_m_Source_File_Index>
2273

> <b_m_subgroup_collapsed>
0

> <r_i_docking_score>
-5.05691

> <r_i_glide_ecoul>
-7.82112

> <r_i_glide_eff_state_penalty>
0

> <r_i_glide_einternal>
5.59495

> <r_i_glide_emodel>
-48.0827

> <r_i_glide_energy>
-36.4795

> <r_i_glide_erotb>
0.877464

> <r_i_glide_esite>
-0.180542

> <r_i_glide_evdw>
-28.6584

> <r_i_glide_gscore>
-5.05691

> <r_i_glide_hbond>
-0.31921

> <r_i_glide_ligand_efficiency>
-0.187293

> <r_i_glide_ligand_efficiency_ln>
-1.17717

> <r_i_glide_ligand_efficiency_sa>
-0.561879

> <r_i_glide_lipo>
-1.91924

> <r_i_glide_metal>
0

> <r_i_glide_rewards>
-0.9093

> <s_i_glide_gridfile>
wee1_glide-grid

> <s_m_Source_File>
wee1_decoys_glide_SP.sdf

> <s_m_Source_Path>
/Users/zhangxujun/Desktop

> <s_m_entry_id>
2548

> <s_m_entry_name>
wee1_decoys_glide_SP.2273

> <s_m_subgroup_title>
wee1_decoys_glide_SP

> <s_m_subgroupid>
wee1_decoys_glide_SP


$$$$
