@<TRIPOS>MOLECULE
ZINC11859663_4618
62   67    1
SMALL
USER_CHARGES


@<TRIPOS>ATOM
      1 C1          6.4178   54.6662   27.1137 C.3       1 UNK         0.0000 
      2 C2          5.6473   54.4757   25.8187 C.ar      1 UNK         0.0000 
      3 C3          4.2658   54.6660   25.7975 C.ar      1 UNK         0.0000 
      4 C4          3.5561   54.4967   24.6103 C.ar      1 UNK         0.0000 
      5 C5          4.2064   54.0990   23.4364 C.ar      1 UNK         0.0000 
      6 C6          5.5929   53.8840   23.4794 C.ar      1 UNK         0.0000 
      7 C7          6.3119   54.0966   24.6531 C.ar      1 UNK         0.0000 
      8 C8          3.4051   54.0286   22.1181 C.3       1 UNK         0.0000 
      9 H9          2.9419   55.0129   22.0651 H         1 UNK         0.0000 
     10 C10         4.2584   53.8446   20.8312 C.2       1 UNK         0.0000 
     11 C11         4.1495   52.8177   19.9486 C.2       1 UNK         0.0000 
     12 N12         4.9913   52.8966   18.8986 N.am      1 UNK         0.0000 
     13 H13         5.1121   52.0724   18.3039 H         1 UNK         0.0000 
     14 C14         5.8614   53.9638   18.8355 C.2       1 UNK         0.0000 
     15 O15         6.7283   54.1918   17.9968 O.2       1 UNK         0.0000 
     16 S16         5.5042   54.9859   20.2884 S.3       1 UNK         0.0000 
     17 S17         3.1177   51.3321   20.0836 S.3       1 UNK         0.0000 
     18 C18         2.7935   51.5566   21.8400 C.3       1 UNK         0.0000 
     19 H19         3.8134   51.4974   22.2065 H         1 UNK         0.0000 
     20 C20         2.2434   52.9833   22.0490 C.3       1 UNK         0.0000 
     21 H21         1.7517   53.2968   21.1306 H         1 UNK         0.0000 
     22 C22         1.0910   52.7481   23.0871 C.3       1 UNK         0.0000 
     23 H23         0.7162   53.6334   23.6015 H         1 UNK         0.0000 
     24 C24         1.7719   51.6561   23.9358 C.3       1 UNK         0.0000 
     25 C25         1.9355   50.6368   22.7618 C.3       1 UNK         0.0000 
     26 H26         2.4130   49.6966   23.0415 H         1 UNK         0.0000 
     27 C27         0.4128   50.5293   22.5403 C.3       1 UNK         0.0000 
     28 H28         0.0657   50.0445   23.4671 H         1 UNK         0.0000 
     29 C29         0.0187   51.9256   22.2803 C.3       1 UNK         0.0000 
     30 H30         0.0612   52.2779   21.2426 H         1 UNK         0.0000 
     31 C31        -1.4710   51.7355   22.3851 C.2       1 UNK         0.0000 
     32 O32        -2.2870   52.5037   22.8913 O.2       1 UNK         0.0000 
     33 N33        -1.6458   50.5463   21.6914 N.am      1 UNK         0.0000 
     34 C34        -0.4710   49.8324   21.5456 C.2       1 UNK         0.0000 
     35 O35        -0.2097   48.8337   20.8756 O.2       1 UNK         0.0000 
     36 C36        -2.8978   50.0948   21.0271 C.3       1 UNK         0.0000 
     37 H37        -2.7302   49.1209   20.5677 H         1 UNK         0.0000 
     38 C38        -4.1043   49.9553   22.0159 C.3       1 UNK         0.0000 
     39 C39        -4.0179   48.7729   23.0140 C.3       1 UNK         0.0000 
     40 C40        -2.9994   48.9919   24.1524 C.3       1 UNK         0.0000 
     41 C41        -3.8534   47.4028   22.3209 C.3       1 UNK         0.0000 
     42 C42        -3.3274   50.9765   19.8000 C.2       1 UNK         0.0000 
     43 O43        -2.7793   52.0973   19.6837 O.co2     1 UNK         0.0000 
     44 H44         6.0110   54.0184   27.8903 H         1 UNK         0.0000 
     45 H45         7.4788   54.4370   27.0046 H         1 UNK         0.0000 
     46 H46         6.3192   55.6923   27.4664 H         1 UNK         0.0000 
     47 H47         3.7435   54.9618   26.6956 H         1 UNK         0.0000 
     48 H48         2.4951   54.6926   24.6021 H         1 UNK         0.0000 
     49 H49         6.1389   53.5705   22.6041 H         1 UNK         0.0000 
     50 H50         7.3813   53.9422   24.6528 H         1 UNK         0.0000 
     51 H51         1.1522   51.3201   24.7723 H         1 UNK         0.0000 
     52 H52         2.7040   51.9869   24.3861 H         1 UNK         0.0000 
     53 H53        -5.0238   49.7922   21.4487 H         1 UNK         0.0000 
     54 H54        -4.2721   50.8876   22.5603 H         1 UNK         0.0000 
     55 H55        -4.9960   48.7508   23.5005 H         1 UNK         0.0000 
     56 H56        -2.0483   48.4926   23.9605 H         1 UNK         0.0000 
     57 H57        -2.7889   50.0500   24.3173 H         1 UNK         0.0000 
     58 H58        -3.3860   48.5975   25.0939 H         1 UNK         0.0000 
     59 H59        -4.5893   46.6896   22.6972 H         1 UNK         0.0000 
     60 H60        -3.9990   47.4646   21.2437 H         1 UNK         0.0000 
     61 H61        -2.8668   46.9689   22.4914 H         1 UNK         0.0000 
     62 O62        -4.2185   50.4568   19.0940 O.co2     1 UNK         0.0000 
@<TRIPOS>BOND
     1    1    2 1    
     2    1   44 1    
     3    1   45 1    
     4    1   46 1    
     5    2    7 ar   
     6    2    3 ar   
     7    3    4 ar   
     8    3   47 1    
     9    4    5 ar   
    10    4   48 1    
    11    5    6 ar   
    12    5    8 1    
    13    6    7 ar   
    14    6   49 1    
    15    7   50 1    
    16    8    9 1    
    17    8   20 1    
    18    8   10 1    
    19   10   16 1    
    20   10   11 2    
    21   11   12 am   BACKBONE|DICT|INTERRES
    22   11   17 1    
    23   12   13 1    
    24   12   14 am   BACKBONE|DICT|INTERRES
    25   14   15 2    
    26   14   16 1    
    27   17   18 1    
    28   18   19 1    
    29   18   25 1    
    30   18   20 1    
    31   20   21 1    
    32   20   22 1    
    33   22   23 1    
    34   22   29 1    
    35   22   24 1    
    36   24   25 1    
    37   24   51 1    
    38   24   52 1    
    39   25   26 1    
    40   25   27 1    
    41   27   28 1    
    42   27   34 1    
    43   27   29 1    
    44   29   30 1    
    45   29   31 1    
    46   31   32 2    
    47   31   33 am   BACKBONE|DICT|INTERRES
    48   33   34 am   BACKBONE|DICT|INTERRES
    49   33   36 1    
    50   34   35 2    
    51   36   37 1    
    52   36   38 1    
    53   36   42 1    
    54   38   39 1    
    55   38   53 1    
    56   38   54 1    
    57   39   40 1    
    58   39   41 1    
    59   39   55 1    
    60   40   56 1    
    61   40   57 1    
    62   40   58 1    
    63   41   59 1    
    64   41   60 1    
    65   41   61 1    
    66   42   43 2    
    67   42   62 1    
@<TRIPOS>SUBSTRUCTURE
     1 UNK         1 GROUP             0       ****    0 ROOT    
