@<TRIPOS>MOLECULE
ZINC09120365_4160
53   57    1
SMALL
USER_CHARGES


@<TRIPOS>ATOM
      1 C1          6.5092   54.6833   27.1073 C.ar      1 UNK         0.0000 
      2 C2          6.0314   54.8786   25.8143 C.ar      1 UNK         0.0000 
      3 C3          4.7377   54.4759   25.4922 C.ar      1 UNK         0.0000 
      4 C4          3.9191   53.8779   26.4539 C.ar      1 UNK         0.0000 
      5 C5          4.3906   53.6897   27.7677 C.ar      1 UNK         0.0000 
      6 C6          5.6956   54.0987   28.0734 C.ar      1 UNK         0.0000 
      7 C7          3.5923   53.0677   28.8719 C.2       1 UNK         0.0000 
      8 N8          4.0407   52.3889   29.9036 N.2       1 UNK         0.0000 
      9 N9          2.9402   52.0968   30.6987 N.2       1 UNK         0.0000 
     10 C10         1.9065   52.5805   30.0588 C.2       1 UNK         0.0000 
     11 O11         2.2446   53.2304   28.9178 O.3       1 UNK         0.0000 
     12 S12         0.2222   52.5798   30.5613 S.3       1 UNK         0.0000 
     13 C13        -0.3884   51.3190   29.3903 C.3       1 UNK         0.0000 
     14 C14        -0.7318   51.8283   27.9920 C.2       1 UNK         0.0000 
     15 O15        -0.4951   52.9951   27.6822 O.2       1 UNK         0.0000 
     16 N16        -1.2495   50.8967   27.1682 N.am      1 UNK         0.0000 
     17 C17        -1.5821   51.0567   25.8733 C.2       1 UNK         0.0000 
     18 O18        -1.8690   52.1308   25.3369 O.2       1 UNK         0.0000 
     19 N19        -1.5077   49.8893   25.2125 N.am      1 UNK         0.0000 
     20 C20        -1.5315   49.6894   23.7541 C.3       1 UNK         0.0000 
     21 C21        -0.4338   50.5219   23.0054 C.3       1 UNK         0.0000 
     22 C22        -0.4632   50.2625   21.4763 C.3       1 UNK         0.0000 
     23 C23        -0.1895   48.7628   21.2101 C.3       1 UNK         0.0000 
     24 C24        -1.2767   47.9063   21.9093 C.3       1 UNK         0.0000 
     25 C25        -1.2517   48.1867   23.4368 C.3       1 UNK         0.0000 
     26 C26        -2.6696   48.2798   21.3413 C.3       1 UNK         0.0000 
     27 C27        -2.9475   49.7810   21.6045 C.3       1 UNK         0.0000 
     28 C28        -1.8573   50.6427   20.9150 C.3       1 UNK         0.0000 
     29 C29        -2.9218   50.0484   23.1326 C.3       1 UNK         0.0000 
     30 Br30        2.1911   53.2968   25.8896 Br        1 UNK         0.0000 
     31 H31         7.5051   54.9916   27.3812 H         1 UNK         0.0000 
     32 H32         6.6592   55.3339   25.0626 H         1 UNK         0.0000 
     33 H33         4.3710   54.6123   24.4852 H         1 UNK         0.0000 
     34 H34         6.0942   53.9761   29.0705 H         1 UNK         0.0000 
     35 H35        -1.2933   50.8967   29.8317 H         1 UNK         0.0000 
     36 H36         0.3236   50.5017   29.2816 H         1 UNK         0.0000 
     37 H37        -1.2953   49.9518   27.5432 H         1 UNK         0.0000 
     38 H38        -1.3936   49.0505   25.7649 H         1 UNK         0.0000 
     39 H39         0.5543   50.2849   23.4038 H         1 UNK         0.0000 
     40 H40        -0.5694   51.5886   23.1826 H         1 UNK         0.0000 
     41 H41         0.3048   50.8656   20.9869 H         1 UNK         0.0000 
     42 H42         0.8056   48.4970   21.5716 H         1 UNK         0.0000 
     43 H43        -0.1799   48.5641   20.1374 H         1 UNK         0.0000 
     44 H44        -1.0792   46.8486   21.7251 H         1 UNK         0.0000 
     45 H45        -1.9882   47.5540   23.9335 H         1 UNK         0.0000 
     46 H46        -0.2848   47.8902   23.8483 H         1 UNK         0.0000 
     47 H47        -3.4416   47.6631   21.8039 H         1 UNK         0.0000 
     48 H48        -2.7100   48.0676   20.2720 H         1 UNK         0.0000 
     49 H49        -3.9285   50.0451   21.2062 H         1 UNK         0.0000 
     50 H50        -1.8828   50.4910   19.8351 H         1 UNK         0.0000 
     51 H51        -2.0534   51.7032   21.0765 H         1 UNK         0.0000 
     52 H52        -3.1625   51.0961   23.3139 H         1 UNK         0.0000 
     53 H53        -3.7104   49.4744   23.6225 H         1 UNK         0.0000 
@<TRIPOS>BOND
     1    1    6 ar   
     2    1    2 ar   
     3    1   31 1    
     4    2    3 ar   
     5    2   32 1    
     6    3    4 ar   
     7    3   33 1    
     8    4    5 ar   
     9    4   30 1    
    10    5    6 ar   
    11    5    7 1    
    12    6   34 1    
    13    7   11 1    
    14    7    8 2    
    15    8    9 1    
    16    9   10 2    
    17   10   11 1    
    18   10   12 1    
    19   12   13 1    
    20   13   14 1    
    21   13   35 1    
    22   13   36 1    
    23   14   15 2    
    24   14   16 am   BACKBONE|DICT|INTERRES
    25   16   17 am   BACKBONE|DICT|INTERRES
    26   16   37 1    
    27   17   18 2    
    28   17   19 am   BACKBONE|DICT|INTERRES
    29   19   20 1    
    30   19   38 1    
    31   20   25 1    
    32   20   29 1    
    33   20   21 1    
    34   21   22 1    
    35   21   39 1    
    36   21   40 1    
    37   22   28 1    
    38   22   23 1    
    39   22   41 1    
    40   23   24 1    
    41   23   42 1    
    42   23   43 1    
    43   24   25 1    
    44   24   26 1    
    45   24   44 1    
    46   25   45 1    
    47   25   46 1    
    48   26   27 1    
    49   26   47 1    
    50   26   48 1    
    51   27   28 1    
    52   27   29 1    
    53   27   49 1    
    54   28   50 1    
    55   28   51 1    
    56   29   52 1    
    57   29   53 1    
@<TRIPOS>SUBSTRUCTURE
     1 UNK         1 GROUP             0       ****    0 ROOT    
