@<TRIPOS>MOLECULE
ZINC35476887_3476
57   60    1
SMALL
USER_CHARGES


@<TRIPOS>ATOM
      1 C1          2.2976   48.6754   20.1713 C.3       1 UNK         0.0000 
      2 C2          2.3361   50.1408   20.5542 C.ar      1 UNK         0.0000 
      3 C3          2.8462   51.1254   19.7042 C.ar      1 UNK         0.0000 
      4 C4          2.8452   52.4593   20.1175 C.ar      1 UNK         0.0000 
      5 C5          2.3163   52.7891   21.3682 C.ar      1 UNK         0.0000 
      6 C6          1.7954   51.7867   22.1878 C.ar      1 UNK         0.0000 
      7 N7          1.8394   50.5081   21.7532 N.pl3     1 UNK         0.0000 
      8 N8          1.2193   52.1300   23.4431 N.pl3     1 UNK         0.0000 
      9 C9          0.6218   51.1660   24.3886 C.3       1 UNK         0.0000 
     10 H10         1.4235   50.4312   24.4820 H         1 UNK         0.0000 
     11 C11        -0.5376   50.4184   23.7216 C.ar      1 UNK         0.0000 
     12 C12        -0.4795   49.0224   23.6029 C.ar      1 UNK         0.0000 
     13 C13        -1.5070   48.3247   22.9692 C.ar      1 UNK         0.0000 
     14 C14        -2.5982   49.0154   22.4431 C.ar      1 UNK         0.0000 
     15 C15        -2.6603   50.4047   22.5486 C.ar      1 UNK         0.0000 
     16 C16        -1.6346   51.1079   23.1806 C.ar      1 UNK         0.0000 
     17 F17        -1.7117   52.4570   23.2650 F         1 UNK         0.0000 
     18 C18         0.4006   51.7202   25.8261 C.2       1 UNK         0.0000 
     19 C19        -0.6266   51.3324   26.7495 C.2       1 UNK         0.0000 
     20 C20        -0.4845   51.9103   28.0212 C.2       1 UNK         0.0000 
     21 S21         0.8572   52.9848   28.0822 S.3       1 UNK         0.0000 
     22 C22         1.2791   52.6417   26.4356 C.2       1 UNK         0.0000 
     23 N23         2.4182   53.1880   25.8408 N.am      1 UNK         0.0000 
     24 C24         3.3032   54.0964   26.3136 C.2       1 UNK         0.0000 
     25 O25         3.2304   54.6361   27.4191 O.2       1 UNK         0.0000 
     26 C26         4.4581   54.4193   25.3847 C.ar      1 UNK         0.0000 
     27 C27         5.5963   55.0546   25.8939 C.ar      1 UNK         0.0000 
     28 C28         6.6673   55.3553   25.0605 C.ar      1 UNK         0.0000 
     29 C29         6.6472   54.9780   23.7232 C.ar      1 UNK         0.0000 
     30 C30         5.5262   54.3469   23.1957 C.ar      1 UNK         0.0000 
     31 C31         4.4296   54.0957   24.0172 C.ar      1 UNK         0.0000 
     32 C32        -1.2962   51.6994   29.2821 C.3       1 UNK         0.0000 
     33 C33        -1.7542   50.3538   26.4644 C.3       1 UNK         0.0000 
     34 H34         2.8827   48.4886   19.2681 H         1 UNK         0.0000 
     35 H35         2.7043   48.0555   20.9698 H         1 UNK         0.0000 
     36 H36         1.2718   48.3610   19.9784 H         1 UNK         0.0000 
     37 H37         3.2465   50.8639   18.7329 H         1 UNK         0.0000 
     38 H38         3.2358   53.2313   19.4696 H         1 UNK         0.0000 
     39 H39         2.2958   53.8232   21.6814 H         1 UNK         0.0000 
     40 H40         1.1487   53.1076   23.6878 H         1 UNK         0.0000 
     41 H41         0.3551   48.4721   24.0157 H         1 UNK         0.0000 
     42 H42        -1.4595   47.2483   22.8920 H         1 UNK         0.0000 
     43 H43        -3.3972   48.4756   21.9556 H         1 UNK         0.0000 
     44 H44        -3.5058   50.9383   22.1419 H         1 UNK         0.0000 
     45 H45         2.6352   52.8112   24.9325 H         1 UNK         0.0000 
     46 H46         5.6547   55.3294   26.9382 H         1 UNK         0.0000 
     47 H47         7.5044   55.8994   25.4488 H         1 UNK         0.0000 
     48 H48         7.5016   55.1957   23.0946 H         1 UNK         0.0000 
     49 H49         5.5002   54.0683   22.1523 H         1 UNK         0.0000 
     50 H50         3.5730   53.6165   23.5781 H         1 UNK         0.0000 
     51 H51        -2.3388   51.4516   29.0855 H         1 UNK         0.0000 
     52 H52        -0.8915   50.8966   29.8948 H         1 UNK         0.0000 
     53 H53        -1.2938   52.5865   29.9123 H         1 UNK         0.0000 
     54 H54        -1.3731   49.4031   26.0954 H         1 UNK         0.0000 
     55 H55        -2.3626   50.0999   27.3298 H         1 UNK         0.0000 
     56 H56        -2.4401   50.7316   25.7091 H         1 UNK         0.0000 
     57 H57         1.4461   49.7953   22.3497 H         1 UNK         0.0000 
@<TRIPOS>BOND
     1    1    2 1    
     2    1   34 1    
     3    1   35 1    
     4    1   36 1    
     5    2    7 ar   
     6    2    3 ar   
     7    3    4 ar   
     8    3   37 1    
     9    4    5 ar   
    10    4   38 1    
    11    5    6 ar   
    12    5   39 1    
    13    6    7 ar   
    14    6    8 1    
    15    7   57 1    
    16    8    9 1    
    17    8   40 1    
    18    9   10 1    
    19    9   11 1    
    20    9   18 1    
    21   11   16 ar   
    22   11   12 ar   
    23   12   13 ar   
    24   12   41 1    
    25   13   14 ar   
    26   13   42 1    
    27   14   15 ar   
    28   14   43 1    
    29   15   16 ar   
    30   15   44 1    
    31   16   17 1    
    32   18   22 2    
    33   18   19 1    
    34   19   20 2    
    35   19   33 1    
    36   20   21 1    
    37   20   32 1    
    38   21   22 1    
    39   22   23 am   BACKBONE|DICT|INTERRES
    40   23   24 am   BACKBONE|DICT|INTERRES
    41   23   45 1    
    42   24   25 2    
    43   24   26 1    
    44   26   31 ar   
    45   26   27 ar   
    46   27   28 ar   
    47   27   46 1    
    48   28   29 ar   
    49   28   47 1    
    50   29   30 ar   
    51   29   48 1    
    52   30   31 ar   
    53   30   49 1    
    54   31   50 1    
    55   32   51 1    
    56   32   52 1    
    57   32   53 1    
    58   33   54 1    
    59   33   55 1    
    60   33   56 1    
@<TRIPOS>SUBSTRUCTURE
     1 UNK         1 GROUP             0       ****    0 ROOT    
