@<TRIPOS>MOLECULE
ZINC26964465_1532
44   47    1
SMALL
USER_CHARGES


@<TRIPOS>ATOM
      1 C1          4.6669   54.2466   28.0436 C.2       1 UNK         0.0000 
      2 C2          4.9464   54.3840   26.6806 C.2       1 UNK         0.0000 
      3 C3          3.8589   54.0974   25.8354 C.2       1 UNK         0.0000 
      4 S4          2.4677   53.6811   26.8182 S.3       1 UNK         0.0000 
      5 C5          3.3611   53.8684   28.2846 C.2       1 UNK         0.0000 
      6 C6          3.6959   54.0984   24.3741 C.2       1 UNK         0.0000 
      7 O7          2.5747   53.8585   23.9133 O.2       1 UNK         0.0000 
      8 N8          4.7487   54.3508   23.5394 N.am      1 UNK         0.0000 
      9 C9          6.1160   54.7339   23.9026 C.3       1 UNK         0.0000 
     10 C10         6.8993   54.8972   22.6115 C.3       1 UNK         0.0000 
     11 C11         5.8681   55.0020   21.5071 C.3       1 UNK         0.0000 
     12 C12         4.5853   54.3604   22.0630 C.3       1 UNK         0.0000 
     13 H13         3.7411   55.0057   21.8126 H         1 UNK         0.0000 
     14 C14         4.3162   52.9755   21.4535 C.2       1 UNK         0.0000 
     15 O15         5.1046   52.0568   21.6802 O.2       1 UNK         0.0000 
     16 N16         3.2195   52.8969   20.6698 N.am      1 UNK         0.0000 
     17 N17         2.8120   51.6669   20.1494 N.am      1 UNK         0.0000 
     18 C18         2.0411   50.8432   20.9000 C.2       1 UNK         0.0000 
     19 O19         1.6579   51.1086   22.0452 O.2       1 UNK         0.0000 
     20 C20         1.5902   49.5634   20.2320 C.ar      1 UNK         0.0000 
     21 C21         2.3011   49.0103   19.1428 C.ar      1 UNK         0.0000 
     22 C22         1.9037   47.8129   18.5356 C.ar      1 UNK         0.0000 
     23 C23         0.7717   47.1862   19.0395 C.ar      1 UNK         0.0000 
     24 C24         0.0628   47.7116   20.0813 C.ar      1 UNK         0.0000 
     25 C25         0.4445   48.8949   20.7064 C.ar      1 UNK         0.0000 
     26 O26        -0.9613   46.8781   20.3946 O.3       1 UNK         0.0000 
     27 C27        -0.9892   45.9089   19.3787 C.3       1 UNK         0.0000 
     28 O28         0.2148   46.0056   18.6631 O.3       1 UNK         0.0000 
     29 H29         5.3941   54.4205   28.8216 H         1 UNK         0.0000 
     30 H30         5.9339   54.6853   26.3810 H         1 UNK         0.0000 
     31 H31         2.8830   53.6908   29.2342 H         1 UNK         0.0000 
     32 H32         6.5962   53.9698   24.5159 H         1 UNK         0.0000 
     33 H33         6.0916   55.6859   24.4369 H         1 UNK         0.0000 
     34 H34         7.5165   54.0124   22.4823 H         1 UNK         0.0000 
     35 H35         7.5746   55.7515   22.6312 H         1 UNK         0.0000 
     36 H36         6.2202   54.5475   20.5799 H         1 UNK         0.0000 
     37 H37         5.6757   56.0505   21.2815 H         1 UNK         0.0000 
     38 H38         2.5709   53.6521   20.4859 H         1 UNK         0.0000 
     39 H39         3.3637   51.3726   19.3543 H         1 UNK         0.0000 
     40 H40         3.1832   49.4980   18.7568 H         1 UNK         0.0000 
     41 H41         2.4742   47.4063   17.7140 H         1 UNK         0.0000 
     42 H42        -0.1226   49.2791   21.5435 H         1 UNK         0.0000 
     43 H43        -1.0954   44.9119   19.8100 H         1 UNK         0.0000 
     44 H44        -1.8269   46.1153   18.7061 H         1 UNK         0.0000 
@<TRIPOS>BOND
     1    1    5 2    
     2    1    2 1    
     3    1   29 1    
     4    2    3 2    
     5    2   30 1    
     6    3    4 1    
     7    3    6 1    
     8    4    5 1    
     9    5   31 1    
    10    6    7 2    
    11    6    8 am   BACKBONE|DICT|INTERRES
    12    8   12 1    
    13    8    9 1    
    14    9   10 1    
    15    9   32 1    
    16    9   33 1    
    17   10   11 1    
    18   10   34 1    
    19   10   35 1    
    20   11   12 1    
    21   11   36 1    
    22   11   37 1    
    23   12   13 1    
    24   12   14 1    
    25   14   15 2    
    26   14   16 am   BACKBONE|DICT|INTERRES
    27   16   17 1    
    28   16   38 1    
    29   17   18 am   BACKBONE|DICT|INTERRES
    30   17   39 1    
    31   18   19 2    
    32   18   20 1    
    33   20   25 ar   
    34   20   21 ar   
    35   21   22 ar   
    36   21   40 1    
    37   22   23 ar   
    38   22   41 1    
    39   23   28 1    
    40   23   24 ar   
    41   24   25 ar   
    42   24   26 1    
    43   25   42 1    
    44   26   27 1    
    45   27   28 1    
    46   27   43 1    
    47   27   44 1    
@<TRIPOS>SUBSTRUCTURE
     1 UNK         1 GROUP             0       ****    0 ROOT    
