@<TRIPOS>MOLECULE
ZINC02265761_3506
49   53    1
SMALL
USER_CHARGES


@<TRIPOS>ATOM
      1 C1          8.0530   56.3940   18.0988 C.ar      1 UNK         0.0000 
      2 C2          6.7075   56.1509   17.8389 C.ar      1 UNK         0.0000 
      3 C3          5.8892   55.6559   18.8499 C.ar      1 UNK         0.0000 
      4 C4          6.4138   55.4039   20.1207 C.ar      1 UNK         0.0000 
      5 C5          7.7677   55.6684   20.3810 C.ar      1 UNK         0.0000 
      6 C6          8.5846   56.1522   19.3624 C.ar      1 UNK         0.0000 
      7 N7          5.5035   54.8968   21.0618 N.am      1 UNK         0.0000 
      8 C8          5.7055   54.4405   22.3143 C.2       1 UNK         0.0000 
      9 O9          6.7854   54.3683   22.8967 O.2       1 UNK         0.0000 
     10 C10         4.4883   54.0690   22.9889 C.ar      1 UNK         0.0000 
     11 C11         4.2085   54.0976   24.3885 C.ar      1 UNK         0.0000 
     12 C12         2.8821   53.6518   24.5945 C.ar      1 UNK         0.0000 
     13 N13         2.3392   53.5762   25.8152 N.ar      1 UNK         0.0000 
     14 C14         3.1060   53.9115   26.8861 C.ar      1 UNK         0.0000 
     15 C15         2.5790   53.8274   28.1935 C.ar      1 UNK         0.0000 
     16 C16         3.3772   54.1719   29.2815 C.ar      1 UNK         0.0000 
     17 C17         4.6961   54.5837   29.0982 C.ar      1 UNK         0.0000 
     18 C18         5.2487   54.6539   27.8213 C.ar      1 UNK         0.0000 
     19 C19         4.4520   54.3423   26.6960 C.ar      1 UNK         0.0000 
     20 N20         4.9601   54.4508   25.4379 N.ar      1 UNK         0.0000 
     21 N21         2.3470   53.2492   23.3681 N.pl3     1 UNK         0.0000 
     22 C22         3.3738   53.4217   22.4295 C.ar      1 UNK         0.0000 
     23 N23         3.2068   52.9658   21.1399 N.pl3     1 UNK         0.0000 
     24 N24         1.1190   52.6729   23.0194 N.2       1 UNK         0.0000 
     25 C25         0.1007   52.8603   23.7634 C.2       1 UNK         0.0000 
     26 C26        -1.1951   52.2008   23.5640 C.ar      1 UNK         0.0000 
     27 C27        -1.4129   51.2573   22.5468 C.ar      1 UNK         0.0000 
     28 C28        -2.6515   50.6287   22.4085 C.ar      1 UNK         0.0000 
     29 C29        -3.6933   50.9384   23.2816 C.ar      1 UNK         0.0000 
     30 C30        -3.4969   51.8822   24.2873 C.ar      1 UNK         0.0000 
     31 C31        -2.2554   52.5001   24.4303 C.ar      1 UNK         0.0000 
     32 Br32       -4.9208   52.3347   25.4659 Br        1 UNK         0.0000 
     33 H33         8.6899   56.7754   17.3140 H         1 UNK         0.0000 
     34 H34         6.3009   56.3423   16.8564 H         1 UNK         0.0000 
     35 H35         4.8476   55.4649   18.6327 H         1 UNK         0.0000 
     36 H36         8.2098   55.5016   21.3515 H         1 UNK         0.0000 
     37 H37         9.6270   56.3545   19.5556 H         1 UNK         0.0000 
     38 H38         4.5442   54.8635   20.7493 H         1 UNK         0.0000 
     39 H39         1.5584   53.5026   28.3386 H         1 UNK         0.0000 
     40 H40         2.9589   54.1224   30.2727 H         1 UNK         0.0000 
     41 H41         5.2927   54.8919   29.9457 H         1 UNK         0.0000 
     42 H42         6.2691   54.9847   27.6859 H         1 UNK         0.0000 
     43 H43         3.9764   52.8646   20.4923 H         1 UNK         0.0000 
     44 H44         2.3071   52.6333   20.8201 H         1 UNK         0.0000 
     45 H45         0.1269   53.5325   24.6157 H         1 UNK         0.0000 
     46 H46        -0.6175   50.9933   21.8635 H         1 UNK         0.0000 
     47 H47        -2.8014   49.8980   21.6273 H         1 UNK         0.0000 
     48 H48        -4.6531   50.4541   23.1749 H         1 UNK         0.0000 
     49 H49        -2.1286   53.2175   25.2285 H         1 UNK         0.0000 
@<TRIPOS>BOND
     1    1    6 ar   
     2    1    2 ar   
     3    1   33 1    
     4    2    3 ar   
     5    2   34 1    
     6    3    4 ar   
     7    3   35 1    
     8    4    5 ar   
     9    4    7 1    
    10    5    6 ar   
    11    5   36 1    
    12    6   37 1    
    13    7    8 am   BACKBONE|DICT|INTERRES
    14    7   38 1    
    15    8    9 2    
    16    8   10 1    
    17   10   22 ar   
    18   10   11 ar   
    19   11   20 ar   
    20   11   12 ar   
    21   12   13 ar   
    22   12   21 ar   
    23   13   14 ar   
    24   14   19 ar   
    25   14   15 ar   
    26   15   16 ar   
    27   15   39 1    
    28   16   17 ar   
    29   16   40 1    
    30   17   18 ar   
    31   17   41 1    
    32   18   19 ar   
    33   18   42 1    
    34   19   20 ar   
    35   21   22 ar   
    36   21   24 1    
    37   22   23 1    
    38   23   43 1    
    39   23   44 1    
    40   24   25 2    
    41   25   26 1    
    42   25   45 1    
    43   26   31 ar   
    44   26   27 ar   
    45   27   28 ar   
    46   27   46 1    
    47   28   29 ar   
    48   28   47 1    
    49   29   30 ar   
    50   29   48 1    
    51   30   31 ar   
    52   30   32 1    
    53   31   49 1    
@<TRIPOS>SUBSTRUCTURE
     1 UNK         1 GROUP             0       ****    0 ROOT    
