@<TRIPOS>MOLECULE
ZINC11881114_3457
66   69    1
SMALL
USER_CHARGES


@<TRIPOS>ATOM
      1 C1          3.7482   52.8252   29.8115 C.3       1 UNK         0.0000 
      2 C2          4.3280   53.3757   28.5219 C.ar      1 UNK         0.0000 
      3 C3          5.6776   53.7011   28.4251 C.ar      1 UNK         0.0000 
      4 C4          6.2137   54.1630   27.2342 C.ar      1 UNK         0.0000 
      5 C5          5.4090   54.3211   26.1018 C.ar      1 UNK         0.0000 
      6 C6          4.0254   54.0289   26.1978 C.ar      1 UNK         0.0000 
      7 C7          3.5090   53.5585   27.4112 C.ar      1 UNK         0.0000 
      8 C8          3.0388   54.2086   25.0444 C.3       1 UNK         0.0000 
      9 C9          6.0813   54.8142   24.8435 C.2       1 UNK         0.0000 
     10 O10         6.9356   55.6973   24.9318 O.2       1 UNK         0.0000 
     11 N11         5.6981   54.2118   23.6934 N.am      1 UNK         0.0000 
     12 C12         5.9915   54.6018   22.3743 C.ar      1 UNK         0.0000 
     13 C13         7.1029   55.3745   22.0263 C.ar      1 UNK         0.0000 
     14 C14         7.2571   55.8378   20.7283 C.ar      1 UNK         0.0000 
     15 C15         6.2986   55.5640   19.7486 C.ar      1 UNK         0.0000 
     16 C16         5.2328   54.7142   20.0805 C.ar      1 UNK         0.0000 
     17 C17         5.0866   54.2233   21.3779 C.ar      1 UNK         0.0000 
     18 N18         6.3881   56.2036   18.5115 N.pl3     1 UNK         0.0000 
     19 C19         7.6707   56.3785   17.8045 C.3       1 UNK         0.0000 
     20 C20         7.7376   57.7670   17.1337 C.3       1 UNK         0.0000 
     21 C21         6.6134   57.9484   16.0986 C.3       1 UNK         0.0000 
     22 C22         5.2664   57.6353   16.7797 C.3       1 UNK         0.0000 
     23 C23         5.2643   56.2988   17.5608 C.3       1 UNK         0.0000 
     24 C24         5.7173   59.8043   14.4467 C.3       1 UNK         0.0000 
     25 H25         4.7085   59.7355   14.8605 H         1 UNK         0.0000 
     26 C26         5.8983   58.8088   13.2786 C.3       1 UNK         0.0000 
     27 C27         6.0191   61.2665   14.0528 C.3       1 UNK         0.0000 
     28 C28         5.0238   61.8150   13.0496 C.2       1 UNK         0.0000 
     29 C29         5.1780   61.7945   11.6530 C.2       1 UNK         0.0000 
     30 C30         4.1056   62.3439   10.9621 C.2       1 UNK         0.0000 
     31 S31         2.8751   62.9227   12.0304 S.3       1 UNK         0.0000 
     32 C32         3.8139   62.4110   13.3928 C.2       1 UNK         0.0000 
     33 H33         4.2874   53.1881   30.6864 H         1 UNK         0.0000 
     34 H34         2.7084   53.1350   29.9274 H         1 UNK         0.0000 
     35 H35         3.7844   51.7357   29.7985 H         1 UNK         0.0000 
     36 H36         6.3518   53.5863   29.2501 H         1 UNK         0.0000 
     37 H37         7.2717   54.3848   27.1979 H         1 UNK         0.0000 
     38 H38         2.4614   53.3083   27.4875 H         1 UNK         0.0000 
     39 H39         2.0013   54.1568   25.3791 H         1 UNK         0.0000 
     40 H40         3.1654   55.1800   24.5640 H         1 UNK         0.0000 
     41 H41         3.1843   53.4346   24.2913 H         1 UNK         0.0000 
     42 H42         5.0067   53.4853   23.7948 H         1 UNK         0.0000 
     43 H43         7.8581   55.6646   22.7420 H         1 UNK         0.0000 
     44 H44         8.1110   56.4594   20.5124 H         1 UNK         0.0000 
     45 H45         4.4890   54.4480   19.3421 H         1 UNK         0.0000 
     46 H46         4.2371   53.5941   21.6059 H         1 UNK         0.0000 
     47 H47         7.7532   55.5860   17.0575 H         1 UNK         0.0000 
     48 H48         8.5337   56.2587   18.4589 H         1 UNK         0.0000 
     49 H49         8.7144   57.9580   16.6860 H         1 UNK         0.0000 
     50 H50         7.6496   58.5229   17.9178 H         1 UNK         0.0000 
     51 H51         6.8284   57.2537   15.2857 H         1 UNK         0.0000 
     52 H52         5.0033   58.4333   17.4778 H         1 UNK         0.0000 
     53 H53         4.4569   57.6655   16.0491 H         1 UNK         0.0000 
     54 H54         5.2866   55.4433   16.8840 H         1 UNK         0.0000 
     55 H55         4.3213   56.2544   18.1067 H         1 UNK         0.0000 
     56 H56         5.3194   59.1125   12.4068 H         1 UNK         0.0000 
     57 H57         6.9396   58.7325   12.9622 H         1 UNK         0.0000 
     58 H58         5.5491   57.8095   13.5397 H         1 UNK         0.0000 
     59 H59         7.0393   61.3667   13.6795 H         1 UNK         0.0000 
     60 H60         5.9944   61.8945   14.9451 H         1 UNK         0.0000 
     61 H61         6.0449   61.3787   11.1605 H         1 UNK         0.0000 
     62 H62         3.9832   62.4346    9.8922 H         1 UNK         0.0000 
     63 H63         3.4367   62.5545   14.3969 H         1 UNK         0.0000 
     64 N64         6.6320   59.4230   15.6331 N.4       1 UNK         0.0000 
     65 H65         7.5851   59.6811   15.4245 H         1 UNK         0.0000 
     66 H66         6.3694   60.0147   16.4200 H         1 UNK         0.0000 
@<TRIPOS>BOND
     1    1    2 1    
     2    1   33 1    
     3    1   34 1    
     4    1   35 1    
     5    2    7 ar   
     6    2    3 ar   
     7    3    4 ar   
     8    3   36 1    
     9    4    5 ar   
    10    4   37 1    
    11    5    6 ar   
    12    5    9 1    
    13    6    7 ar   
    14    6    8 1    
    15    7   38 1    
    16    8   39 1    
    17    8   40 1    
    18    8   41 1    
    19    9   10 2    
    20    9   11 am   BACKBONE|DICT|INTERRES
    21   11   12 1    
    22   11   42 1    
    23   12   17 ar   
    24   12   13 ar   
    25   13   14 ar   
    26   13   43 1    
    27   14   15 ar   
    28   14   44 1    
    29   15   16 ar   
    30   15   18 1    
    31   16   17 ar   
    32   16   45 1    
    33   17   46 1    
    34   18   23 1    
    35   18   19 1    
    36   19   20 1    
    37   19   47 1    
    38   19   48 1    
    39   20   21 1    
    40   20   49 1    
    41   20   50 1    
    42   21   22 1    
    43   21   51 1    
    44   21   64 1    
    45   22   23 1    
    46   22   52 1    
    47   22   53 1    
    48   23   54 1    
    49   23   55 1    
    50   24   25 1    
    51   24   26 1    
    52   24   27 1    
    53   24   64 1    
    54   26   56 1    
    55   26   57 1    
    56   26   58 1    
    57   27   28 1    
    58   27   59 1    
    59   27   60 1    
    60   28   32 2    
    61   28   29 1    
    62   29   30 2    
    63   29   61 1    
    64   30   31 1    
    65   30   62 1    
    66   31   32 1    
    67   32   63 1    
    68   64   65 1    
    69   64   66 1    
@<TRIPOS>SUBSTRUCTURE
     1 UNK         1 GROUP             0       ****    0 ROOT    
