@<TRIPOS>MOLECULE
ZINC46570056_5166
58   61    1
SMALL
USER_CHARGES


@<TRIPOS>ATOM
      1 C1         -0.8526   50.4969   26.3450 C.ar      1 UNK         0.0000 
      2 C2         -0.6377   51.0403   25.0795 C.ar      1 UNK         0.0000 
      3 C3          0.3090   52.0558   24.9075 C.ar      1 UNK         0.0000 
      4 C4          1.0335   52.5040   26.0135 C.ar      1 UNK         0.0000 
      5 C5          0.8369   51.9555   27.2798 C.ar      1 UNK         0.0000 
      6 C6         -0.1223   50.9554   27.4412 C.ar      1 UNK         0.0000 
      7 S7          1.7862   52.5091   28.6987 S.o2      1 UNK         0.0000 
      8 O8          2.2647   51.2968   29.3528 O.2       1 UNK         0.0000 
      9 O9          0.9539   53.4787   29.4202 O.2       1 UNK         0.0000 
     10 N10         3.2124   53.3500   28.0883 N.pl3     1 UNK         0.0000 
     11 C11         3.0434   54.7305   27.6514 C.3       1 UNK         0.0000 
     12 C12         3.9302   54.8979   26.4212 C.3       1 UNK         0.0000 
     13 C13         5.4286   54.6857   26.7930 C.3       1 UNK         0.0000 
     14 C14         5.6261   53.2965   27.4695 C.3       1 UNK         0.0000 
     15 C15         4.5760   53.0376   28.5890 C.3       1 UNK         0.0000 
     16 C16         6.2212   54.8474   25.4755 C.2       1 UNK         0.0000 
     17 O17         7.1043   55.6962   25.4114 O.2       1 UNK         0.0000 
     18 N18         5.8025   54.0958   24.4375 N.am      1 UNK         0.0000 
     19 C19         5.9312   54.3105   23.0591 C.ar      1 UNK         0.0000 
     20 C20         6.8046   55.2240   22.4549 C.ar      1 UNK         0.0000 
     21 C21         6.7668   55.4191   21.0730 C.ar      1 UNK         0.0000 
     22 C22         5.8559   54.7115   20.2867 C.ar      1 UNK         0.0000 
     23 C23         4.9951   53.7813   20.8750 C.ar      1 UNK         0.0000 
     24 C24         5.0392   53.5921   22.2632 C.ar      1 UNK         0.0000 
     25 N25         4.0745   53.1191   20.0453 N.am      1 UNK         0.0000 
     26 C26         3.4943   51.9188   20.2509 C.2       1 UNK         0.0000 
     27 O27         3.7896   51.1566   21.1756 O.2       1 UNK         0.0000 
     28 C28         2.4095   51.5330   19.2283 C.3       1 UNK         0.0000 
     29 C29         2.3020   50.0602   18.8875 C.3       1 UNK         0.0000 
     30 C30         1.2490   50.7131   19.7600 C.3       1 UNK         0.0000 
     31 C31         0.5688   52.6857   23.5454 C.3       1 UNK         0.0000 
     32 F32        -0.4499   52.4964   22.7054 F         1 UNK         0.0000 
     33 F33         0.7711   53.9979   23.6800 F         1 UNK         0.0000 
     34 F34         1.6639   52.1406   23.0214 F         1 UNK         0.0000 
     35 H35        -1.5779   49.7063   26.4823 H         1 UNK         0.0000 
     36 H36        -1.2073   50.6672   24.2408 H         1 UNK         0.0000 
     37 H37         1.7465   53.2888   25.8663 H         1 UNK         0.0000 
     38 H38        -0.3003   50.5185   28.4137 H         1 UNK         0.0000 
     39 H39         3.3616   55.4020   28.4509 H         1 UNK         0.0000 
     40 H40         1.9908   54.9183   27.4377 H         1 UNK         0.0000 
     41 H41         3.7540   55.9078   26.0667 H         1 UNK         0.0000 
     42 H42         3.5848   54.1782   25.6809 H         1 UNK         0.0000 
     43 H43         5.7485   55.4852   27.4631 H         1 UNK         0.0000 
     44 H44         5.4571   52.4970   26.7539 H         1 UNK         0.0000 
     45 H45         6.6177   53.2086   27.9179 H         1 UNK         0.0000 
     46 H46         4.7937   53.7191   29.4123 H         1 UNK         0.0000 
     47 H47         4.6204   52.0126   28.9571 H         1 UNK         0.0000 
     48 H48         5.1449   53.3699   24.6762 H         1 UNK         0.0000 
     49 H49         7.5045   55.7985   23.0389 H         1 UNK         0.0000 
     50 H50         7.4439   56.1206   20.6096 H         1 UNK         0.0000 
     51 H51         5.8336   54.8806   19.2195 H         1 UNK         0.0000 
     52 H52         4.3418   52.9173   22.7361 H         1 UNK         0.0000 
     53 H53         3.8559   53.5795   19.1759 H         1 UNK         0.0000 
     54 H54         2.2197   52.2624   18.4396 H         1 UNK         0.0000 
     55 H55         3.0127   49.3565   19.3257 H         1 UNK         0.0000 
     56 H56         2.0670   49.7966   17.8559 H         1 UNK         0.0000 
     57 H57         0.2581   50.8984   19.3456 H         1 UNK         0.0000 
     58 H58         1.2069   50.4574   20.8202 H         1 UNK         0.0000 
@<TRIPOS>BOND
     1    1    6 ar   
     2    1    2 ar   
     3    1   35 1    
     4    2    3 ar   
     5    2   36 1    
     6    3    4 ar   
     7    3   31 1    
     8    4    5 ar   
     9    4   37 1    
    10    5    6 ar   
    11    5    7 1    
    12    6   38 1    
    13    7    8 2    
    14    7    9 2    
    15    7   10 1    
    16   10   15 1    
    17   10   11 1    
    18   11   12 1    
    19   11   39 1    
    20   11   40 1    
    21   12   13 1    
    22   12   41 1    
    23   12   42 1    
    24   13   14 1    
    25   13   16 1    
    26   13   43 1    
    27   14   15 1    
    28   14   44 1    
    29   14   45 1    
    30   15   46 1    
    31   15   47 1    
    32   16   17 2    
    33   16   18 am   BACKBONE|DICT|INTERRES
    34   18   19 1    
    35   18   48 1    
    36   19   24 ar   
    37   19   20 ar   
    38   20   21 ar   
    39   20   49 1    
    40   21   22 ar   
    41   21   50 1    
    42   22   23 ar   
    43   22   51 1    
    44   23   24 ar   
    45   23   25 1    
    46   24   52 1    
    47   25   26 am   BACKBONE|DICT|INTERRES
    48   25   53 1    
    49   26   27 2    
    50   26   28 1    
    51   28   30 1    
    52   28   29 1    
    53   28   54 1    
    54   29   30 1    
    55   29   55 1    
    56   29   56 1    
    57   30   57 1    
    58   30   58 1    
    59   31   32 1    
    60   31   33 1    
    61   31   34 1    
@<TRIPOS>SUBSTRUCTURE
     1 UNK         1 GROUP             0       ****    0 ROOT    
