@<TRIPOS>MOLECULE
ZINC59590114_2535
39   41    1
SMALL
USER_CHARGES


@<TRIPOS>ATOM
      1 C1          6.5717   55.1771   21.8299 C.ar      1 UNK         0.0000 
      2 C2          7.2834   55.5811   20.7022 C.ar      1 UNK         0.0000 
      3 C3          6.7929   55.3017   19.4192 C.ar      1 UNK         0.0000 
      4 C4          5.5944   54.6052   19.2860 C.ar      1 UNK         0.0000 
      5 C5          4.8919   54.1847   20.4099 C.ar      1 UNK         0.0000 
      6 C6          5.3605   54.4791   21.6966 C.ar      1 UNK         0.0000 
      7 C7          4.5529   53.9893   22.9128 C.3       1 UNK         0.0000 
      8 H8          4.6841   52.9049   22.8796 H         1 UNK         0.0000 
      9 N9          5.0378   54.4414   24.2152 N.pl3     1 UNK         0.0000 
     10 C10         4.2922   54.1865   25.3822 C.ar      1 UNK         0.0000 
     11 C11         4.9298   54.3917   26.6049 C.ar      1 UNK         0.0000 
     12 C12         4.2739   54.1320   27.8066 C.ar      1 UNK         0.0000 
     13 C13         2.9722   53.6133   27.7946 C.ar      1 UNK         0.0000 
     14 C14         2.3260   53.4086   26.5705 C.ar      1 UNK         0.0000 
     15 C15         2.9740   53.6969   25.3662 C.ar      1 UNK         0.0000 
     16 S16         2.0689   53.4064   23.8538 S.o2      1 UNK         0.0000 
     17 O17         0.7793   54.0961   23.9329 O.2       1 UNK         0.0000 
     18 O18         2.0858   51.9680   23.5773 O.2       1 UNK         0.0000 
     19 N19         3.1155   54.2322   22.7320 N.pl3     1 UNK         0.0000 
     20 S20         2.1534   53.1928   29.3361 S.o2      1 UNK         0.0000 
     21 O21         2.9159   52.0949   29.9382 O.2       1 UNK         0.0000 
     22 O22         1.9403   54.4522   30.0550 O.2       1 UNK         0.0000 
     23 N23         0.5798   52.5618   28.9270 N.pl3     1 UNK         0.0000 
     24 Cl24        5.1038   54.4906   29.2806 Cl        1 UNK         0.0000 
     25 O25         7.4063   55.6975   18.2481 O.3       1 UNK         0.0000 
     26 C26         8.8252   55.8329   18.1981 C.3       1 UNK         0.0000 
     27 F27         9.1611   56.0136   16.9220 F         1 UNK         0.0000 
     28 F28         9.4383   54.7268   18.6203 F         1 UNK         0.0000 
     29 F29         9.2441   56.8983   18.8813 F         1 UNK         0.0000 
     30 H30         6.9860   55.4064   22.8001 H         1 UNK         0.0000 
     31 H31         8.2196   56.0959   20.8447 H         1 UNK         0.0000 
     32 H32         5.2102   54.3805   18.3015 H         1 UNK         0.0000 
     33 H33         3.9709   53.6348   20.2733 H         1 UNK         0.0000 
     34 H34         6.0391   54.5428   24.2753 H         1 UNK         0.0000 
     35 H35         5.9400   54.7726   26.6335 H         1 UNK         0.0000 
     36 H36         1.3198   53.0144   26.5398 H         1 UNK         0.0000 
     37 H37         2.8243   55.1619   22.4223 H         1 UNK         0.0000 
     38 H38         0.4859   51.5487   29.0352 H         1 UNK         0.0000 
     39 H39        -0.1894   53.0826   29.3512 H         1 UNK         0.0000 
@<TRIPOS>BOND
     1    1    6 ar   
     2    1    2 ar   
     3    1   30 1    
     4    2    3 ar   
     5    2   31 1    
     6    3    4 ar   
     7    3   25 1    
     8    4    5 ar   
     9    4   32 1    
    10    5    6 ar   
    11    5   33 1    
    12    6    7 1    
    13    7    8 1    
    14    7   19 1    
    15    7    9 1    
    16    9   10 1    
    17    9   34 1    
    18   10   15 ar   
    19   10   11 ar   
    20   11   12 ar   
    21   11   35 1    
    22   12   13 ar   
    23   12   24 1    
    24   13   14 ar   
    25   13   20 1    
    26   14   15 ar   
    27   14   36 1    
    28   15   16 1    
    29   16   17 2    
    30   16   18 2    
    31   16   19 1    
    32   19   37 1    
    33   20   21 2    
    34   20   22 2    
    35   20   23 1    
    36   23   38 1    
    37   23   39 1    
    38   25   26 1    
    39   26   27 1    
    40   26   28 1    
    41   26   29 1    
@<TRIPOS>SUBSTRUCTURE
     1 UNK         1 GROUP             0       ****    0 ROOT    
