@<TRIPOS>MOLECULE
ZINC20532169_572
67   70    1
SMALL
USER_CHARGES


@<TRIPOS>ATOM
      1 C1         -8.3564   51.7087   24.8560 C.3       1 UNK         0.0000 
      2 C2         -6.8682   52.0064   24.8109 C.ar      1 UNK         0.0000 
      3 C3         -6.0005   51.1469   24.1327 C.ar      1 UNK         0.0000 
      4 C4         -4.6335   51.4209   24.0820 C.ar      1 UNK         0.0000 
      5 C5         -4.1247   52.5689   24.7057 C.ar      1 UNK         0.0000 
      6 C6         -4.9923   53.4215   25.3916 C.ar      1 UNK         0.0000 
      7 C7         -6.3583   53.1479   25.4399 C.ar      1 UNK         0.0000 
      8 F8         -7.1792   53.9947   26.1038 F         1 UNK         0.0000 
      9 N9         -2.7639   52.8967   24.7383 N.am      1 UNK         0.0000 
     10 C10        -1.7931   52.5500   23.8764 C.2       1 UNK         0.0000 
     11 O11        -1.9521   51.9811   22.7977 O.2       1 UNK         0.0000 
     12 N12        -0.5961   52.8966   24.3746 N.am      1 UNK         0.0000 
     13 C13         0.4864   51.9408   24.6249 C.3       1 UNK         0.0000 
     14 H14         0.0099   51.1580   25.2181 H         1 UNK         0.0000 
     15 C15         1.5742   52.5427   25.5597 C.3       1 UNK         0.0000 
     16 C16         1.4899   52.0716   27.0337 C.3       1 UNK         0.0000 
     17 C17         0.3417   52.6933   27.8651 C.3       1 UNK         0.0000 
     18 C18        -0.1236   51.7411   28.9825 C.3       1 UNK         0.0000 
     19 C19         0.7386   54.0590   28.4549 C.3       1 UNK         0.0000 
     20 C20         1.0391   51.2812   23.3482 C.2       1 UNK         0.0000 
     21 C21         1.8914   51.8914   22.3877 C.2       1 UNK         0.0000 
     22 C22         2.2946   51.0073   21.3717 C.2       1 UNK         0.0000 
     23 S23         1.5730   49.4464   21.5335 S.3       1 UNK         0.0000 
     24 C24         0.7384   49.9690   22.9525 C.2       1 UNK         0.0000 
     25 N25        -0.1831   49.1503   23.5579 N.pl3     1 UNK         0.0000 
     26 C26        -1.4272   48.8359   23.0594 C.ar      1 UNK         0.0000 
     27 C27        -2.0984   48.0397   23.9745 C.ar      1 UNK         0.0000 
     28 C28        -1.2402   47.8490   25.0581 C.ar      1 UNK         0.0000 
     29 C29        -0.0593   48.5169   24.7710 C.ar      1 UNK         0.0000 
     30 C30         3.2886   51.3286   20.2652 C.3       1 UNK         0.0000 
     31 N31         3.2632   52.8659   20.0945 N.4       1 UNK         0.0000 
     32 C32         3.5753   53.5572   21.4401 C.3       1 UNK         0.0000 
     33 C33         2.3769   53.3464   22.4007 C.3       1 UNK         0.0000 
     34 C34         4.3087   53.2561   19.0252 C.3       1 UNK         0.0000 
     35 H35        -8.9247   52.5905   24.5566 H         1 UNK         0.0000 
     36 H36        -8.6345   50.8959   24.1837 H         1 UNK         0.0000 
     37 H37        -8.6601   51.4467   25.8698 H         1 UNK         0.0000 
     38 H38        -6.3796   50.2587   23.6471 H         1 UNK         0.0000 
     39 H39        -3.9794   50.7311   23.5688 H         1 UNK         0.0000 
     40 H40        -4.6186   54.3010   25.8957 H         1 UNK         0.0000 
     41 H41        -2.4943   53.4838   25.5121 H         1 UNK         0.0000 
     42 H42        -0.6088   53.6626   25.0280 H         1 UNK         0.0000 
     43 H43         2.5605   52.2707   25.1898 H         1 UNK         0.0000 
     44 H44         1.5678   53.6330   25.5217 H         1 UNK         0.0000 
     45 H45         1.3989   50.9841   27.0455 H         1 UNK         0.0000 
     46 H46         2.4419   52.2680   27.5315 H         1 UNK         0.0000 
     47 H47        -0.5190   52.8457   27.2121 H         1 UNK         0.0000 
     48 H48         0.6896   51.4927   29.6644 H         1 UNK         0.0000 
     49 H49        -0.9303   52.1756   29.5738 H         1 UNK         0.0000 
     50 H50        -0.5018   50.8096   28.5636 H         1 UNK         0.0000 
     51 H51         1.5786   53.9641   29.1448 H         1 UNK         0.0000 
     52 H52         1.0325   54.7676   27.6821 H         1 UNK         0.0000 
     53 H53        -0.0889   54.4966   29.0112 H         1 UNK         0.0000 
     54 H54        -1.7424   49.2410   22.1094 H         1 UNK         0.0000 
     55 H55        -3.1061   47.6598   23.8785 H         1 UNK         0.0000 
     56 H56        -1.4459   47.2962   25.9663 H         1 UNK         0.0000 
     57 H57         0.8493   48.6112   25.3486 H         1 UNK         0.0000 
     58 H58         3.0161   50.9057   19.2959 H         1 UNK         0.0000 
     59 H59         4.3061   51.0264   20.5202 H         1 UNK         0.0000 
     60 H60         3.7172   54.6194   21.2345 H         1 UNK         0.0000 
     61 H61         4.5081   53.1267   21.8143 H         1 UNK         0.0000 
     62 H62         2.6553   53.6939   23.3920 H         1 UNK         0.0000 
     63 H63         1.5471   53.9783   22.0815 H         1 UNK         0.0000 
     64 H64         5.2982   52.9607   19.3801 H         1 UNK         0.0000 
     65 H65         4.0535   52.7254   18.1050 H         1 UNK         0.0000 
     66 H66         4.2389   54.3351   18.8788 H         1 UNK         0.0000 
     67 H67         2.3538   53.1826   19.7734 H         1 UNK         0.0000 
@<TRIPOS>BOND
     1    1    2 1    
     2    1   35 1    
     3    1   36 1    
     4    1   37 1    
     5    2    7 ar   
     6    2    3 ar   
     7    3    4 ar   
     8    3   38 1    
     9    4    5 ar   
    10    4   39 1    
    11    5    6 ar   
    12    5    9 1    
    13    6    7 ar   
    14    6   40 1    
    15    7    8 1    
    16    9   10 am   BACKBONE|DICT|INTERRES
    17    9   41 1    
    18   10   11 2    
    19   10   12 am   BACKBONE|DICT|INTERRES
    20   12   13 1    
    21   12   42 1    
    22   13   14 1    
    23   13   15 1    
    24   13   20 1    
    25   15   16 1    
    26   15   43 1    
    27   15   44 1    
    28   16   17 1    
    29   16   45 1    
    30   16   46 1    
    31   17   18 1    
    32   17   19 1    
    33   17   47 1    
    34   18   48 1    
    35   18   49 1    
    36   18   50 1    
    37   19   51 1    
    38   19   52 1    
    39   19   53 1    
    40   20   24 2    
    41   20   21 1    
    42   21   33 1    
    43   21   22 2    
    44   22   23 1    
    45   22   30 1    
    46   23   24 1    
    47   24   25 1    
    48   25   29 ar   
    49   25   26 ar   
    50   26   27 ar   
    51   26   54 1    
    52   27   28 ar   
    53   27   55 1    
    54   28   29 ar   
    55   28   56 1    
    56   29   57 1    
    57   30   31 1    
    58   30   58 1    
    59   30   59 1    
    60   31   32 1    
    61   31   34 1    
    62   31   67 1    
    63   32   33 1    
    64   32   60 1    
    65   32   61 1    
    66   33   62 1    
    67   33   63 1    
    68   34   64 1    
    69   34   65 1    
    70   34   66 1    
@<TRIPOS>SUBSTRUCTURE
     1 UNK         1 GROUP             0       ****    0 ROOT    
