@<TRIPOS>MOLECULE
ZINC09135454_2134
63   65    1
SMALL
USER_CHARGES


@<TRIPOS>ATOM
      1 C1          2.6048   51.1906   19.6368 C.3       1 UNK         0.0000 
      2 C2          3.5993   52.2953   19.9410 C.ar      1 UNK         0.0000 
      3 C3          4.3044   52.8975   18.8993 C.ar      1 UNK         0.0000 
      4 C4          5.2359   53.8992   19.1633 C.ar      1 UNK         0.0000 
      5 C5          5.4770   54.3199   20.4743 C.ar      1 UNK         0.0000 
      6 C6          4.7680   53.7047   21.5277 C.ar      1 UNK         0.0000 
      7 C7          3.8283   52.7071   21.2535 C.ar      1 UNK         0.0000 
      8 N8          4.8793   54.0973   22.8620 N.am      1 UNK         0.0000 
      9 C9          5.9996   54.1121   23.6242 C.2       1 UNK         0.0000 
     10 O10         7.1041   53.6968   23.2814 O.2       1 UNK         0.0000 
     11 C11         5.8096   54.7333   24.9486 C.2       1 UNK         0.0000 
     12 O12         6.6794   55.4479   25.4564 O.2       1 UNK         0.0000 
     13 N13         4.6342   54.4334   25.5470 N.am      1 UNK         0.0000 
     14 C14         4.1462   55.0430   26.7798 C.3       1 UNK         0.0000 
     15 C15         3.6827   54.0889   27.9074 C.3       1 UNK         0.0000 
     16 H16         3.6885   54.6623   28.8381 H         1 UNK         0.0000 
     17 C17         2.2796   53.5017   27.6994 C.ar      1 UNK         0.0000 
     18 C18         1.3518   53.5320   28.7420 C.ar      1 UNK         0.0000 
     19 C19         0.1024   52.9368   28.5929 C.ar      1 UNK         0.0000 
     20 C20        -0.2587   52.2956   27.3990 C.ar      1 UNK         0.0000 
     21 C21         0.6686   52.2790   26.3280 C.ar      1 UNK         0.0000 
     22 C22         1.9119   52.8965   26.4957 C.ar      1 UNK         0.0000 
     23 C23         0.3377   51.5742   25.0154 C.3       1 UNK         0.0000 
     24 C24        -1.1688   51.6575   24.7558 C.3       1 UNK         0.0000 
     25 C25        -1.9410   51.1180   25.9698 C.3       1 UNK         0.0000 
     26 N26        -1.5469   51.7645   27.2306 N.pl3     1 UNK         0.0000 
     27 C27        -2.4397   51.2967   28.2933 C.3       1 UNK         0.0000 
     28 C28         6.1922   53.5631   28.4010 C.3       1 UNK         0.0000 
     29 C29         4.3572   52.0964   29.3752 C.3       1 UNK         0.0000 
     30 C30         6.4582   55.4658   20.6948 C.3       1 UNK         0.0000 
     31 H31         3.1040   50.3740   19.1124 H         1 UNK         0.0000 
     32 H32         2.1424   50.7872   20.5386 H         1 UNK         0.0000 
     33 H33         1.8194   51.5638   18.9788 H         1 UNK         0.0000 
     34 H34         4.1474   52.5688   17.8815 H         1 UNK         0.0000 
     35 H35         5.7679   54.3491   18.3375 H         1 UNK         0.0000 
     36 H36         3.2743   52.2449   22.0580 H         1 UNK         0.0000 
     37 H37         4.0264   54.4474   23.2686 H         1 UNK         0.0000 
     38 H38         3.9978   53.8098   25.0747 H         1 UNK         0.0000 
     39 H39         4.9089   55.6966   27.1971 H         1 UNK         0.0000 
     40 H40         3.3267   55.6965   26.4941 H         1 UNK         0.0000 
     41 H41         1.5949   54.0033   29.6830 H         1 UNK         0.0000 
     42 H42        -0.5847   52.9957   29.4221 H         1 UNK         0.0000 
     43 H43         2.6152   52.8435   25.6808 H         1 UNK         0.0000 
     44 H44         0.8931   52.0050   24.1807 H         1 UNK         0.0000 
     45 H45         0.6408   50.5280   25.0885 H         1 UNK         0.0000 
     46 H46        -1.4415   51.0981   23.8599 H         1 UNK         0.0000 
     47 H47        -1.4653   52.6899   24.5618 H         1 UNK         0.0000 
     48 H48        -1.6068   50.0843   26.0890 H         1 UNK         0.0000 
     49 H49        -3.0198   51.0141   25.8404 H         1 UNK         0.0000 
     50 H50        -2.5466   50.2107   28.2743 H         1 UNK         0.0000 
     51 H51        -2.0944   51.5549   29.2912 H         1 UNK         0.0000 
     52 H52        -3.4364   51.7184   28.1654 H         1 UNK         0.0000 
     53 H53         6.2009   54.2022   29.2817 H         1 UNK         0.0000 
     54 H54         6.8739   52.7226   28.4817 H         1 UNK         0.0000 
     55 H55         6.5003   54.1323   27.5342 H         1 UNK         0.0000 
     56 H56         4.3045   52.7048   30.2793 H         1 UNK         0.0000 
     57 H57         3.3926   51.6435   29.1451 H         1 UNK         0.0000 
     58 H58         5.1041   51.3114   29.4541 H         1 UNK         0.0000 
     59 H59         7.4394   55.0854   20.9806 H         1 UNK         0.0000 
     60 H60         6.5670   56.0763   19.7972 H         1 UNK         0.0000 
     61 H61         6.1069   56.1357   21.4788 H         1 UNK         0.0000 
     62 N62         4.7598   53.0072   28.1934 N.4       1 UNK         0.0000 
     63 H63         4.7899   52.4194   27.3676 H         1 UNK         0.0000 
@<TRIPOS>BOND
     1    1    2 1    
     2    1   31 1    
     3    1   32 1    
     4    1   33 1    
     5    2    7 ar   
     6    2    3 ar   
     7    3    4 ar   
     8    3   34 1    
     9    4    5 ar   
    10    4   35 1    
    11    5    6 ar   
    12    5   30 1    
    13    6    7 ar   
    14    6    8 1    
    15    7   36 1    
    16    8    9 am   BACKBONE|DICT|INTERRES
    17    8   37 1    
    18    9   10 2    
    19    9   11 1    
    20   11   12 2    
    21   11   13 am   BACKBONE|DICT|INTERRES
    22   13   14 1    
    23   13   38 1    
    24   14   15 1    
    25   14   39 1    
    26   14   40 1    
    27   15   16 1    
    28   15   17 1    
    29   15   62 1    
    30   17   22 ar   
    31   17   18 ar   
    32   18   19 ar   
    33   18   41 1    
    34   19   20 ar   
    35   19   42 1    
    36   20   26 1    
    37   20   21 ar   
    38   21   22 ar   
    39   21   23 1    
    40   22   43 1    
    41   23   24 1    
    42   23   44 1    
    43   23   45 1    
    44   24   25 1    
    45   24   46 1    
    46   24   47 1    
    47   25   26 1    
    48   25   48 1    
    49   25   49 1    
    50   26   27 1    
    51   27   50 1    
    52   27   51 1    
    53   27   52 1    
    54   28   53 1    
    55   28   54 1    
    56   28   55 1    
    57   28   62 1    
    58   29   56 1    
    59   29   57 1    
    60   29   58 1    
    61   29   62 1    
    62   30   59 1    
    63   30   60 1    
    64   30   61 1    
    65   62   63 1    
@<TRIPOS>SUBSTRUCTURE
     1 UNK         1 GROUP             0       ****    0 ROOT    
