@<TRIPOS>MOLECULE
ZINC36073604_4887
67   71    1
SMALL
USER_CHARGES


@<TRIPOS>ATOM
      1 C1          5.6681   52.8431   16.2247 C.3       1 UNK         0.0000 
      2 C2          5.6783   54.0816   17.0936 C.2       1 UNK         0.0000 
      3 C3          6.5442   55.1616   16.8667 C.2       1 UNK         0.0000 
      4 C4          6.3726   56.2148   17.7426 C.2       1 UNK         0.0000 
      5 S5          5.1047   55.8927   18.8580 S.3       1 UNK         0.0000 
      6 C6          4.7741   54.3374   18.1392 C.2       1 UNK         0.0000 
      7 C7          3.6548   53.4456   18.6722 C.3       1 UNK         0.0000 
      8 N8          3.7032   53.2946   20.2182 N.4       1 UNK         0.0000 
      9 C9          2.5253   52.3953   20.7040 C.3       1 UNK         0.0000 
     10 C10         2.5391   52.2138   22.2319 C.3       1 UNK         0.0000 
     11 C11         1.5219   51.2480   22.7994 C.ar      1 UNK         0.0000 
     12 C12         1.6262   49.8712   22.8811 C.ar      1 UNK         0.0000 
     13 N13         0.5463   49.3484   23.5446 N.pl3     1 UNK         0.0000 
     14 H14         0.4612   48.3652   23.7561 H         1 UNK         0.0000 
     15 C15        -0.3244   50.3567   23.8885 C.ar      1 UNK         0.0000 
     16 C16         0.2694   51.5725   23.4317 C.ar      1 UNK         0.0000 
     17 C17        -0.4041   52.7758   23.6815 C.ar      1 UNK         0.0000 
     18 C18        -1.6441   52.7478   24.3148 C.ar      1 UNK         0.0000 
     19 C19        -2.2006   51.5481   24.7475 C.ar      1 UNK         0.0000 
     20 C20        -1.5528   50.3257   24.5588 C.ar      1 UNK         0.0000 
     21 C21         5.1043   52.8914   20.7580 C.3       1 UNK         0.0000 
     22 C22         5.5044   53.7986   21.9170 C.2       1 UNK         0.0000 
     23 N23         5.1813   53.6966   23.1871 N.2       1 UNK         0.0000 
     24 C24         5.9243   54.5943   23.8224 C.2       1 UNK         0.0000 
     25 C25         6.7044   55.2646   22.8868 C.2       1 UNK         0.0000 
     26 O26         6.3981   54.7871   21.6607 O.3       1 UNK         0.0000 
     27 C27         5.9431   54.8547   25.2422 C.2       1 UNK         0.0000 
     28 O28         6.7045   55.6965   25.7199 O.2       1 UNK         0.0000 
     29 N29         5.0517   54.1555   25.9710 N.am      1 UNK         0.0000 
     30 C30         4.8441   54.2893   27.4185 C.3       1 UNK         0.0000 
     31 H31         5.1446   55.2972   27.7047 H         1 UNK         0.0000 
     32 C32         5.7440   53.3282   28.2100 C.3       1 UNK         0.0000 
     33 C33         3.3789   54.1474   27.8464 C.ar      1 UNK         0.0000 
     34 C34         2.4971   53.2966   27.1675 C.ar      1 UNK         0.0000 
     35 C35         1.1770   53.1686   27.5912 C.ar      1 UNK         0.0000 
     36 C36         0.7296   53.9073   28.6837 C.ar      1 UNK         0.0000 
     37 C37         1.5880   54.7769   29.3518 C.ar      1 UNK         0.0000 
     38 C38         2.9108   54.8954   28.9329 C.ar      1 UNK         0.0000 
     39 H39         5.9540   53.0682   15.1975 H         1 UNK         0.0000 
     40 H40         6.3677   52.0963   16.5944 H         1 UNK         0.0000 
     41 H41         4.6851   52.3761   16.1570 H         1 UNK         0.0000 
     42 H42         7.2863   55.1657   16.0799 H         1 UNK         0.0000 
     43 H43         6.9124   57.1501   17.7760 H         1 UNK         0.0000 
     44 H44         3.7101   52.4230   18.2886 H         1 UNK         0.0000 
     45 H45         2.6660   53.8512   18.4519 H         1 UNK         0.0000 
     46 H46         1.6074   52.8826   20.3646 H         1 UNK         0.0000 
     47 H47         2.6322   51.4413   20.1830 H         1 UNK         0.0000 
     48 H48         3.5043   51.7997   22.4817 H         1 UNK         0.0000 
     49 H49         2.4903   53.1816   22.7316 H         1 UNK         0.0000 
     50 H50         2.4204   49.2111   22.5598 H         1 UNK         0.0000 
     51 H51         0.0380   53.7070   23.3740 H         1 UNK         0.0000 
     52 H52        -2.1762   53.6754   24.4790 H         1 UNK         0.0000 
     53 H53        -3.1565   51.5654   25.2527 H         1 UNK         0.0000 
     54 H54        -1.9867   49.4032   24.9169 H         1 UNK         0.0000 
     55 H55         5.8195   52.9655   19.9388 H         1 UNK         0.0000 
     56 H56         5.0730   51.8276   20.9971 H         1 UNK         0.0000 
     57 H57         7.4506   56.0455   22.9469 H         1 UNK         0.0000 
     58 H58         4.6190   53.3541   25.5384 H         1 UNK         0.0000 
     59 H59         5.6509   53.5123   29.2806 H         1 UNK         0.0000 
     60 H60         5.4713   52.2902   28.0327 H         1 UNK         0.0000 
     61 H61         6.7952   53.4522   27.9461 H         1 UNK         0.0000 
     62 H62         2.8319   52.7160   26.3212 H         1 UNK         0.0000 
     63 H63         0.5028   52.5014   27.0731 H         1 UNK         0.0000 
     64 H64        -0.2942   53.8082   29.0139 H         1 UNK         0.0000 
     65 H65         1.2297   55.3546   30.1923 H         1 UNK         0.0000 
     66 H66         3.5726   55.5701   29.4550 H         1 UNK         0.0000 
     67 H67         3.5266   54.2277   20.5686 H         1 UNK         0.0000 
@<TRIPOS>BOND
     1    1    2 1    
     2    1   39 1    
     3    1   40 1    
     4    1   41 1    
     5    2    6 2    
     6    2    3 1    
     7    3    4 2    
     8    3   42 1    
     9    4    5 1    
    10    4   43 1    
    11    5    6 1    
    12    6    7 1    
    13    7    8 1    
    14    7   44 1    
    15    7   45 1    
    16    8    9 1    
    17    8   21 1    
    18    8   67 1    
    19    9   10 1    
    20    9   46 1    
    21    9   47 1    
    22   10   11 1    
    23   10   48 1    
    24   10   49 1    
    25   11   16 ar   
    26   11   12 ar   
    27   12   13 ar   
    28   12   50 1    
    29   13   14 1    
    30   13   15 ar   
    31   15   20 ar   
    32   15   16 ar   
    33   16   17 ar   
    34   17   18 ar   
    35   17   51 1    
    36   18   19 ar   
    37   18   52 1    
    38   19   20 ar   
    39   19   53 1    
    40   20   54 1    
    41   21   22 1    
    42   21   55 1    
    43   21   56 1    
    44   22   26 1    
    45   22   23 2    
    46   23   24 1    
    47   24   25 2    
    48   24   27 1    
    49   25   26 1    
    50   25   57 1    
    51   27   28 2    
    52   27   29 am   BACKBONE|DICT|INTERRES
    53   29   30 1    
    54   29   58 1    
    55   30   31 1    
    56   30   32 1    
    57   30   33 1    
    58   32   59 1    
    59   32   60 1    
    60   32   61 1    
    61   33   38 ar   
    62   33   34 ar   
    63   34   35 ar   
    64   34   62 1    
    65   35   36 ar   
    66   35   63 1    
    67   36   37 ar   
    68   36   64 1    
    69   37   38 ar   
    70   37   65 1    
    71   38   66 1    
@<TRIPOS>SUBSTRUCTURE
     1 UNK         1 GROUP             0       ****    0 ROOT    
