@<TRIPOS>MOLECULE
ZINC20876958_5085
59   62    1
SMALL
USER_CHARGES


@<TRIPOS>ATOM
      1 C1          7.0972   55.4300   23.0910 C.3       1 UNK         0.0000 
      2 O2          6.0945   54.9607   23.9862 O.3       1 UNK         0.0000 
      3 C3          5.0098   54.2776   23.4700 C.ar      1 UNK         0.0000 
      4 C4          4.9687   53.7821   22.1558 C.ar      1 UNK         0.0000 
      5 C5          3.8270   53.1510   21.6649 C.ar      1 UNK         0.0000 
      6 C6          2.7074   53.0154   22.4882 C.ar      1 UNK         0.0000 
      7 C7          2.7366   53.4898   23.8002 C.ar      1 UNK         0.0000 
      8 C8          3.8931   54.0960   24.3070 C.ar      1 UNK         0.0000 
      9 O9          3.9157   54.5141   25.6201 O.3       1 UNK         0.0000 
     10 C10         4.7364   53.7234   26.4855 C.3       1 UNK         0.0000 
     11 C11         4.8873   54.4112   27.8563 C.3       1 UNK         0.0000 
     12 H12         5.0789   55.4660   27.6740 H         1 UNK         0.0000 
     13 C13         3.6374   54.2497   28.7316 C.ar      1 UNK         0.0000 
     14 C14         2.6185   55.2257   28.6979 C.ar      1 UNK         0.0000 
     15 C15         1.4657   55.1081   29.4774 C.ar      1 UNK         0.0000 
     16 C16         1.3483   53.9825   30.2776 C.ar      1 UNK         0.0000 
     17 C17         2.3227   53.0269   30.3225 C.ar      1 UNK         0.0000 
     18 C18         3.4859   53.1256   29.5650 C.ar      1 UNK         0.0000 
     19 O19         1.9914   52.0965   31.2524 O.3       1 UNK         0.0000 
     20 C20         0.7041   52.4330   31.7070 C.3       1 UNK         0.0000 
     21 O21         0.3679   53.6835   31.1661 O.3       1 UNK         0.0000 
     22 O22         6.0761   53.9509   28.4817 O.3       1 UNK         0.0000 
     23 Br23        1.1961   53.2887   24.9013 Br        1 UNK         0.0000 
     24 C24         3.8276   52.6009   20.2512 C.3       1 UNK         0.0000 
     25 N25         3.5045   53.6866   19.2139 N.4       1 UNK         0.0000 
     26 C26         3.6152   53.2536   17.7414 C.3       1 UNK         0.0000 
     27 C27         2.8410   54.2925   16.8988 C.3       1 UNK         0.0000 
     28 C28         3.0040   54.0509   15.3840 C.3       1 UNK         0.0000 
     29 C29         4.4871   53.9950   14.9674 C.3       1 UNK         0.0000 
     30 C30         5.2958   52.9986   15.8241 C.3       1 UNK         0.0000 
     31 C31         5.1114   53.2594   17.3313 C.3       1 UNK         0.0000 
     32 H32         7.7610   56.0964   23.6330 H         1 UNK         0.0000 
     33 H33         7.6847   54.6054   22.6824 H         1 UNK         0.0000 
     34 H34         6.6771   56.0067   22.2651 H         1 UNK         0.0000 
     35 H35         5.8202   53.8880   21.5042 H         1 UNK         0.0000 
     36 H36         1.8126   52.5348   22.1178 H         1 UNK         0.0000 
     37 H37         5.7249   53.5906   26.0415 H         1 UNK         0.0000 
     38 H38         4.3261   52.7248   26.6157 H         1 UNK         0.0000 
     39 H39         2.7043   56.0967   28.0759 H         1 UNK         0.0000 
     40 H40         0.7053   55.8722   29.4644 H         1 UNK         0.0000 
     41 H41         4.2578   52.3716   29.6218 H         1 UNK         0.0000 
     42 H42        -0.0246   51.6973   31.3562 H         1 UNK         0.0000 
     43 H43         0.6929   52.4841   32.7990 H         1 UNK         0.0000 
     44 H44         6.4710   54.6775   28.9776 H         1 UNK         0.0000 
     45 H45         4.8017   52.1935   19.9736 H         1 UNK         0.0000 
     46 H46         3.0766   51.8236   20.0968 H         1 UNK         0.0000 
     47 H47         2.5705   54.0460   19.3925 H         1 UNK         0.0000 
     48 H48         3.1881   52.2579   17.5867 H         1 UNK         0.0000 
     49 H49         1.7908   54.3279   17.1940 H         1 UNK         0.0000 
     50 H50         3.2163   55.2931   17.1237 H         1 UNK         0.0000 
     51 H51         2.5159   53.1128   15.1123 H         1 UNK         0.0000 
     52 H52         2.4882   54.8319   14.8232 H         1 UNK         0.0000 
     53 H53         4.5694   53.7306   13.9118 H         1 UNK         0.0000 
     54 H54         4.9263   54.9894   15.0628 H         1 UNK         0.0000 
     55 H55         4.9792   51.9777   15.5949 H         1 UNK         0.0000 
     56 H56         6.3530   53.0508   15.5621 H         1 UNK         0.0000 
     57 H57         5.5464   54.2322   17.5659 H         1 UNK         0.0000 
     58 H58         5.6927   52.5540   17.9248 H         1 UNK         0.0000 
     59 H59         4.1137   54.4811   19.3517 H         1 UNK         0.0000 
@<TRIPOS>BOND
     1    1    2 1    
     2    1   32 1    
     3    1   33 1    
     4    1   34 1    
     5    2    3 1    
     6    3    8 ar   
     7    3    4 ar   
     8    4    5 ar   
     9    4   35 1    
    10    5    6 ar   
    11    5   24 1    
    12    6    7 ar   
    13    6   36 1    
    14    7    8 ar   
    15    7   23 1    
    16    8    9 1    
    17    9   10 1    
    18   10   11 1    
    19   10   37 1    
    20   10   38 1    
    21   11   12 1    
    22   11   13 1    
    23   11   22 1    
    24   13   18 ar   
    25   13   14 ar   
    26   14   15 ar   
    27   14   39 1    
    28   15   16 ar   
    29   15   40 1    
    30   16   21 1    
    31   16   17 ar   
    32   17   18 ar   
    33   17   19 1    
    34   18   41 1    
    35   19   20 1    
    36   20   21 1    
    37   20   42 1    
    38   20   43 1    
    39   22   44 1    
    40   24   25 1    
    41   24   45 1    
    42   24   46 1    
    43   25   26 1    
    44   25   47 1    
    45   25   59 1    
    46   26   31 1    
    47   26   27 1    
    48   26   48 1    
    49   27   28 1    
    50   27   49 1    
    51   27   50 1    
    52   28   29 1    
    53   28   51 1    
    54   28   52 1    
    55   29   30 1    
    56   29   53 1    
    57   29   54 1    
    58   30   31 1    
    59   30   55 1    
    60   30   56 1    
    61   31   57 1    
    62   31   58 1    
@<TRIPOS>SUBSTRUCTURE
     1 UNK         1 GROUP             0       ****    0 ROOT    
