ZINC36032537_5265
                    3D
 Schrodinger Suite 2024-2.
 65 68  0  0  1  0            999 V2000
   -2.6333   46.3209   23.3390 C   0  0  0  0  0  0
   -3.6892   46.9371   24.2808 C   0  0  0  0  0  0
   -4.6414   45.8760   24.8719 C   0  0  0  0  0  0
   -3.0490   47.7885   25.4039 C   0  0  0  0  0  0
   -2.1039   48.9323   24.9485 C   0  0  1  0  0  0
   -1.2693   48.5602   24.3534 H   0  0  0  0  0  0
   -2.7676   50.0873   24.1769 C   0  0  0  0  0  0
   -3.4665   49.9257   23.1770 O   0  0  0  0  0  0
   -2.4602   51.2590   24.7731 N   0  0  0  0  0  0
   -1.5203   51.1432   25.8841 C   0  0  0  0  0  0
   -1.4299   49.6308   26.0817 N   0  3  0  0  0  0
   -0.0844   51.6216   25.5611 C   0  0  0  0  0  0
    0.8938   51.4105   26.7443 C   0  0  0  0  0  0
    0.3414   52.1276   27.9116 N   0  0  0  0  0  0
   -0.9705   51.6273   28.3809 C   0  0  0  0  0  0
   -1.9736   51.7989   27.2110 C   0  0  0  0  0  0
    1.0192   53.0767   28.6248 C   0  0  0  0  0  0
    0.5815   53.5463   29.6781 O   0  0  0  0  0  0
    2.3711   53.5632   28.1439 C   0  0  0  0  0  0
    3.4594   53.5935   29.0311 C   0  0  0  0  0  0
    4.7130   54.0388   28.6043 C   0  0  0  0  0  0
    4.8947   54.4638   27.2891 C   0  0  0  0  0  0
    3.8179   54.4654   26.4058 C   0  0  0  0  0  0
    2.5630   54.0301   26.8329 C   0  0  0  0  0  0
    3.9878   54.8958   25.1363 F   0  0  0  0  0  0
   -3.0793   52.5272   24.3554 C   0  0  0  0  0  0
   -4.4184   52.8437   25.0224 C   0  0  0  0  0  0
   -4.5436   53.9361   25.8868 C   0  0  0  0  0  0
   -5.7685   54.2330   26.4813 C   0  0  0  0  0  0
   -6.8864   53.4516   26.2005 C   0  0  0  0  0  0
   -6.7881   52.3656   25.3234 C   0  0  0  0  0  0
   -5.5505   52.0704   24.7387 C   0  0  0  0  0  0
   -8.0250   51.5220   25.0141 C   0  0  0  0  0  0
   -8.2706   50.7209   26.0498 F   0  0  0  0  0  0
   -7.8628   50.7636   23.9285 F   0  0  0  0  0  0
   -9.0880   52.3045   24.8171 F   0  0  0  0  0  0
   -1.6884   46.1380   23.8531 H   0  0  0  0  0  0
   -2.9630   45.3803   22.8996 H   0  0  0  0  0  0
   -2.4277   46.9948   22.5064 H   0  0  0  0  0  0
   -4.3161   47.5877   23.6701 H   0  0  0  0  0  0
   -4.5240   45.7774   25.9530 H   0  0  0  0  0  0
   -5.6815   46.1518   24.6908 H   0  0  0  0  0  0
   -4.5009   44.8855   24.4403 H   0  0  0  0  0  0
   -2.4895   47.1236   26.0659 H   0  0  0  0  0  0
   -3.8456   48.2082   26.0234 H   0  0  0  0  0  0
   -1.7996   49.3428   26.9912 H   0  0  0  0  0  0
    0.2973   51.1138   24.6748 H   0  0  0  0  0  0
   -0.0974   52.6800   25.2977 H   0  0  0  0  0  0
    0.9516   50.3549   27.0121 H   0  0  0  0  0  0
    1.9043   51.6977   26.4836 H   0  0  0  0  0  0
   -0.8569   50.5726   28.6266 H   0  0  0  0  0  0
   -1.3278   52.1264   29.2851 H   0  0  0  0  0  0
   -2.1092   52.8697   27.0368 H   0  0  0  0  0  0
   -2.9559   51.4254   27.5085 H   0  0  0  0  0  0
    3.3415   53.2619   30.0540 H   0  0  0  0  0  0
    5.5524   54.0532   29.2827 H   0  0  0  0  0  0
    5.8645   54.8053   26.9594 H   0  0  0  0  0  0
    1.7416   54.0596   26.1316 H   0  0  0  0  0  0
   -3.2393   52.5252   23.2758 H   0  0  0  0  0  0
   -2.3712   53.3333   24.5395 H   0  0  0  0  0  0
   -3.6956   54.5606   26.1126 H   0  0  0  0  0  0
   -5.8502   55.0702   27.1588 H   0  0  0  0  0  0
   -7.8338   53.6916   26.6619 H   0  0  0  0  0  0
   -5.4728   51.2424   24.0508 H   0  0  0  0  0  0
   -0.4624   49.3505   26.1402 H   0  0  0  0  0  0
  1  2  1  0  0  0
  1 37  1  0  0  0
  1 38  1  0  0  0
  1 39  1  0  0  0
  2  3  1  0  0  0
  2  4  1  0  0  0
  2 40  1  0  0  0
  3 41  1  0  0  0
  3 42  1  0  0  0
  3 43  1  0  0  0
  4  5  1  0  0  0
  4 44  1  0  0  0
  4 45  1  0  0  0
  5  6  1  0  0  0
  5 11  1  0  0  0
  5  7  1  0  0  0
  7  8  2  0  0  0
  7  9  1  0  0  0
  9 10  1  0  0  0
  9 26  1  0  0  0
 10 16  1  0  0  0
 10 11  1  0  0  0
 10 12  1  0  0  0
 11 46  1  0  0  0
 11 65  1  0  0  0
 12 13  1  0  0  0
 12 47  1  0  0  0
 12 48  1  0  0  0
 13 14  1  0  0  0
 13 49  1  0  0  0
 13 50  1  0  0  0
 14 15  1  0  0  0
 14 17  1  0  0  0
 15 16  1  0  0  0
 15 51  1  0  0  0
 15 52  1  0  0  0
 16 53  1  0  0  0
 16 54  1  0  0  0
 17 18  2  0  0  0
 17 19  1  0  0  0
 19 24  2  0  0  0
 19 20  1  0  0  0
 20 21  2  0  0  0
 20 55  1  0  0  0
 21 22  1  0  0  0
 21 56  1  0  0  0
 22 23  2  0  0  0
 22 57  1  0  0  0
 23 24  1  0  0  0
 23 25  1  0  0  0
 24 58  1  0  0  0
 26 27  1  0  0  0
 26 59  1  0  0  0
 26 60  1  0  0  0
 27 32  2  0  0  0
 27 28  1  0  0  0
 28 29  2  0  0  0
 28 61  1  0  0  0
 29 30  1  0  0  0
 29 62  1  0  0  0
 30 31  2  0  0  0
 30 63  1  0  0  0
 31 32  1  0  0  0
 31 33  1  0  0  0
 32 64  1  0  0  0
 33 34  1  0  0  0
 33 35  1  0  0  0
 33 36  1  0  0  0
M  CHG  1  11   1
M  END
> <i_i_glide_confnum>
414

> <i_i_glide_lignum>
5266

> <i_i_glide_posenum>
378

> <i_i_glide_rotatable_bonds>
7

> <i_m_Source_File_Index>
2349

> <b_m_subgroup_collapsed>
0

> <r_i_docking_score>
-4.62719

> <r_i_glide_ecoul>
-3.57831

> <r_i_glide_eff_state_penalty>
0

> <r_i_glide_einternal>
4.37002

> <r_i_glide_emodel>
-48.069

> <r_i_glide_energy>
-36.4388

> <r_i_glide_erotb>
0.419754

> <r_i_glide_esite>
-0.149047

> <r_i_glide_evdw>
-32.8605

> <r_i_glide_gscore>
-4.62719

> <r_i_glide_hbond>
-0.174245

> <r_i_glide_ligand_efficiency>
-0.132205

> <r_i_glide_ligand_efficiency_ln>
-1.01577

> <r_i_glide_ligand_efficiency_sa>
-0.432453

> <r_i_glide_lipo>
-1.79062

> <r_i_glide_metal>
0

> <r_i_glide_rewards>
-0.753261

> <s_i_glide_gridfile>
wee1_glide-grid

> <s_m_Source_File>
wee1_decoys_glide_SP.sdf

> <s_m_Source_Path>
/Users/zhangxujun/Desktop

> <s_m_entry_id>
2624

> <s_m_entry_name>
wee1_decoys_glide_SP.2349

> <s_m_subgroup_title>
wee1_decoys_glide_SP

> <s_m_subgroupid>
wee1_decoys_glide_SP


$$$$
