@<TRIPOS>MOLECULE
ZINC01004141_2373
48   51    1
SMALL
USER_CHARGES


@<TRIPOS>ATOM
      1 C1         -3.0374   48.3143   25.0648 C.ar      1 UNK         0.0000 
      2 C2         -3.7853   49.4019   24.6235 C.ar      1 UNK         0.0000 
      3 C3         -3.1619   50.6295   24.4143 C.ar      1 UNK         0.0000 
      4 C4         -1.7870   50.7791   24.6557 C.ar      1 UNK         0.0000 
      5 C5         -1.0428   49.6606   25.0634 C.ar      1 UNK         0.0000 
      6 C6         -1.6678   48.4375   25.2813 C.ar      1 UNK         0.0000 
      7 C7         -1.1334   52.1082   24.4068 C.2       1 UNK         0.0000 
      8 O8         -1.6708   52.9493   23.6827 O.2       1 UNK         0.0000 
      9 C9          0.1269   52.4476   25.0773 C.2       1 UNK         0.0000 
     10 C10         0.5834   52.2014   26.3789 C.2       1 UNK         0.0000 
     11 C11         1.8740   52.6985   26.6340 C.2       1 UNK         0.0000 
     12 C12         2.4317   53.3042   25.5084 C.2       1 UNK         0.0000 
     13 S13         1.3125   53.3451   24.1780 S.3       1 UNK         0.0000 
     14 N14         3.6938   53.8554   25.4613 N.pl3     1 UNK         0.0000 
     15 C15         4.5640   54.1883   24.4100 C.ar      1 UNK         0.0000 
     16 C16         5.7099   54.9007   24.7719 C.ar      1 UNK         0.0000 
     17 C17         6.6448   55.2625   23.8088 C.ar      1 UNK         0.0000 
     18 C18         6.4448   54.8950   22.4800 C.ar      1 UNK         0.0000 
     19 C19         5.3186   54.1633   22.1104 C.ar      1 UNK         0.0000 
     20 C20         4.3771   53.8099   23.0734 C.ar      1 UNK         0.0000 
     21 S21         2.7184   52.5738   28.2433 S.o2      1 UNK         0.0000 
     22 O22         2.3005   51.3221   28.8832 O.2       1 UNK         0.0000 
     23 O23         4.1384   52.8931   28.0535 O.2       1 UNK         0.0000 
     24 C24         2.0352   53.9291   29.1515 C.ar      1 UNK         0.0000 
     25 C25         2.4689   55.2126   28.8248 C.ar      1 UNK         0.0000 
     26 C26         1.9882   56.3005   29.5318 C.ar      1 UNK         0.0000 
     27 C27         1.1038   56.0957   30.5787 C.ar      1 UNK         0.0000 
     28 C28         0.6360   54.8175   30.8816 C.ar      1 UNK         0.0000 
     29 C29         1.0991   53.7205   30.1637 C.ar      1 UNK         0.0000 
     30 N30        -0.1484   51.5606   27.3385 N.pl3     1 UNK         0.0000 
     31 H31        -3.5210   47.3648   25.2455 H         1 UNK         0.0000 
     32 H32        -4.8450   49.2934   24.4514 H         1 UNK         0.0000 
     33 H33        -3.7612   51.4635   24.0791 H         1 UNK         0.0000 
     34 H34         0.0240   49.7222   25.2290 H         1 UNK         0.0000 
     35 H35        -1.0903   47.5952   25.6366 H         1 UNK         0.0000 
     36 H36         4.1864   53.8962   26.3471 H         1 UNK         0.0000 
     37 H37         5.8761   55.1898   25.8008 H         1 UNK         0.0000 
     38 H38         7.5098   55.8397   24.0873 H         1 UNK         0.0000 
     39 H39         7.1719   55.1774   21.7334 H         1 UNK         0.0000 
     40 H40         5.1730   53.8744   21.0795 H         1 UNK         0.0000 
     41 H41         3.5335   53.2230   22.7583 H         1 UNK         0.0000 
     42 H42         3.1865   55.3579   28.0280 H         1 UNK         0.0000 
     43 H43         2.3108   57.2955   29.2826 H         1 UNK         0.0000 
     44 H44         0.7502   56.9404   31.1449 H         1 UNK         0.0000 
     45 H45        -0.0705   54.6726   31.6854 H         1 UNK         0.0000 
     46 H46         0.7497   52.7278   30.4106 H         1 UNK         0.0000 
     47 H47         0.2930   51.2635   28.2003 H         1 UNK         0.0000 
     48 H48        -1.0379   51.1239   27.1305 H         1 UNK         0.0000 
@<TRIPOS>BOND
     1    1    6 ar   
     2    1    2 ar   
     3    1   31 1    
     4    2    3 ar   
     5    2   32 1    
     6    3    4 ar   
     7    3   33 1    
     8    4    5 ar   
     9    4    7 1    
    10    5    6 ar   
    11    5   34 1    
    12    6   35 1    
    13    7    8 2    
    14    7    9 1    
    15    9   13 1    
    16    9   10 2    
    17   10   11 1    
    18   10   30 1    
    19   11   12 2    
    20   11   21 1    
    21   12   13 1    
    22   12   14 1    
    23   14   15 1    
    24   14   36 1    
    25   15   20 ar   
    26   15   16 ar   
    27   16   17 ar   
    28   16   37 1    
    29   17   18 ar   
    30   17   38 1    
    31   18   19 ar   
    32   18   39 1    
    33   19   20 ar   
    34   19   40 1    
    35   20   41 1    
    36   21   22 2    
    37   21   23 2    
    38   21   24 1    
    39   24   29 ar   
    40   24   25 ar   
    41   25   26 ar   
    42   25   42 1    
    43   26   27 ar   
    44   26   43 1    
    45   27   28 ar   
    46   27   44 1    
    47   28   29 ar   
    48   28   45 1    
    49   29   46 1    
    50   30   47 1    
    51   30   48 1    
@<TRIPOS>SUBSTRUCTURE
     1 UNK         1 GROUP             0       ****    0 ROOT    
