ZINC04565435_1720
                    3D
 Schrodinger Suite 2024-2.
 39 41  0  0  1  0            999 V2000
   -0.0808   53.7320   28.8651 C   0  0  0  0  0  0
    1.3346   53.3532   29.2105 C   0  0  0  0  0  0
    2.5482   53.5061   28.5447 C   0  0  0  0  0  0
    3.4639   52.8695   29.3985 C   0  0  0  0  0  0
    2.9363   52.3792   30.4916 N   0  0  0  0  0  0
    1.6404   52.6773   30.3652 N   0  0  0  0  0  0
    0.9575   52.4099   31.0634 H   0  0  0  0  0  0
    4.8078   52.7411   29.1684 O   0  0  0  0  0  0
    5.2671   53.3880   28.0636 C   0  0  0  0  0  0
    4.5232   54.0385   27.1346 C   0  0  0  0  0  0
    2.9789   54.1007   27.1885 C   0  0  1  0  0  0
    2.7045   55.1569   27.1947 H   0  0  0  0  0  0
    2.2576   53.5343   25.9436 C   0  0  0  0  0  0
    1.3536   52.4726   26.0411 C   0  0  0  0  0  0
    0.6932   51.9865   24.9179 C   0  0  0  0  0  0
    0.9148   52.5367   23.6481 C   0  0  0  0  0  0
    1.8140   53.6094   23.5533 C   0  0  0  0  0  0
    2.4739   54.0968   24.6796 C   0  0  0  0  0  0
    0.2448   52.0294   22.4983 N   0  0  0  0  0  0
   -0.6365   50.8671   22.6125 C   0  0  0  0  0  0
    0.8485   52.2373   21.1806 C   0  0  0  0  0  0
    5.2118   54.7324   26.0924 C   0  0  0  0  0  0
    5.8157   55.2969   25.2819 N   0  0  0  0  0  0
    6.6320   53.2979   28.0810 N   0  0  0  0  0  0
   -0.1099   54.4917   28.0832 H   0  0  0  0  0  0
   -0.6391   52.8697   28.5017 H   0  0  0  0  0  0
   -0.6161   54.1185   29.7307 H   0  0  0  0  0  0
    1.1596   51.9821   26.9811 H   0  0  0  0  0  0
    0.0184   51.1564   25.0624 H   0  0  0  0  0  0
    2.0124   54.0894   22.6061 H   0  0  0  0  0  0
    3.1471   54.9309   24.5560 H   0  0  0  0  0  0
   -1.3772   51.0068   23.3997 H   0  0  0  0  0  0
   -0.0571   49.9763   22.8547 H   0  0  0  0  0  0
   -1.1786   50.6773   21.6850 H   0  0  0  0  0  0
    0.9187   53.2965   20.9409 H   0  0  0  0  0  0
    1.8602   51.8256   21.1564 H   0  0  0  0  0  0
    0.2797   51.7529   20.3858 H   0  0  0  0  0  0
    7.1739   53.5884   27.2818 H   0  0  0  0  0  0
    7.1187   53.1686   28.9550 H   0  0  0  0  0  0
  1  2  1  0  0  0
  1 25  1  0  0  0
  1 26  1  0  0  0
  1 27  1  0  0  0
  2  6  1  0  0  0
  2  3  2  0  0  0
  3 11  1  0  0  0
  3  4  1  0  0  0
  4  5  2  0  0  0
  4  8  1  0  0  0
  5  6  1  0  0  0
  6  7  1  0  0  0
  8  9  1  0  0  0
  9 10  2  0  0  0
  9 24  1  0  0  0
 10 11  1  0  0  0
 10 22  1  0  0  0
 11 12  1  0  0  0
 11 13  1  0  0  0
 13 18  2  0  0  0
 13 14  1  0  0  0
 14 15  2  0  0  0
 14 28  1  0  0  0
 15 16  1  0  0  0
 15 29  1  0  0  0
 16 17  2  0  0  0
 16 19  1  0  0  0
 17 18  1  0  0  0
 17 30  1  0  0  0
 18 31  1  0  0  0
 19 20  1  0  0  0
 19 21  1  0  0  0
 20 32  1  0  0  0
 20 33  1  0  0  0
 20 34  1  0  0  0
 21 35  1  0  0  0
 21 36  1  0  0  0
 21 37  1  0  0  0
 22 23  3  0  0  0
 24 38  1  0  0  0
 24 39  1  0  0  0
M  END
> <i_i_glide_confnum>
2

> <i_i_glide_lignum>
1721

> <i_i_glide_posenum>
352

> <i_i_glide_rotatable_bonds>
3

> <i_m_Source_File_Index>
1996

> <b_m_subgroup_collapsed>
0

> <r_i_docking_score>
-6.4126

> <r_i_glide_ecoul>
-2.65916

> <r_i_glide_eff_state_penalty>
0

> <r_i_glide_einternal>
5.03073

> <r_i_glide_emodel>
-48.1138

> <r_i_glide_energy>
-37.0004

> <r_i_glide_erotb>
0.209834

> <r_i_glide_esite>
0

> <r_i_glide_evdw>
-34.3413

> <r_i_glide_gscore>
-6.4126

> <r_i_glide_hbond>
-0.151488

> <r_i_glide_ligand_efficiency>
-0.291482

> <r_i_glide_ligand_efficiency_ln>
-1.56747

> <r_i_glide_ligand_efficiency_sa>
-0.816743

> <r_i_glide_lipo>
-2.3877

> <r_i_glide_metal>
0

> <r_i_glide_rewards>
-1.96731

> <s_i_glide_gridfile>
wee1_glide-grid

> <s_m_Source_File>
wee1_decoys_glide_SP.sdf

> <s_m_Source_Path>
/Users/zhangxujun/Desktop

> <s_m_entry_id>
2271

> <s_m_entry_name>
wee1_decoys_glide_SP.1996

> <s_m_subgroup_title>
wee1_decoys_glide_SP

> <s_m_subgroupid>
wee1_decoys_glide_SP


$$$$
