@<TRIPOS>MOLECULE
ZINC31557491_1252
61   65    1
SMALL
USER_CHARGES


@<TRIPOS>ATOM
      1 C1          0.3049   53.5300   31.8776 C.3       1 UNK         0.0000 
      2 C2          0.6268   53.2973   30.4152 C.ar      1 UNK         0.0000 
      3 C3         -0.0973   52.3475   29.6868 C.ar      1 UNK         0.0000 
      4 C4          0.1482   52.1268   28.3309 C.ar      1 UNK         0.0000 
      5 C5          1.1662   52.8672   27.7087 C.ar      1 UNK         0.0000 
      6 C6          1.9198   53.8029   28.4641 C.ar      1 UNK         0.0000 
      7 C7          1.6357   54.0491   29.8093 C.ar      1 UNK         0.0000 
      8 S8          3.1620   54.4968   27.4433 S.3       1 UNK         0.0000 
      9 C9          2.5180   53.5655   26.1059 C.2       1 UNK         0.0000 
     10 N10         1.5071   52.7860   26.3973 N.2       1 UNK         0.0000 
     11 C11         3.0971   53.6969   24.7304 C.ar      1 UNK         0.0000 
     12 C12         2.3071   53.3883   23.6189 C.ar      1 UNK         0.0000 
     13 C13         2.8212   53.5094   22.3339 C.ar      1 UNK         0.0000 
     14 C14         4.1313   53.9483   22.1396 C.ar      1 UNK         0.0000 
     15 C15         4.9477   54.2097   23.2485 C.ar      1 UNK         0.0000 
     16 C16         4.4246   54.1007   24.5359 C.ar      1 UNK         0.0000 
     17 N17         4.5347   54.1033   20.8010 N.am      1 UNK         0.0000 
     18 C18         5.5045   54.8946   20.2953 C.2       1 UNK         0.0000 
     19 O19         6.2584   55.5896   20.9733 O.2       1 UNK         0.0000 
     20 C20         5.6283   54.9962   18.7644 C.3       1 UNK         0.0000 
     21 N21         5.2352   53.6972   17.9909 N.4       1 UNK         0.0000 
     22 C22         3.7203   53.4760   17.7729 C.3       1 UNK         0.0000 
     23 C23         3.6199   52.5251   16.5792 C.3       1 UNK         0.0000 
     24 C24         4.9075   52.6795   15.7735 C.3       1 UNK         0.0000 
     25 C25         5.7862   53.6861   16.5421 C.3       1 UNK         0.0000 
     26 H26         5.6494   54.7012   16.1593 H         1 UNK         0.0000 
     27 C27         7.2899   53.3415   16.5881 C.2       1 UNK         0.0000 
     28 O28         8.1052   54.2286   16.3429 O.2       1 UNK         0.0000 
     29 N29         7.6499   52.0940   16.9380 N.am      1 UNK         0.0000 
     30 C30         9.0368   51.6259   17.0274 C.3       1 UNK         0.0000 
     31 C31         9.5041   50.9640   15.7478 C.2       1 UNK         0.0000 
     32 C32        10.0011   49.7017   15.4475 C.2       1 UNK         0.0000 
     33 C33        10.2985   49.6931   14.0851 C.2       1 UNK         0.0000 
     34 C34         9.9636   50.9468   13.6078 C.2       1 UNK         0.0000 
     35 O35         9.4834   51.7184   14.6169 O.3       1 UNK         0.0000 
     36 H36         0.4586   54.5718   32.1568 H         1 UNK         0.0000 
     37 H37        -0.7369   53.3073   32.0816 H         1 UNK         0.0000 
     38 H38         0.9185   52.8938   32.5136 H         1 UNK         0.0000 
     39 H39        -0.8728   51.7763   30.1823 H         1 UNK         0.0000 
     40 H40        -0.4293   51.3983   27.7789 H         1 UNK         0.0000 
     41 H41         2.1883   54.7956   30.3591 H         1 UNK         0.0000 
     42 H42         1.2841   53.0643   23.7477 H         1 UNK         0.0000 
     43 H43         2.1797   53.2944   21.4912 H         1 UNK         0.0000 
     44 H44         5.9762   54.5185   23.1359 H         1 UNK         0.0000 
     45 H45         5.0628   54.3184   25.3798 H         1 UNK         0.0000 
     46 H46         3.9193   53.6670   20.1326 H         1 UNK         0.0000 
     47 H47         5.0291   55.8157   18.3630 H         1 UNK         0.0000 
     48 H48         6.6727   55.1907   18.5138 H         1 UNK         0.0000 
     49 H49         3.2613   53.0870   18.6828 H         1 UNK         0.0000 
     50 H50         3.2905   54.4563   17.5516 H         1 UNK         0.0000 
     51 H51         3.5006   51.4967   16.9282 H         1 UNK         0.0000 
     52 H52         2.7422   52.7502   15.9738 H         1 UNK         0.0000 
     53 H53         5.3703   51.6964   15.6717 H         1 UNK         0.0000 
     54 H54         4.7125   53.0327   14.7594 H         1 UNK         0.0000 
     55 H55         6.9274   51.4262   17.1858 H         1 UNK         0.0000 
     56 H56         9.7184   52.4263   17.3240 H         1 UNK         0.0000 
     57 H57         9.0984   50.8987   17.8394 H         1 UNK         0.0000 
     58 H58        10.1404   48.8968   16.1495 H         1 UNK         0.0000 
     59 H59        10.7195   48.8802   13.5067 H         1 UNK         0.0000 
     60 H60        10.0228   51.4082   12.6334 H         1 UNK         0.0000 
     61 H61         5.5914   52.8710   18.4640 H         1 UNK         0.0000 
@<TRIPOS>BOND
     1    1    2 1    
     2    1   36 1    
     3    1   37 1    
     4    1   38 1    
     5    2    7 ar   
     6    2    3 ar   
     7    3    4 ar   
     8    3   39 1    
     9    4    5 ar   
    10    4   40 1    
    11    5   10 1    
    12    5    6 ar   
    13    6    7 ar   
    14    6    8 1    
    15    7   41 1    
    16    8    9 1    
    17    9   10 2    
    18    9   11 1    
    19   11   16 ar   
    20   11   12 ar   
    21   12   13 ar   
    22   12   42 1    
    23   13   14 ar   
    24   13   43 1    
    25   14   15 ar   
    26   14   17 1    
    27   15   16 ar   
    28   15   44 1    
    29   16   45 1    
    30   17   18 am   BACKBONE|DICT|INTERRES
    31   17   46 1    
    32   18   19 2    
    33   18   20 1    
    34   20   21 1    
    35   20   47 1    
    36   20   48 1    
    37   21   25 1    
    38   21   22 1    
    39   21   61 1    
    40   22   23 1    
    41   22   49 1    
    42   22   50 1    
    43   23   24 1    
    44   23   51 1    
    45   23   52 1    
    46   24   25 1    
    47   24   53 1    
    48   24   54 1    
    49   25   26 1    
    50   25   27 1    
    51   27   28 2    
    52   27   29 am   BACKBONE|DICT|INTERRES
    53   29   30 1    
    54   29   55 1    
    55   30   31 1    
    56   30   56 1    
    57   30   57 1    
    58   31   35 1    
    59   31   32 2    
    60   32   33 1    
    61   32   58 1    
    62   33   34 2    
    63   33   59 1    
    64   34   35 1    
    65   34   60 1    
@<TRIPOS>SUBSTRUCTURE
     1 UNK         1 GROUP             0       ****    0 ROOT    
