@<TRIPOS>MOLECULE
ZINC09382675_4818
62   65    1
SMALL
USER_CHARGES


@<TRIPOS>ATOM
      1 C1          0.3561   49.9801   20.4126 C.3       1 UNK         0.0000 
      2 C2         -0.7157   50.8927   21.0563 C.3       1 UNK         0.0000 
      3 H3         -1.6457   50.3206   21.0879 H         1 UNK         0.0000 
      4 C4         -0.4275   51.3589   22.5259 C.3       1 UNK         0.0000 
      5 H5         -1.2698   51.9999   22.7949 H         1 UNK         0.0000 
      6 C6         -0.3534   50.2368   23.5680 C.2       1 UNK         0.0000 
      7 C7         -0.5211   48.8553   23.4057 C.2       1 UNK         0.0000 
      8 C8         -0.4289   48.1067   24.5775 C.2       1 UNK         0.0000 
      9 C9         -0.1970   48.8967   25.6813 C.2       1 UNK         0.0000 
     10 S10        -0.1345   50.5646   25.2733 S.3       1 UNK         0.0000 
     11 C11         0.7073   53.4070   23.6860 C.3       1 UNK         0.0000 
     12 C12         1.7553   54.4830   23.3581 C.3       1 UNK         0.0000 
     13 N13         3.1285   53.9723   23.2217 N.pl3     1 UNK         0.0000 
     14 C14         3.2069   52.8242   22.3044 C.3       1 UNK         0.0000 
     15 C15         2.1842   51.7068   22.6144 C.3       1 UNK         0.0000 
     16 C16         4.0810   54.1216   24.2171 C.ar      1 UNK         0.0000 
     17 C17         3.7426   54.0857   25.5752 C.ar      1 UNK         0.0000 
     18 C18         4.7286   54.2060   26.5486 C.ar      1 UNK         0.0000 
     19 C19         6.0654   54.3936   26.1733 C.ar      1 UNK         0.0000 
     20 C20         6.3977   54.4706   24.8223 C.ar      1 UNK         0.0000 
     21 C21         5.4157   54.3176   23.8508 C.ar      1 UNK         0.0000 
     22 O22         7.1046   54.5114   27.0662 O.3       1 UNK         0.0000 
     23 C23         6.9508   53.9741   28.3748 C.3       1 UNK         0.0000 
     24 N24        -0.9535   52.0610   20.1670 N.pl3     1 UNK         0.0000 
     25 S25        -1.9945   51.9053   18.7538 S.o2      1 UNK         0.0000 
     26 O26        -2.0963   53.2384   18.1512 O.2       1 UNK         0.0000 
     27 O27        -3.1998   51.1791   19.1676 O.2       1 UNK         0.0000 
     28 C28        -1.0823   50.8825   17.6005 C.ar      1 UNK         0.0000 
     29 C29        -1.6657   49.7292   17.0701 C.ar      1 UNK         0.0000 
     30 C30        -0.9249   48.9082   16.2250 C.ar      1 UNK         0.0000 
     31 C31         0.3947   49.2394   15.9171 C.ar      1 UNK         0.0000 
     32 C32         0.9745   50.3962   16.4367 C.ar      1 UNK         0.0000 
     33 C33         0.2322   51.2267   17.2709 C.ar      1 UNK         0.0000 
     34 Cl34        1.3199   48.2055   14.8910 Cl        1 UNK         0.0000 
     35 H35         0.8209   49.2917   21.1164 H         1 UNK         0.0000 
     36 H36        -0.0813   49.3608   19.6297 H         1 UNK         0.0000 
     37 H37         1.1611   50.5520   19.9464 H         1 UNK         0.0000 
     38 H38        -0.7226   48.3891   22.4530 H         1 UNK         0.0000 
     39 H39        -0.5331   47.0344   24.6314 H         1 UNK         0.0000 
     40 H40        -0.0956   48.5734   26.7082 H         1 UNK         0.0000 
     41 H41        -0.2929   53.8432   23.6817 H         1 UNK         0.0000 
     42 H42         0.8948   52.9432   24.6512 H         1 UNK         0.0000 
     43 H43         1.5064   54.8972   22.3887 H         1 UNK         0.0000 
     44 H44         1.7142   55.2974   24.0802 H         1 UNK         0.0000 
     45 H45         4.2137   52.4066   22.2892 H         1 UNK         0.0000 
     46 H46         3.0183   53.2257   21.3065 H         1 UNK         0.0000 
     47 H47         2.3044   51.2376   23.5912 H         1 UNK         0.0000 
     48 H48         2.2530   50.9492   21.8412 H         1 UNK         0.0000 
     49 H49         2.7194   53.9345   25.8837 H         1 UNK         0.0000 
     50 H50         4.4415   54.1552   27.5865 H         1 UNK         0.0000 
     51 H51         7.4252   54.6242   24.5238 H         1 UNK         0.0000 
     52 H52         5.6925   54.3597   22.8073 H         1 UNK         0.0000 
     53 H53         7.8958   54.0819   28.9110 H         1 UNK         0.0000 
     54 H54         6.1879   54.4992   28.9502 H         1 UNK         0.0000 
     55 H55         6.7022   52.9118   28.3355 H         1 UNK         0.0000 
     56 H56        -0.1384   52.6580   20.0061 H         1 UNK         0.0000 
     57 H57        -2.6839   49.4618   17.3169 H         1 UNK         0.0000 
     58 H58        -1.3685   48.0136   15.8146 H         1 UNK         0.0000 
     59 H59         2.0025   50.6381   16.2004 H         1 UNK         0.0000 
     60 H60         0.6878   52.1180   17.6801 H         1 UNK         0.0000 
     61 N61         0.7812   52.3460   22.5625 N.4       1 UNK         0.0000 
     62 H62         0.7056   52.8428   21.6871 H         1 UNK         0.0000 
@<TRIPOS>BOND
     1    1    2 1    
     2    1   35 1    
     3    1   36 1    
     4    1   37 1    
     5    2    3 1    
     6    2    4 1    
     7    2   24 1    
     8    4    5 1    
     9    4    6 1    
    10    4   61 1    
    11    6   10 1    
    12    6    7 2    
    13    7    8 1    
    14    7   38 1    
    15    8    9 2    
    16    8   39 1    
    17    9   10 1    
    18    9   40 1    
    19   11   12 1    
    20   11   41 1    
    21   11   42 1    
    22   11   61 1    
    23   12   13 1    
    24   12   43 1    
    25   12   44 1    
    26   13   14 1    
    27   13   16 1    
    28   14   15 1    
    29   14   45 1    
    30   14   46 1    
    31   15   47 1    
    32   15   48 1    
    33   15   61 1    
    34   16   21 ar   
    35   16   17 ar   
    36   17   18 ar   
    37   17   49 1    
    38   18   19 ar   
    39   18   50 1    
    40   19   20 ar   
    41   19   22 1    
    42   20   21 ar   
    43   20   51 1    
    44   21   52 1    
    45   22   23 1    
    46   23   53 1    
    47   23   54 1    
    48   23   55 1    
    49   24   25 1    
    50   24   56 1    
    51   25   26 2    
    52   25   27 2    
    53   25   28 1    
    54   28   33 ar   
    55   28   29 ar   
    56   29   30 ar   
    57   29   57 1    
    58   30   31 ar   
    59   30   58 1    
    60   31   32 ar   
    61   31   34 1    
    62   32   33 ar   
    63   32   59 1    
    64   33   60 1    
    65   61   62 1    
@<TRIPOS>SUBSTRUCTURE
     1 UNK         1 GROUP             0       ****    0 ROOT    
