@<TRIPOS>MOLECULE
ZINC32127688_2766
44   47    1
SMALL
USER_CHARGES


@<TRIPOS>ATOM
      1 C1          5.2971   53.9555   20.1898 C.3       1 UNK         0.0000 
      2 C2          5.0042   53.9991   21.6843 C.ar      1 UNK         0.0000 
      3 C3          5.9953   54.4533   22.5610 C.ar      1 UNK         0.0000 
      4 C4          5.7642   54.4952   23.9348 C.ar      1 UNK         0.0000 
      5 C5          4.5251   54.1107   24.4632 C.ar      1 UNK         0.0000 
      6 C6          3.5224   53.6969   23.5766 C.ar      1 UNK         0.0000 
      7 C7          3.7627   53.5915   22.2024 C.ar      1 UNK         0.0000 
      8 N8          2.7479   53.1704   21.3218 N.pl3     1 UNK         0.0000 
      9 C9          1.8836   52.1089   21.3320 C.2       1 UNK         0.0000 
     10 S10         1.9046   50.8773   22.4816 S.2       1 UNK         0.0000 
     11 N11         1.0101   52.2210   20.2806 N.am      1 UNK         0.0000 
     12 C12        -0.0149   51.4499   19.8333 C.2       1 UNK         0.0000 
     13 O13        -0.2913   50.3166   20.2366 O.2       1 UNK         0.0000 
     14 C14        -0.8871   52.0984   18.7802 C.ar      1 UNK         0.0000 
     15 C15        -0.3794   53.0767   17.9072 C.ar      1 UNK         0.0000 
     16 C16        -1.2124   53.6864   16.9725 C.ar      1 UNK         0.0000 
     17 C17        -2.5517   53.3157   16.8913 C.ar      1 UNK         0.0000 
     18 C18        -3.0631   52.3341   17.7326 C.ar      1 UNK         0.0000 
     19 C19        -2.2350   51.7257   18.6738 C.ar      1 UNK         0.0000 
     20 F20        -3.3604   53.9156   15.9899 F         1 UNK         0.0000 
     21 C21         4.2564   54.1064   25.9425 C.2       1 UNK         0.0000 
     22 N22         3.0686   53.8525   26.4424 N.2       1 UNK         0.0000 
     23 N23         3.1633   53.8563   27.8001 N.pl3     1 UNK         0.0000 
     24 C24         2.3024   53.6468   28.8618 C.ar      1 UNK         0.0000 
     25 N25         2.9788   53.7794   29.9824 N.2       1 UNK         0.0000 
     26 N26         4.3032   54.0967   29.6817 N.2       1 UNK         0.0000 
     27 C27         4.3772   54.1184   28.3755 C.ar      1 UNK         0.0000 
     28 S28         5.5605   54.3809   27.1181 S.3       1 UNK         0.0000 
     29 C29         0.8346   53.3112   28.7385 C.3       1 UNK         0.0000 
     30 H30         6.2956   54.3218   19.9489 H         1 UNK         0.0000 
     31 H31         5.2086   52.9338   19.8143 H         1 UNK         0.0000 
     32 H32         4.5766   54.5659   19.6424 H         1 UNK         0.0000 
     33 H33         6.9570   54.7670   22.1808 H         1 UNK         0.0000 
     34 H34         6.5641   54.8317   24.5770 H         1 UNK         0.0000 
     35 H35         2.5529   53.4151   23.9600 H         1 UNK         0.0000 
     36 H36         2.6715   53.7727   20.5125 H         1 UNK         0.0000 
     37 H37         1.0780   53.1059   19.7993 H         1 UNK         0.0000 
     38 H38         0.6582   53.3813   17.9401 H         1 UNK         0.0000 
     39 H39        -0.8215   54.4421   16.3063 H         1 UNK         0.0000 
     40 H40        -4.1015   52.0445   17.6541 H         1 UNK         0.0000 
     41 H41        -2.6541   50.9671   19.3219 H         1 UNK         0.0000 
     42 H42         0.3503   53.2131   29.7108 H         1 UNK         0.0000 
     43 H43         0.2953   54.0786   28.1820 H         1 UNK         0.0000 
     44 H44         0.6843   52.3668   28.2148 H         1 UNK         0.0000 
@<TRIPOS>BOND
     1    1    2 1    
     2    1   30 1    
     3    1   31 1    
     4    1   32 1    
     5    2    7 ar   
     6    2    3 ar   
     7    3    4 ar   
     8    3   33 1    
     9    4    5 ar   
    10    4   34 1    
    11    5    6 ar   
    12    5   21 1    
    13    6    7 ar   
    14    6   35 1    
    15    7    8 1    
    16    8    9 1    
    17    8   36 1    
    18    9   10 2    
    19    9   11 am   BACKBONE|DICT|INTERRES
    20   11   12 am   BACKBONE|DICT|INTERRES
    21   11   37 1    
    22   12   13 2    
    23   12   14 1    
    24   14   19 ar   
    25   14   15 ar   
    26   15   16 ar   
    27   15   38 1    
    28   16   17 ar   
    29   16   39 1    
    30   17   18 ar   
    31   17   20 1    
    32   18   19 ar   
    33   18   40 1    
    34   19   41 1    
    35   21   28 1    
    36   21   22 2    
    37   22   23 1    
    38   23   27 ar   
    39   23   24 ar   
    40   24   25 ar   
    41   24   29 1    
    42   25   26 ar   
    43   26   27 ar   
    44   27   28 1    
    45   29   42 1    
    46   29   43 1    
    47   29   44 1    
@<TRIPOS>SUBSTRUCTURE
     1 UNK         1 GROUP             0       ****    0 ROOT    
