ZINC09482072_72
                    3D
 Schrodinger Suite 2024-2.
 58 61  0  0  1  0            999 V2000
   -6.3332   47.3063   29.0597 C   0  0  0  0  0  0
   -5.3783   48.2545   29.8036 C   0  0  0  0  0  0
   -4.3457   48.8267   28.9411 N   0  0  0  0  0  0
   -4.5269   49.8159   28.0519 C   0  0  0  0  0  0
   -5.6160   50.3742   27.8850 O   0  0  0  0  0  0
   -3.3763   50.0967   27.3968 N   0  0  0  0  0  0
   -3.1516   51.1313   26.5463 C   0  0  0  0  0  0
   -4.0113   51.9473   26.1940 O   0  0  0  0  0  0
   -1.6987   51.3191   26.0535 C   0  0  1  0  0  0
   -1.2774   50.3203   25.9382 H   0  0  0  0  0  0
   -1.6636   51.9920   24.6544 C   0  0  0  0  0  0
   -0.7866   52.0965   27.4425 S   0  0  0  0  0  0
    0.8448   52.6992   26.8643 C   0  0  0  0  0  0
    1.1046   52.6518   25.6062 N   0  0  0  0  0  0
    2.2509   53.2287   25.1651 C   0  0  0  0  0  0
    3.2303   53.7856   25.9760 C   0  0  0  0  0  0
    4.3263   54.2821   25.2391 C   0  0  0  0  0  0
    4.1434   54.0975   23.8544 C   0  0  0  0  0  0
    2.6102   53.3673   23.4812 S   0  0  0  0  0  0
    5.1513   54.4709   22.7736 C   0  0  0  0  0  0
    6.5115   54.7897   23.4463 C   0  0  1  0  0  0
    7.0963   55.3668   22.7305 H   0  0  0  0  0  0
    6.3575   55.6712   24.7066 C   0  0  0  0  0  0
    5.5633   54.9668   25.8300 C   0  0  0  0  0  0
    7.2921   53.5064   23.7418 C   0  0  0  0  0  0
    3.0447   53.7473   27.4264 C   0  0  0  0  0  0
    3.8801   54.1134   28.2627 O   0  0  0  0  0  0
    1.7792   53.2548   27.7626 N   0  0  0  0  0  0
    1.3879   53.4517   29.1148 C   0  0  0  0  0  0
    1.1151   52.3507   29.9429 C   0  0  0  0  0  0
    0.5654   52.5421   31.2092 C   0  0  0  0  0  0
    0.3044   53.8281   31.6711 C   0  0  0  0  0  0
    0.6413   54.9268   30.8817 C   0  0  0  0  0  0
    1.1665   54.7489   29.6089 C   0  0  0  0  0  0
    1.4340   55.8436   28.8563 F   0  0  0  0  0  0
   -7.0716   46.8878   29.7437 H   0  0  0  0  0  0
   -5.7925   46.4766   28.6050 H   0  0  0  0  0  0
   -6.8801   47.8304   28.2738 H   0  0  0  0  0  0
   -5.9431   49.0527   30.2902 H   0  0  0  0  0  0
   -4.8780   47.7103   30.6051 H   0  0  0  0  0  0
   -3.3981   48.4960   29.1010 H   0  0  0  0  0  0
   -2.5824   49.5122   27.6486 H   0  0  0  0  0  0
   -2.4352   51.5970   23.9932 H   0  0  0  0  0  0
   -1.8147   53.0693   24.7260 H   0  0  0  0  0  0
   -0.7240   51.8124   24.1361 H   0  0  0  0  0  0
    5.2688   53.6324   22.0871 H   0  0  0  0  0  0
    4.8164   55.2862   22.1360 H   0  0  0  0  0  0
    7.3481   55.9033   25.1013 H   0  0  0  0  0  0
    5.9037   56.6313   24.4817 H   0  0  0  0  0  0
    5.2809   55.6956   26.5897 H   0  0  0  0  0  0
    6.1873   54.2334   26.3429 H   0  0  0  0  0  0
    6.8314   52.9793   24.5696 H   0  0  0  0  0  0
    7.3265   52.8456   22.8817 H   0  0  0  0  0  0
    8.3044   53.6967   24.0515 H   0  0  0  0  0  0
    1.2712   51.3428   29.5796 H   0  0  0  0  0  0
    0.3082   51.6970   31.8309 H   0  0  0  0  0  0
   -0.1216   53.9649   32.6553 H   0  0  0  0  0  0
    0.4935   55.9275   31.2472 H   0  0  0  0  0  0
  1  2  1  0  0  0
  1 36  1  0  0  0
  1 37  1  0  0  0
  1 38  1  0  0  0
  2  3  1  0  0  0
  2 39  1  0  0  0
  2 40  1  0  0  0
  3  4  1  0  0  0
  3 41  1  0  0  0
  4  5  2  0  0  0
  4  6  1  0  0  0
  6  7  1  0  0  0
  6 42  1  0  0  0
  7  8  2  0  0  0
  7  9  1  0  0  0
  9 10  1  0  0  0
  9 11  1  0  0  0
  9 12  1  0  0  0
 11 43  1  0  0  0
 11 44  1  0  0  0
 11 45  1  0  0  0
 12 13  1  0  0  0
 13 28  1  0  0  0
 13 14  2  0  0  0
 14 15  1  0  0  0
 15 19  1  0  0  0
 15 16  2  0  0  0
 16 17  1  0  0  0
 16 26  1  0  0  0
 17 24  1  0  0  0
 17 18  2  0  0  0
 18 19  1  0  0  0
 18 20  1  0  0  0
 20 21  1  0  0  0
 20 46  1  0  0  0
 20 47  1  0  0  0
 21 22  1  0  0  0
 21 23  1  0  0  0
 21 25  1  0  0  0
 23 24  1  0  0  0
 23 48  1  0  0  0
 23 49  1  0  0  0
 24 50  1  0  0  0
 24 51  1  0  0  0
 25 52  1  0  0  0
 25 53  1  0  0  0
 25 54  1  0  0  0
 26 27  2  0  0  0
 26 28  1  0  0  0
 28 29  1  0  0  0
 29 34  2  0  0  0
 29 30  1  0  0  0
 30 31  2  0  0  0
 30 55  1  0  0  0
 31 32  1  0  0  0
 31 56  1  0  0  0
 32 33  2  0  0  0
 32 57  1  0  0  0
 33 34  1  0  0  0
 33 58  1  0  0  0
 34 35  1  0  0  0
M  END
> <i_i_glide_confnum>
227

> <i_i_glide_lignum>
73

> <i_i_glide_posenum>
44

> <i_i_glide_rotatable_bonds>
8

> <i_m_Source_File_Index>
2058

> <b_m_subgroup_collapsed>
0

> <r_i_docking_score>
-7.27522

> <r_i_glide_ecoul>
-7.54022

> <r_i_glide_eff_state_penalty>
0

> <r_i_glide_einternal>
2.44526

> <r_i_glide_emodel>
-66.3541

> <r_i_glide_energy>
-45.6131

> <r_i_glide_erotb>
0.596335

> <r_i_glide_esite>
-0.301329

> <r_i_glide_evdw>
-38.0729

> <r_i_glide_gscore>
-7.27522

> <r_i_glide_hbond>
-0.360619

> <r_i_glide_ligand_efficiency>
-0.220461

> <r_i_glide_ligand_efficiency_ln>
-1.61797

> <r_i_glide_ligand_efficiency_sa>
-0.707137

> <r_i_glide_lipo>
-3.12272

> <r_i_glide_metal>
0

> <r_i_glide_rewards>
-1.0522

> <s_i_glide_gridfile>
wee1_glide-grid

> <s_m_Source_File>
wee1_decoys_glide_SP.sdf

> <s_m_Source_Path>
/Users/zhangxujun/Desktop

> <s_m_entry_id>
2333

> <s_m_entry_name>
wee1_decoys_glide_SP.2058

> <s_m_subgroup_title>
wee1_decoys_glide_SP

> <s_m_subgroupid>
wee1_decoys_glide_SP


$$$$
