@<TRIPOS>MOLECULE
ZINC32669113_2669
59   63    1
SMALL
USER_CHARGES


@<TRIPOS>ATOM
      1 C1          6.1399   58.0951   17.0032 C.3       1 UNK         0.0000 
      2 C2          5.8970   56.8053   17.7470 C.ar      1 UNK         0.0000 
      3 C3          5.3610   55.6070   17.2827 C.ar      1 UNK         0.0000 
      4 C4          5.3288   54.7316   18.3537 C.ar      1 UNK         0.0000 
      5 N5          5.8457   55.4629   19.4113 N.pl3     1 UNK         0.0000 
      6 N6          6.2011   56.7064   19.0174 N.2       1 UNK         0.0000 
      7 C7          6.0008   55.1042   20.7802 C.ar      1 UNK         0.0000 
      8 C8          5.0849   54.2625   21.4281 C.ar      1 UNK         0.0000 
      9 C9          5.1778   54.0962   22.8122 C.ar      1 UNK         0.0000 
     10 C10         6.1670   54.7815   23.5398 C.ar      1 UNK         0.0000 
     11 C11         7.0936   55.5240   22.7968 C.ar      1 UNK         0.0000 
     12 N12         7.0237   55.6963   21.4567 N.ar      1 UNK         0.0000 
     13 C13         6.1425   54.8947   25.0505 C.2       1 UNK         0.0000 
     14 O14         6.8806   55.6983   25.6223 O.2       1 UNK         0.0000 
     15 N15         5.2684   54.1031   25.7042 N.am      1 UNK         0.0000 
     16 N16         4.8576   54.5046   26.9782 N.am      1 UNK         0.0000 
     17 C17         5.2356   53.7891   28.0521 C.2       1 UNK         0.0000 
     18 O18         6.2406   53.0809   28.0816 O.2       1 UNK         0.0000 
     19 C19         4.3034   53.8688   29.2822 C.3       1 UNK         0.0000 
     20 C20         2.8218   53.4117   29.0867 C.3       1 UNK         0.0000 
     21 C21         2.7018   52.2307   28.0801 C.3       1 UNK         0.0000 
     22 C22         1.2458   51.7779   27.8519 C.3       1 UNK         0.0000 
     23 C23         0.6929   51.2975   29.1849 C.3       1 UNK         0.0000 
     24 C24         0.7626   52.4098   30.2575 C.3       1 UNK         0.0000 
     25 C25         2.2244   52.8765   30.4288 C.3       1 UNK         0.0000 
     26 C26        -0.0849   53.5987   29.7840 C.3       1 UNK         0.0000 
     27 C27         0.4785   54.0910   28.4305 C.3       1 UNK         0.0000 
     28 C28         0.4070   52.9555   27.3711 C.3       1 UNK         0.0000 
     29 C29         1.9326   54.5812   28.5946 C.3       1 UNK         0.0000 
     30 C30         4.8626   53.2959   18.4212 C.3       1 UNK         0.0000 
     31 H31         5.8128   58.0364   15.9658 H         1 UNK         0.0000 
     32 H32         5.6024   58.9291   17.4548 H         1 UNK         0.0000 
     33 H33         7.1956   58.3637   16.9910 H         1 UNK         0.0000 
     34 H34         5.0297   55.4007   16.2763 H         1 UNK         0.0000 
     35 H35         4.2574   53.8118   20.9035 H         1 UNK         0.0000 
     36 H36         4.4177   53.5076   23.3046 H         1 UNK         0.0000 
     37 H37         7.8653   56.0981   23.2857 H         1 UNK         0.0000 
     38 H38         4.5165   53.6359   25.2206 H         1 UNK         0.0000 
     39 H39         3.9967   55.0311   26.9555 H         1 UNK         0.0000 
     40 H40         4.3582   54.8773   29.6930 H         1 UNK         0.0000 
     41 H41         4.7044   53.2191   30.0536 H         1 UNK         0.0000 
     42 H42         3.2854   51.3967   28.4744 H         1 UNK         0.0000 
     43 H43         3.1149   52.4948   27.1075 H         1 UNK         0.0000 
     44 H44         1.2066   50.9674   27.1233 H         1 UNK         0.0000 
     45 H45         1.3564   50.4967   29.4546 H         1 UNK         0.0000 
     46 H46        -0.3169   50.8968   29.0853 H         1 UNK         0.0000 
     47 H47         0.3749   52.0409   31.2096 H         1 UNK         0.0000 
     48 H48         2.2091   53.6665   31.1651 H         1 UNK         0.0000 
     49 H49         2.8319   52.0695   30.8419 H         1 UNK         0.0000 
     50 H50        -0.0860   54.4008   30.5240 H         1 UNK         0.0000 
     51 H51        -1.1132   53.2659   29.6830 H         1 UNK         0.0000 
     52 H52        -0.0958   54.9265   28.0804 H         1 UNK         0.0000 
     53 H53        -0.6276   52.6494   27.2044 H         1 UNK         0.0000 
     54 H54         0.7871   53.2962   26.4061 H         1 UNK         0.0000 
     55 H55         2.2925   54.9785   27.6471 H         1 UNK         0.0000 
     56 H56         1.9680   55.4137   29.3004 H         1 UNK         0.0000 
     57 H57         4.8790   52.8281   17.4363 H         1 UNK         0.0000 
     58 H58         5.4963   52.6801   19.0584 H         1 UNK         0.0000 
     59 H59         3.8385   53.2121   18.7832 H         1 UNK         0.0000 
@<TRIPOS>BOND
     1    1    2 1    
     2    1   31 1    
     3    1   32 1    
     4    1   33 1    
     5    2    6 ar   
     6    2    3 ar   
     7    3    4 ar   
     8    3   34 1    
     9    4    5 ar   
    10    4   30 1    
    11    5    6 ar   
    12    5    7 1    
    13    7   12 ar   
    14    7    8 ar   
    15    8    9 ar   
    16    8   35 1    
    17    9   10 ar   
    18    9   36 1    
    19   10   11 ar   
    20   10   13 1    
    21   11   12 ar   
    22   11   37 1    
    23   13   14 2    
    24   13   15 am   BACKBONE|DICT|INTERRES
    25   15   16 1    
    26   15   38 1    
    27   16   17 am   BACKBONE|DICT|INTERRES
    28   16   39 1    
    29   17   18 2    
    30   17   19 1    
    31   19   20 1    
    32   19   40 1    
    33   19   41 1    
    34   20   25 1    
    35   20   29 1    
    36   20   21 1    
    37   21   22 1    
    38   21   42 1    
    39   21   43 1    
    40   22   28 1    
    41   22   23 1    
    42   22   44 1    
    43   23   24 1    
    44   23   45 1    
    45   23   46 1    
    46   24   25 1    
    47   24   26 1    
    48   24   47 1    
    49   25   48 1    
    50   25   49 1    
    51   26   27 1    
    52   26   50 1    
    53   26   51 1    
    54   27   28 1    
    55   27   29 1    
    56   27   52 1    
    57   28   53 1    
    58   28   54 1    
    59   29   55 1    
    60   29   56 1    
    61   30   57 1    
    62   30   58 1    
    63   30   59 1    
@<TRIPOS>SUBSTRUCTURE
     1 UNK         1 GROUP             0       ****    0 ROOT    
