@<TRIPOS>MOLECULE
ZINC33043977_3573
43   45    1
SMALL
USER_CHARGES


@<TRIPOS>ATOM
      1 C1          6.6869   53.8819   27.1119 C.3       1 UNK         0.0000 
      2 C2          6.6673   54.2162   25.6080 C.3       1 UNK         0.0000 
      3 C3          5.5823   55.2514   25.2616 C.3       1 UNK         0.0000 
      4 C4          4.1718   54.8617   25.7709 C.3       1 UNK         0.0000 
      5 H5          3.5388   55.7404   25.6828 H         1 UNK         0.0000 
      6 C6          3.5149   53.7620   24.9013 C.3       1 UNK         0.0000 
      7 C7          2.1409   53.3145   25.4116 C.2       1 UNK         0.0000 
      8 N8          1.1877   53.1586   24.5738 N.2       1 UNK         0.0000 
      9 N9          0.0423   52.6688   25.0800 N.am      1 UNK         0.0000 
     10 C10        -1.0788   52.4563   24.3647 C.2       1 UNK         0.0000 
     11 O11        -1.1421   52.4962   23.1310 O.2       1 UNK         0.0000 
     12 C12        -2.3179   52.2323   25.1993 C.ar      1 UNK         0.0000 
     13 C13        -2.3617   51.3915   26.3357 C.ar      1 UNK         0.0000 
     14 C14        -3.5716   51.2954   27.0473 C.ar      1 UNK         0.0000 
     15 C15        -4.6932   52.0210   26.6150 C.ar      1 UNK         0.0000 
     16 C16        -4.5704   52.8180   25.4699 C.ar      1 UNK         0.0000 
     17 N17        -3.4130   52.9155   24.7768 N.ar      1 UNK         0.0000 
     18 Cl18       -5.9060   53.7459   24.8818 Cl        1 UNK         0.0000 
     19 Cl19       -6.1984   51.9512   27.4823 Cl        1 UNK         0.0000 
     20 N20        -3.6557   50.4918   28.1933 N.pl3     1 UNK         0.0000 
     21 Cl21       -0.9680   50.4967   26.8740 Cl        1 UNK         0.0000 
     22 C22         2.1305   53.0172   26.9408 C.3       1 UNK         0.0000 
     23 C23         2.7803   54.1588   27.7479 C.3       1 UNK         0.0000 
     24 C24         4.2089   54.4966   27.2788 C.3       1 UNK         0.0000 
     25 H25         4.5212   55.3807   27.8226 H         1 UNK         0.0000 
     26 C26         5.2899   53.4372   27.5921 C.3       1 UNK         0.0000 
     27 H27         7.0141   54.7540   27.6814 H         1 UNK         0.0000 
     28 H28         7.4140   53.0940   27.3099 H         1 UNK         0.0000 
     29 H29         7.6339   54.5950   25.2841 H         1 UNK         0.0000 
     30 H30         6.5033   53.3013   25.0362 H         1 UNK         0.0000 
     31 H31         5.5616   55.4062   24.1827 H         1 UNK         0.0000 
     32 H32         5.8736   56.2107   25.6818 H         1 UNK         0.0000 
     33 H33         4.1660   52.9026   24.8938 H         1 UNK         0.0000 
     34 H34         3.4398   54.0999   23.8651 H         1 UNK         0.0000 
     35 H35         0.0427   52.5219   26.0785 H         1 UNK         0.0000 
     36 H36        -2.8729   49.8509   28.3342 H         1 UNK         0.0000 
     37 H37        -4.5669   50.1197   28.4126 H         1 UNK         0.0000 
     38 H38         1.1230   52.8545   27.3209 H         1 UNK         0.0000 
     39 H39         2.6763   52.0967   27.1315 H         1 UNK         0.0000 
     40 H40         2.1529   55.0492   27.6828 H         1 UNK         0.0000 
     41 H41         2.7996   53.8807   28.8027 H         1 UNK         0.0000 
     42 H42         5.3049   53.2223   28.6600 H         1 UNK         0.0000 
     43 H43         5.0239   52.4968   27.1207 H         1 UNK         0.0000 
@<TRIPOS>BOND
     1    1   26 1    
     2    1    2 1    
     3    1   27 1    
     4    1   28 1    
     5    2    3 1    
     6    2   29 1    
     7    2   30 1    
     8    3    4 1    
     9    3   31 1    
    10    3   32 1    
    11    4    5 1    
    12    4   24 1    
    13    4    6 1    
    14    6    7 1    
    15    6   33 1    
    16    6   34 1    
    17    7    8 2    
    18    7   22 1    
    19    8    9 1    
    20    9   10 am   BACKBONE|DICT|INTERRES
    21    9   35 1    
    22   10   11 2    
    23   10   12 1    
    24   12   17 ar   
    25   12   13 ar   
    26   13   14 ar   
    27   13   21 1    
    28   14   15 ar   
    29   14   20 1    
    30   15   16 ar   
    31   15   19 1    
    32   16   17 ar   
    33   16   18 1    
    34   20   36 1    
    35   20   37 1    
    36   22   23 1    
    37   22   38 1    
    38   22   39 1    
    39   23   24 1    
    40   23   40 1    
    41   23   41 1    
    42   24   25 1    
    43   24   26 1    
    44   26   42 1    
    45   26   43 1    
@<TRIPOS>SUBSTRUCTURE
     1 UNK         1 GROUP             0       ****    0 ROOT    
