ZINC17357306_2755
                    3D
 Schrodinger Suite 2024-2.
 56 59  0  0  1  0            999 V2000
    3.1048   53.9137   22.1086 C   0  0  0  0  0  0
    2.0543   53.2113   22.6789 C   0  0  0  0  0  0
    1.9378   51.8324   22.4903 C   0  0  0  0  0  0
    2.8532   51.1851   21.6520 C   0  0  0  0  0  0
    3.8752   51.9003   21.0232 C   0  0  0  0  0  0
    4.0143   53.2746   21.2656 C   0  0  0  0  0  0
    5.1051   54.0989   20.6371 C   0  0  0  0  0  0
    5.6280   55.0146   21.2759 O   0  0  0  0  0  0
    5.4039   53.8294   19.3517 N   0  0  0  0  0  0
    6.2032   54.6997   18.4785 C   0  0  0  0  0  0
    5.4947   56.0275   18.0906 C   0  0  0  0  0  0
    6.3332   56.9573   17.1916 C   0  0  0  0  0  0
    7.7426   57.1912   17.7567 C   0  0  0  0  0  0
    8.4777   55.8584   17.9671 C   0  0  0  0  0  0
    7.6940   54.8959   18.8811 C   0  0  0  0  0  0
    0.9491   51.0533   23.1162 N   0  0  0  0  0  0
   -0.3584   51.6423   24.1795 S   0  0  0  0  0  0
   -0.8156   52.9437   23.6821 O   0  0  0  0  0  0
   -1.3026   50.5253   24.2876 O   0  0  0  0  0  0
    0.3557   51.8932   25.8104 C   0  0  0  0  0  0
   -0.0502   51.0998   26.8850 C   0  0  0  0  0  0
    0.5093   51.2969   28.1444 C   0  0  0  0  0  0
    1.5057   52.2481   28.3588 C   0  0  0  0  0  0
    1.9023   53.0753   27.2799 C   0  0  0  0  0  0
    1.3066   52.8949   26.0312 C   0  0  0  0  0  0
    2.8151   54.1073   27.3704 O   0  0  0  0  0  0
    3.0228   54.7247   28.6310 C   0  0  0  0  0  0
    3.9478   53.8977   29.5206 C   0  0  0  0  0  0
    3.5127   52.4338   29.6505 C   0  0  0  0  0  0
    2.0980   52.2722   29.6071 O   0  0  0  0  0  0
    3.1749   54.9772   22.2876 H   0  0  0  0  0  0
    1.3458   53.7771   23.2547 H   0  0  0  0  0  0
    2.7745   50.1211   21.4787 H   0  0  0  0  0  0
    4.5584   51.3776   20.3659 H   0  0  0  0  0  0
    4.8071   53.1637   18.8804 H   0  0  0  0  0  0
    6.2741   54.1419   17.5421 H   0  0  0  0  0  0
    5.2655   56.5836   19.0011 H   0  0  0  0  0  0
    4.5414   55.8163   17.6032 H   0  0  0  0  0  0
    5.8217   57.9142   17.0685 H   0  0  0  0  0  0
    6.4084   56.5239   16.1918 H   0  0  0  0  0  0
    7.6755   57.7310   18.7031 H   0  0  0  0  0  0
    8.3123   57.8285   17.0794 H   0  0  0  0  0  0
    9.4677   56.0420   18.3897 H   0  0  0  0  0  0
    8.6481   55.3818   16.9994 H   0  0  0  0  0  0
    8.2044   53.9331   18.8822 H   0  0  0  0  0  0
    7.7536   55.3018   19.8912 H   0  0  0  0  0  0
    1.0299   50.0523   23.0351 H   0  0  0  0  0  0
   -0.7974   50.3266   26.7609 H   0  0  0  0  0  0
    0.1812   50.6760   28.9643 H   0  0  0  0  0  0
    1.6142   53.5544   25.2422 H   0  0  0  0  0  0
    2.0698   54.9380   29.1198 H   0  0  0  0  0  0
    3.4784   55.6964   28.4625 H   0  0  0  0  0  0
    3.9945   54.3674   30.4976 H   0  0  0  0  0  0
    4.9649   53.9353   29.1281 H   0  0  0  0  0  0
    3.8755   52.0332   30.5985 H   0  0  0  0  0  0
    3.9860   51.8128   28.8867 H   0  0  0  0  0  0
  1  6  2  0  0  0
  1  2  1  0  0  0
  1 31  1  0  0  0
  2  3  2  0  0  0
  2 32  1  0  0  0
  3  4  1  0  0  0
  3 16  1  0  0  0
  4  5  2  0  0  0
  4 33  1  0  0  0
  5  6  1  0  0  0
  5 34  1  0  0  0
  6  7  1  0  0  0
  7  8  2  0  0  0
  7  9  1  0  0  0
  9 10  1  0  0  0
  9 35  1  0  0  0
 10 15  1  0  0  0
 10 11  1  0  0  0
 10 36  1  0  0  0
 11 12  1  0  0  0
 11 37  1  0  0  0
 11 38  1  0  0  0
 12 13  1  0  0  0
 12 39  1  0  0  0
 12 40  1  0  0  0
 13 14  1  0  0  0
 13 41  1  0  0  0
 13 42  1  0  0  0
 14 15  1  0  0  0
 14 43  1  0  0  0
 14 44  1  0  0  0
 15 45  1  0  0  0
 15 46  1  0  0  0
 16 17  1  0  0  0
 16 47  1  0  0  0
 17 18  2  0  0  0
 17 19  2  0  0  0
 17 20  1  0  0  0
 20 25  2  0  0  0
 20 21  1  0  0  0
 21 22  2  0  0  0
 21 48  1  0  0  0
 22 23  1  0  0  0
 22 49  1  0  0  0
 23 30  1  0  0  0
 23 24  2  0  0  0
 24 25  1  0  0  0
 24 26  1  0  0  0
 25 50  1  0  0  0
 26 27  1  0  0  0
 27 28  1  0  0  0
 27 51  1  0  0  0
 27 52  1  0  0  0
 28 29  1  0  0  0
 28 53  1  0  0  0
 28 54  1  0  0  0
 29 30  1  0  0  0
 29 55  1  0  0  0
 29 56  1  0  0  0
M  END
> <i_i_glide_confnum>
428

> <i_i_glide_lignum>
2756

> <i_i_glide_posenum>
146

> <i_i_glide_rotatable_bonds>
6

> <i_m_Source_File_Index>
1407

> <b_m_subgroup_collapsed>
0

> <r_i_docking_score>
-3.6723

> <r_i_glide_ecoul>
-2.64107

> <r_i_glide_eff_state_penalty>
0

> <r_i_glide_einternal>
4.19304

> <r_i_glide_emodel>
-51.9578

> <r_i_glide_energy>
-43.8945

> <r_i_glide_erotb>
0.643614

> <r_i_glide_esite>
-0.0331526

> <r_i_glide_evdw>
-41.2534

> <r_i_glide_gscore>
-3.6723

> <r_i_glide_hbond>
0

> <r_i_glide_ligand_efficiency>
-0.12241

> <r_i_glide_ligand_efficiency_ln>
-0.834387

> <r_i_glide_ligand_efficiency_sa>
-0.380356

> <r_i_glide_lipo>
-1.75441

> <r_i_glide_metal>
0

> <r_i_glide_rewards>
-0.069522

> <s_i_glide_gridfile>
wee1_glide-grid

> <s_m_Source_File>
wee1_decoys_glide_SP.sdf

> <s_m_Source_Path>
/Users/zhangxujun/Desktop

> <s_m_entry_id>
1682

> <s_m_entry_name>
wee1_decoys_glide_SP.1407

> <s_m_subgroup_title>
wee1_decoys_glide_SP

> <s_m_subgroupid>
wee1_decoys_glide_SP


$$$$
