@<TRIPOS>MOLECULE
ZINC20101738_3007
63   65    1
SMALL
USER_CHARGES


@<TRIPOS>ATOM
      1 C1          0.8297   44.7437   12.3191 C.3       1 UNK         0.0000 
      2 C2          1.1009   45.5037   13.6034 C.ar      1 UNK         0.0000 
      3 C3          0.5240   45.0754   14.8001 C.ar      1 UNK         0.0000 
      4 C4          0.7598   45.7767   15.9793 C.ar      1 UNK         0.0000 
      5 C5          1.5843   46.9142   15.9649 C.ar      1 UNK         0.0000 
      6 C6          2.1556   47.3368   14.7616 C.ar      1 UNK         0.0000 
      7 C7          1.9084   46.6426   13.5820 C.ar      1 UNK         0.0000 
      8 N8          1.9044   47.6956   17.0902 N.am      1 UNK         0.0000 
      9 C9          1.5423   47.5511   18.3836 C.2       1 UNK         0.0000 
     10 O10         0.8220   46.6532   18.8193 O.2       1 UNK         0.0000 
     11 C11         2.1137   48.5650   19.3805 C.3       1 UNK         0.0000 
     12 S12         2.2939   50.2654   18.7523 S.3       1 UNK         0.0000 
     13 C13         2.2359   51.2185   20.2494 C.2       1 UNK         0.0000 
     14 C14         1.1326   51.4968   20.9749 C.2       1 UNK         0.0000 
     15 C15         1.1911   52.3891   22.2250 C.3       1 UNK         0.0000 
     16 H16         0.6636   53.2968   21.9429 H         1 UNK         0.0000 
     17 C17         2.6368   52.8984   22.4954 C.2       1 UNK         0.0000 
     18 C18         3.6791   52.5509   21.6810 C.2       1 UNK         0.0000 
     19 N19         3.4586   51.7409   20.5825 N.pl3     1 UNK         0.0000 
     20 C20         5.1201   53.0412   21.7387 C.3       1 UNK         0.0000 
     21 C21         2.7700   53.7862   23.6775 C.2       1 UNK         0.0000 
     22 O22         1.8416   54.4967   24.0666 O.2       1 UNK         0.0000 
     23 O23         3.9581   53.6968   24.3296 O.3       1 UNK         0.0000 
     24 C24         4.3004   54.5152   25.4535 C.3       1 UNK         0.0000 
     25 C25         3.5830   54.2057   26.7654 C.2       1 UNK         0.0000 
     26 C26         2.6165   53.2955   26.9755 C.2       1 UNK         0.0000 
     27 C27         0.3945   51.8131   23.4105 C.ar      1 UNK         0.0000 
     28 C28         0.8494   50.6783   24.0907 C.ar      1 UNK         0.0000 
     29 C29         0.0979   50.1251   25.1315 C.ar      1 UNK         0.0000 
     30 C30        -1.1310   50.6863   25.4862 C.ar      1 UNK         0.0000 
     31 C31        -1.6121   51.8169   24.8062 C.ar      1 UNK         0.0000 
     32 C32        -0.8282   52.3812   23.7862 C.ar      1 UNK         0.0000 
     33 O33        -2.8411   52.3321   25.1820 O.3       1 UNK         0.0000 
     34 C34        -3.5647   53.1347   24.2548 C.3       1 UNK         0.0000 
     35 O35        -1.8897   50.1153   26.4817 O.3       1 UNK         0.0000 
     36 C36        -0.1413   50.9924   20.5741 C.1       1 UNK         0.0000 
     37 N37        -1.1899   50.6129   20.2656 N.1       1 UNK         0.0000 
     38 H38        -0.1988   44.3789   12.2987 H         1 UNK         0.0000 
     39 H39         0.9525   45.3815   11.4418 H         1 UNK         0.0000 
     40 H40         1.4988   43.8848   12.2348 H         1 UNK         0.0000 
     41 H41        -0.1109   44.1996   14.8179 H         1 UNK         0.0000 
     42 H42         0.2958   45.4153   16.8821 H         1 UNK         0.0000 
     43 H43         2.7942   48.2113   14.7388 H         1 UNK         0.0000 
     44 H44         2.3429   46.9911   12.6565 H         1 UNK         0.0000 
     45 H45         2.5726   48.4399   16.8961 H         1 UNK         0.0000 
     46 H46         3.1007   48.2153   19.6820 H         1 UNK         0.0000 
     47 H47         1.4853   48.5723   20.2714 H         1 UNK         0.0000 
     48 H48         4.2236   51.5647   19.9422 H         1 UNK         0.0000 
     49 H49         5.7527   52.2962   22.2206 H         1 UNK         0.0000 
     50 H50         5.5042   53.2228   20.7331 H         1 UNK         0.0000 
     51 H51         5.2292   53.9857   22.2691 H         1 UNK         0.0000 
     52 H52         4.1410   55.5639   25.2145 H         1 UNK         0.0000 
     53 H53         5.3707   54.3985   25.6254 H         1 UNK         0.0000 
     54 H54         3.9082   54.8043   27.6049 H         1 UNK         0.0000 
     55 H55         2.2424   52.6628   26.1828 H         1 UNK         0.0000 
     56 H56         2.1786   53.1681   27.9539 H         1 UNK         0.0000 
     57 H57         1.7863   50.2169   23.8101 H         1 UNK         0.0000 
     58 H58         0.4616   49.2451   25.6457 H         1 UNK         0.0000 
     59 H59        -1.1718   53.2647   23.2740 H         1 UNK         0.0000 
     60 H60        -4.5616   53.3340   24.6484 H         1 UNK         0.0000 
     61 H61        -3.0839   54.0965   24.0816 H         1 UNK         0.0000 
     62 H62        -3.6826   52.6227   23.2987 H         1 UNK         0.0000 
     63 H63        -1.4963   49.4173   27.0343 H         1 UNK         0.0000 
@<TRIPOS>BOND
     1    1    2 1    
     2    1   38 1    
     3    1   39 1    
     4    1   40 1    
     5    2    7 ar   
     6    2    3 ar   
     7    3    4 ar   
     8    3   41 1    
     9    4    5 ar   
    10    4   42 1    
    11    5    6 ar   
    12    5    8 1    
    13    6    7 ar   
    14    6   43 1    
    15    7   44 1    
    16    8    9 am   BACKBONE|DICT|INTERRES
    17    8   45 1    
    18    9   10 2    
    19    9   11 1    
    20   11   12 1    
    21   11   46 1    
    22   11   47 1    
    23   12   13 1    
    24   13   19 1    
    25   13   14 2    
    26   14   15 1    
    27   14   36 1    
    28   15   16 1    
    29   15   17 1    
    30   15   27 1    
    31   17   18 2    
    32   17   21 1    
    33   18   19 1    
    34   18   20 1    
    35   19   48 1    
    36   20   49 1    
    37   20   50 1    
    38   20   51 1    
    39   21   22 2    
    40   21   23 1    
    41   23   24 1    
    42   24   25 1    
    43   24   52 1    
    44   24   53 1    
    45   25   26 2    
    46   25   54 1    
    47   26   55 1    
    48   26   56 1    
    49   27   32 ar   
    50   27   28 ar   
    51   28   29 ar   
    52   28   57 1    
    53   29   30 ar   
    54   29   58 1    
    55   30   31 ar   
    56   30   35 1    
    57   31   32 ar   
    58   31   33 1    
    59   32   59 1    
    60   33   34 1    
    61   34   60 1    
    62   34   61 1    
    63   34   62 1    
    64   35   63 1    
    65   36   37 3    
@<TRIPOS>SUBSTRUCTURE
     1 UNK         1 GROUP             0       ****    0 ROOT    
