@<TRIPOS>MOLECULE
ZINC57531382_2570
49   51    1
SMALL
USER_CHARGES


@<TRIPOS>ATOM
      1 C1          0.5560   51.3864   27.3937 C.3       1 UNK         0.0000 
      2 N2          1.0431   52.5082   26.5831 N.pl3     1 UNK         0.0000 
      3 C3          1.8891   53.4860   27.2634 C.3       1 UNK         0.0000 
      4 C4          1.1038   52.4080   25.1653 C.ar      1 UNK         0.0000 
      5 C5          0.7107   51.2305   24.5186 C.ar      1 UNK         0.0000 
      6 C6          0.8137   51.1040   23.1420 C.ar      1 UNK         0.0000 
      7 C7          1.2816   52.1613   22.3507 C.ar      1 UNK         0.0000 
      8 C8          1.6404   53.3569   22.9797 C.ar      1 UNK         0.0000 
      9 C9          1.5619   53.4731   24.3694 C.ar      1 UNK         0.0000 
     10 C10         1.3676   52.0042   20.8161 C.3       1 UNK         0.0000 
     11 H11         0.4983   52.5704   20.4816 H         1 UNK         0.0000 
     12 C12         2.6267   52.6123   20.0531 C.3       1 UNK         0.0000 
     13 H13         2.5604   53.6951   20.0598 H         1 UNK         0.0000 
     14 C14         2.6655   52.1756   18.5246 C.3       1 UNK         0.0000 
     15 N15         2.4875   50.7177   18.4815 N.pl3     1 UNK         0.0000 
     16 C16         1.7058   49.9752   19.3009 C.2       1 UNK         0.0000 
     17 S17         1.4634   48.3565   19.0613 S.2       1 UNK         0.0000 
     18 N18         1.1278   50.6260   20.3382 N.pl3     1 UNK         0.0000 
     19 C19         1.6025   52.9343   17.6594 C.3       1 UNK         0.0000 
     20 F20         0.3529   52.7572   18.0957 F         1 UNK         0.0000 
     21 F21         1.8204   54.2499   17.6298 F         1 UNK         0.0000 
     22 F22         1.6126   52.5163   16.3902 F         1 UNK         0.0000 
     23 O23         3.9089   52.4967   17.9331 O.3       1 UNK         0.0000 
     24 C24         3.9606   52.3549   20.8159 C.2       1 UNK         0.0000 
     25 O25         4.1772   51.2397   21.2818 O.2       1 UNK         0.0000 
     26 C26         4.8311   53.5325   21.1440 C.ar      1 UNK         0.0000 
     27 C27         5.1383   54.4963   20.1742 C.ar      1 UNK         0.0000 
     28 C28         6.0749   55.4920   20.4422 C.ar      1 UNK         0.0000 
     29 C29         6.7039   55.5369   21.6840 C.ar      1 UNK         0.0000 
     30 C30         6.3811   54.6106   22.6712 C.ar      1 UNK         0.0000 
     31 C31         5.4511   53.6117   22.3999 C.ar      1 UNK         0.0000 
     32 H32        -0.4094   51.0274   27.0328 H         1 UNK         0.0000 
     33 H33         1.2520   50.5474   27.3443 H         1 UNK         0.0000 
     34 H34         0.4307   51.6610   28.4417 H         1 UNK         0.0000 
     35 H35         2.9319   53.3609   26.9643 H         1 UNK         0.0000 
     36 H36         1.5831   54.4970   27.0051 H         1 UNK         0.0000 
     37 H37         1.8455   53.3862   28.3489 H         1 UNK         0.0000 
     38 H38         0.3497   50.3772   25.0709 H         1 UNK         0.0000 
     39 H39         0.5168   50.1606   22.7116 H         1 UNK         0.0000 
     40 H40         1.9892   54.1959   22.3961 H         1 UNK         0.0000 
     41 H41         1.8578   54.4104   24.8127 H         1 UNK         0.0000 
     42 H42         2.9084   50.1942   17.7169 H         1 UNK         0.0000 
     43 H43         0.4344   50.0674   20.8118 H         1 UNK         0.0000 
     44 H44         4.5170   51.7476   18.0814 H         1 UNK         0.0000 
     45 H45         4.6872   54.4774   19.1927 H         1 UNK         0.0000 
     46 H46         6.3222   56.2193   19.6823 H         1 UNK         0.0000 
     47 H47         7.4453   56.2937   21.8884 H         1 UNK         0.0000 
     48 H48         6.8709   54.6530   23.6331 H         1 UNK         0.0000 
     49 H49         5.2302   52.8967   23.1745 H         1 UNK         0.0000 
@<TRIPOS>BOND
     1    1    2 1    
     2    1   32 1    
     3    1   33 1    
     4    1   34 1    
     5    2    3 1    
     6    2    4 1    
     7    3   35 1    
     8    3   36 1    
     9    3   37 1    
    10    4    9 ar   
    11    4    5 ar   
    12    5    6 ar   
    13    5   38 1    
    14    6    7 ar   
    15    6   39 1    
    16    7    8 ar   
    17    7   10 1    
    18    8    9 ar   
    19    8   40 1    
    20    9   41 1    
    21   10   11 1    
    22   10   18 1    
    23   10   12 1    
    24   12   13 1    
    25   12   14 1    
    26   12   24 1    
    27   14   15 1    
    28   14   19 1    
    29   14   23 1    
    30   15   16 1    
    31   15   42 1    
    32   16   17 2    
    33   16   18 1    
    34   18   43 1    
    35   19   20 1    
    36   19   21 1    
    37   19   22 1    
    38   23   44 1    
    39   24   25 2    
    40   24   26 1    
    41   26   31 ar   
    42   26   27 ar   
    43   27   28 ar   
    44   27   45 1    
    45   28   29 ar   
    46   28   46 1    
    47   29   30 ar   
    48   29   47 1    
    49   30   31 ar   
    50   30   48 1    
    51   31   49 1    
@<TRIPOS>SUBSTRUCTURE
     1 UNK         1 GROUP             0       ****    0 ROOT    
