ZINC40288122_3584
                    3D
 Schrodinger Suite 2024-2.
 54 57  0  0  1  0            999 V2000
    3.1768   52.5905   18.8656 C   0  0  0  0  0  0
    3.9217   52.0044   20.0768 C   0  0  0  0  0  0
    5.3868   52.4691   20.1374 C   0  0  0  0  0  0
    3.1918   52.2870   21.3865 C   0  0  0  0  0  0
    3.1522   53.5886   21.8973 C   0  0  0  0  0  0
    2.4781   53.8533   23.0802 C   0  0  0  0  0  0
    1.8404   52.8210   23.7715 C   0  0  0  0  0  0
    1.9012   51.5134   23.2739 C   0  0  0  0  0  0
    2.5689   51.2482   22.0817 C   0  0  0  0  0  0
    1.0464   53.1517   25.0403 C   0  0  1  0  0  0
    0.7016   54.1601   24.8232 H   0  0  0  0  0  0
   -0.1736   52.2392   25.3374 C   0  0  0  0  0  0
   -0.2457   51.4972   26.4771 C   0  0  0  0  0  0
   -1.3948   50.5279   26.7755 C   0  0  0  0  0  0
   -2.7135   50.9507   26.0680 C   0  0  0  0  0  0
   -2.3940   51.1771   24.5678 C   0  0  0  0  0  0
   -1.2534   52.1785   24.3223 C   0  0  0  0  0  0
   -1.2667   52.8966   23.3268 O   0  0  0  0  0  0
   -3.7053   49.7702   26.1603 C   0  0  0  0  0  0
   -3.2891   52.2498   26.6868 C   0  0  0  0  0  0
    0.6790   51.6191   27.5038 N   0  0  0  0  0  0
    1.7353   52.5047   27.4022 C   0  0  0  0  0  0
    1.8990   53.2352   26.2387 N   0  0  0  0  0  0
    2.9326   54.0917   26.3360 N   0  0  0  0  0  0
    3.4475   53.8828   27.5216 C   0  0  0  0  0  0
    2.7689   52.8887   28.2490 C   0  0  0  0  0  0
    2.9948   52.4635   29.6002 C   0  0  0  0  0  0
    2.0921   52.0978   30.3434 O   0  0  0  0  0  0
    4.2647   52.4963   29.9901 N   0  0  0  0  0  0
    2.1481   52.2292   18.8190 H   0  0  0  0  0  0
    3.6656   52.3011   17.9328 H   0  0  0  0  0  0
    3.1431   53.6817   18.9013 H   0  0  0  0  0  0
    3.9360   50.9182   19.9439 H   0  0  0  0  0  0
    5.8705   52.0889   21.0372 H   0  0  0  0  0  0
    5.9536   52.1056   19.2817 H   0  0  0  0  0  0
    5.4728   53.5548   20.1449 H   0  0  0  0  0  0
    3.6200   54.4011   21.3619 H   0  0  0  0  0  0
    2.4370   54.8697   23.4471 H   0  0  0  0  0  0
    1.4261   50.7000   23.8012 H   0  0  0  0  0  0
    2.6058   50.2355   21.7078 H   0  0  0  0  0  0
   -1.0558   49.5335   26.4807 H   0  0  0  0  0  0
   -1.6240   50.4983   27.8423 H   0  0  0  0  0  0
   -2.0481   50.2397   24.1343 H   0  0  0  0  0  0
   -3.2706   51.4804   23.9967 H   0  0  0  0  0  0
   -4.6479   49.9993   25.6637 H   0  0  0  0  0  0
   -3.3065   48.8638   25.7037 H   0  0  0  0  0  0
   -3.9339   49.5301   27.2004 H   0  0  0  0  0  0
   -4.1900   52.5671   26.1612 H   0  0  0  0  0  0
   -3.5619   52.0942   27.7306 H   0  0  0  0  0  0
   -2.5844   53.0815   26.6516 H   0  0  0  0  0  0
    0.5663   51.0675   28.3409 H   0  0  0  0  0  0
    4.2990   54.4546   27.8637 H   0  0  0  0  0  0
    4.9871   52.7246   29.3255 H   0  0  0  0  0  0
    4.5033   52.2272   30.9320 H   0  0  0  0  0  0
  1  2  1  0  0  0
  1 30  1  0  0  0
  1 31  1  0  0  0
  1 32  1  0  0  0
  2  3  1  0  0  0
  2  4  1  0  0  0
  2 33  1  0  0  0
  3 34  1  0  0  0
  3 35  1  0  0  0
  3 36  1  0  0  0
  4  9  2  0  0  0
  4  5  1  0  0  0
  5  6  2  0  0  0
  5 37  1  0  0  0
  6  7  1  0  0  0
  6 38  1  0  0  0
  7  8  2  0  0  0
  7 10  1  0  0  0
  8  9  1  0  0  0
  8 39  1  0  0  0
  9 40  1  0  0  0
 10 11  1  0  0  0
 10 23  1  0  0  0
 10 12  1  0  0  0
 12 17  1  0  0  0
 12 13  2  0  0  0
 13 14  1  0  0  0
 13 21  1  0  0  0
 14 15  1  0  0  0
 14 41  1  0  0  0
 14 42  1  0  0  0
 15 16  1  0  0  0
 15 19  1  0  0  0
 15 20  1  0  0  0
 16 17  1  0  0  0
 16 43  1  0  0  0
 16 44  1  0  0  0
 17 18  2  0  0  0
 19 45  1  0  0  0
 19 46  1  0  0  0
 19 47  1  0  0  0
 20 48  1  0  0  0
 20 49  1  0  0  0
 20 50  1  0  0  0
 21 22  1  0  0  0
 21 51  1  0  0  0
 22 26  2  0  0  0
 22 23  1  0  0  0
 23 24  1  0  0  0
 24 25  2  0  0  0
 25 26  1  0  0  0
 25 52  1  0  0  0
 26 27  1  0  0  0
 27 28  2  0  0  0
 27 29  1  0  0  0
 29 53  1  0  0  0
 29 54  1  0  0  0
M  END
> <i_i_glide_confnum>
2

> <i_i_glide_lignum>
3585

> <i_i_glide_posenum>
323

> <i_i_glide_rotatable_bonds>
3

> <i_m_Source_File_Index>
2895

> <b_m_subgroup_collapsed>
0

> <r_i_docking_score>
-5.11065

> <r_i_glide_ecoul>
-4.35423

> <r_i_glide_eff_state_penalty>
0

> <r_i_glide_einternal>
3.60814

> <r_i_glide_emodel>
-49.0591

> <r_i_glide_energy>
-37.8637

> <r_i_glide_erotb>
0.135296

> <r_i_glide_esite>
0

> <r_i_glide_evdw>
-33.5095

> <r_i_glide_gscore>
-5.11065

> <r_i_glide_hbond>
-0.237343

> <r_i_glide_ligand_efficiency>
-0.182523

> <r_i_glide_ligand_efficiency_ln>
-1.17969

> <r_i_glide_ligand_efficiency_sa>
-0.554248

> <r_i_glide_lipo>
-1.39164

> <r_i_glide_metal>
0

> <r_i_glide_rewards>
-1.28836

> <s_i_glide_gridfile>
wee1_glide-grid

> <s_m_Source_File>
wee1_decoys_glide_SP.sdf

> <s_m_Source_Path>
/Users/zhangxujun/Desktop

> <s_m_entry_id>
3170

> <s_m_entry_name>
wee1_decoys_glide_SP.2895

> <s_m_subgroup_title>
wee1_decoys_glide_SP

> <s_m_subgroupid>
wee1_decoys_glide_SP


$$$$
