@<TRIPOS>MOLECULE
ZINC39656999_3676
59   62    1
SMALL
USER_CHARGES


@<TRIPOS>ATOM
      1 C1          5.0090   54.2394   24.9765 C.3       1 UNK         0.0000 
      2 C2          3.4950   54.1164   25.2976 C.3       1 UNK         0.0000 
      3 H3          3.1059   55.1336   25.2339 H         1 UNK         0.0000 
      4 C4          3.1857   53.6837   26.7482 C.ar      1 UNK         0.0000 
      5 C5          4.1921   53.6228   27.7266 C.ar      1 UNK         0.0000 
      6 C6          3.9125   53.1608   29.0077 C.ar      1 UNK         0.0000 
      7 C7          2.6214   52.7566   29.3323 C.ar      1 UNK         0.0000 
      8 C8          1.6035   52.8247   28.3836 C.ar      1 UNK         0.0000 
      9 C9          1.8857   53.2851   27.0989 C.ar      1 UNK         0.0000 
     10 Br10        2.2524   52.0968   31.0787 Br        1 UNK         0.0000 
     11 N11         2.7331   53.3303   24.3047 N.am      1 UNK         0.0000 
     12 C12         2.6324   53.5966   22.9885 C.2       1 UNK         0.0000 
     13 O13         3.2719   54.4968   22.4613 O.2       1 UNK         0.0000 
     14 C14         1.7050   52.7307   22.0946 C.3       1 UNK         0.0000 
     15 H15         1.4025   53.3793   21.2818 H         1 UNK         0.0000 
     16 C16         0.4197   52.2702   22.7934 C.3       1 UNK         0.0000 
     17 N17         0.7336   50.9077   23.2296 N.am      1 UNK         0.0000 
     18 C18         1.9587   50.3999   22.5887 C.3       1 UNK         0.0000 
     19 C19         2.3693   51.4454   21.5222 C.3       1 UNK         0.0000 
     20 C20         1.7255   50.9547   20.1870 C.3       1 UNK         0.0000 
     21 C21         1.9823   51.9008   18.9919 C.3       1 UNK         0.0000 
     22 N22         3.5044   52.0968   18.8102 N.4       1 UNK         0.0000 
     23 C23         4.2355   52.5081   20.1006 C.3       1 UNK         0.0000 
     24 C24         3.8933   51.4769   21.1990 C.3       1 UNK         0.0000 
     25 C25         0.2107   50.2938   24.3248 C.2       1 UNK         0.0000 
     26 O26         0.7030   49.2611   24.7769 O.2       1 UNK         0.0000 
     27 C27        -0.9522   50.9197   25.0686 C.ar      1 UNK         0.0000 
     28 C28        -0.9471   50.8786   26.4727 C.ar      1 UNK         0.0000 
     29 C29        -2.0031   51.4062   27.2109 C.ar      1 UNK         0.0000 
     30 C30        -3.0863   51.9821   26.5547 C.ar      1 UNK         0.0000 
     31 C31        -3.1318   52.0023   25.1634 C.ar      1 UNK         0.0000 
     32 C32        -2.0858   51.4479   24.4176 C.ar      1 UNK         0.0000 
     33 F33        -2.2156   51.3909   23.0705 F         1 UNK         0.0000 
     34 Cl34       -4.5027   52.6993   24.3771 Cl        1 UNK         0.0000 
     35 H35         5.4828   54.9956   25.6025 H         1 UNK         0.0000 
     36 H36         5.5316   53.2968   25.1356 H         1 UNK         0.0000 
     37 H37         5.2081   54.5480   23.9519 H         1 UNK         0.0000 
     38 H38         5.2118   53.9045   27.5131 H         1 UNK         0.0000 
     39 H39         4.7037   53.0977   29.7396 H         1 UNK         0.0000 
     40 H40         0.6017   52.5104   28.6409 H         1 UNK         0.0000 
     41 H41         1.0830   53.3163   26.3752 H         1 UNK         0.0000 
     42 H42         2.1905   52.5644   24.6749 H         1 UNK         0.0000 
     43 H43         0.1329   52.9805   23.5719 H         1 UNK         0.0000 
     44 H44        -0.3297   52.2491   22.0016 H         1 UNK         0.0000 
     45 H45         1.9403   49.3646   22.2448 H         1 UNK         0.0000 
     46 H46         2.7049   50.4191   23.3777 H         1 UNK         0.0000 
     47 H47         2.0728   49.9504   19.9351 H         1 UNK         0.0000 
     48 H48         0.6463   50.8448   20.3081 H         1 UNK         0.0000 
     49 H49         1.6187   51.4877   18.0498 H         1 UNK         0.0000 
     50 H50         1.5582   52.8967   19.1251 H         1 UNK         0.0000 
     51 H51         3.9673   51.2421   18.4823 H         1 UNK         0.0000 
     52 H52         5.2963   52.5099   19.8477 H         1 UNK         0.0000 
     53 H53         3.9179   53.5283   20.3118 H         1 UNK         0.0000 
     54 H54         4.4787   51.7230   22.0816 H         1 UNK         0.0000 
     55 H55         4.2513   50.4962   20.8978 H         1 UNK         0.0000 
     56 H56        -0.1305   50.4145   27.0105 H         1 UNK         0.0000 
     57 H57        -1.9838   51.3484   28.2913 H         1 UNK         0.0000 
     58 H58        -3.9053   52.3891   27.1298 H         1 UNK         0.0000 
     59 H59         3.6799   52.7775   18.0846 H         1 UNK         0.0000 
@<TRIPOS>BOND
     1    1    2 1    
     2    1   35 1    
     3    1   36 1    
     4    1   37 1    
     5    2    3 1    
     6    2    4 1    
     7    2   11 1    
     8    4    9 ar   
     9    4    5 ar   
    10    5    6 ar   
    11    5   38 1    
    12    6    7 ar   
    13    6   39 1    
    14    7    8 ar   
    15    7   10 1    
    16    8    9 ar   
    17    8   40 1    
    18    9   41 1    
    19   11   12 am   BACKBONE|DICT|INTERRES
    20   11   42 1    
    21   12   13 2    
    22   12   14 1    
    23   14   15 1    
    24   14   19 1    
    25   14   16 1    
    26   16   17 1    
    27   16   43 1    
    28   16   44 1    
    29   17   18 1    
    30   17   25 am   BACKBONE|DICT|INTERRES
    31   18   19 1    
    32   18   45 1    
    33   18   46 1    
    34   19   24 1    
    35   19   20 1    
    36   20   21 1    
    37   20   47 1    
    38   20   48 1    
    39   21   22 1    
    40   21   49 1    
    41   21   50 1    
    42   22   23 1    
    43   22   51 1    
    44   22   59 1    
    45   23   24 1    
    46   23   52 1    
    47   23   53 1    
    48   24   54 1    
    49   24   55 1    
    50   25   26 2    
    51   25   27 1    
    52   27   32 ar   
    53   27   28 ar   
    54   28   29 ar   
    55   28   56 1    
    56   29   30 ar   
    57   29   57 1    
    58   30   31 ar   
    59   30   58 1    
    60   31   32 ar   
    61   31   34 1    
    62   32   33 1    
@<TRIPOS>SUBSTRUCTURE
     1 UNK         1 GROUP             0       ****    0 ROOT    
