@<TRIPOS>MOLECULE
ZINC62535612_6179
38   39    1
SMALL
USER_CHARGES


@<TRIPOS>ATOM
      1 C1          5.5845   53.6974   26.2979 C.3       1 UNK         0.0000 
      2 C2          4.4843   54.5987   25.7042 C.3       1 UNK         0.0000 
      3 H3          4.9169   55.5879   25.5492 H         1 UNK         0.0000 
      4 C4          4.0713   54.0978   24.2829 C.2       1 UNK         0.0000 
      5 O5          4.8198   54.2316   23.3103 O.2       1 UNK         0.0000 
      6 N6          2.8385   53.5147   24.2547 N.am      1 UNK         0.0000 
      7 C7          2.1113   53.1401   25.4076 C.ar      1 UNK         0.0000 
      8 C8          1.0796   52.1909   25.3818 C.ar      1 UNK         0.0000 
      9 C9          0.4017   51.8550   26.5499 C.ar      1 UNK         0.0000 
     10 C10         0.7211   52.4856   27.7488 C.ar      1 UNK         0.0000 
     11 C11         1.7222   53.4689   27.8199 C.ar      1 UNK         0.0000 
     12 C12         2.4217   53.7594   26.6264 C.ar      1 UNK         0.0000 
     13 O13         3.3876   54.7457   26.6262 O.3       1 UNK         0.0000 
     14 C14         2.0355   54.2009   29.1612 C.3       1 UNK         0.0000 
     15 C15         3.5111   53.9519   29.5705 C.3       1 UNK         0.0000 
     16 C16         1.1415   53.7195   30.3402 C.3       1 UNK         0.0000 
     17 C17         1.7751   55.7232   29.0200 C.3       1 UNK         0.0000 
     18 N18        -0.5992   50.8882   26.5217 N.pl3     1 UNK         0.0000 
     19 C19         2.3456   53.0514   22.9425 C.3       1 UNK         0.0000 
     20 H20         6.4009   53.5196   25.5935 H         1 UNK         0.0000 
     21 H21         6.0194   54.1570   27.1854 H         1 UNK         0.0000 
     22 H22         5.1799   52.7337   26.6028 H         1 UNK         0.0000 
     23 H23         0.8096   51.6835   24.4681 H         1 UNK         0.0000 
     24 H24         0.1581   52.1977   28.6226 H         1 UNK         0.0000 
     25 H25         4.2256   54.2984   28.8237 H         1 UNK         0.0000 
     26 H26         3.7685   54.4838   30.4823 H         1 UNK         0.0000 
     27 H27         3.7054   52.8904   29.7367 H         1 UNK         0.0000 
     28 H28         0.0786   53.8528   30.1251 H         1 UNK         0.0000 
     29 H29         1.3077   52.6664   30.5738 H         1 UNK         0.0000 
     30 H30         1.3275   54.2802   31.2555 H         1 UNK         0.0000 
     31 H31         0.7264   55.9257   28.8330 H         1 UNK         0.0000 
     32 H32         2.0535   56.2689   29.9238 H         1 UNK         0.0000 
     33 H33         2.3072   56.1867   28.1970 H         1 UNK         0.0000 
     34 H34        -0.9047   50.4943   27.4048 H         1 UNK         0.0000 
     35 H35        -0.6399   50.2819   25.7143 H         1 UNK         0.0000 
     36 H36         2.8620   53.5139   22.0981 H         1 UNK         0.0000 
     37 H37         2.4624   51.9703   22.8517 H         1 UNK         0.0000 
     38 H38         1.2866   53.2920   22.8241 H         1 UNK         0.0000 
@<TRIPOS>BOND
     1    1    2 1    
     2    1   20 1    
     3    1   21 1    
     4    1   22 1    
     5    2    3 1    
     6    2   13 1    
     7    2    4 1    
     8    4    5 2    
     9    4    6 am   BACKBONE|DICT|INTERRES
    10    6    7 1    
    11    6   19 1    
    12    7   12 ar   
    13    7    8 ar   
    14    8    9 ar   
    15    8   23 1    
    16    9   10 ar   
    17    9   18 1    
    18   10   11 ar   
    19   10   24 1    
    20   11   12 ar   
    21   11   14 1    
    22   12   13 1    
    23   14   15 1    
    24   14   16 1    
    25   14   17 1    
    26   15   25 1    
    27   15   26 1    
    28   15   27 1    
    29   16   28 1    
    30   16   29 1    
    31   16   30 1    
    32   17   31 1    
    33   17   32 1    
    34   17   33 1    
    35   18   34 1    
    36   18   35 1    
    37   19   36 1    
    38   19   37 1    
    39   19   38 1    
@<TRIPOS>SUBSTRUCTURE
     1 UNK         1 GROUP             0       ****    0 ROOT    
