@<TRIPOS>MOLECULE
ZINC37064377_3581
35   36    1
SMALL
USER_CHARGES


@<TRIPOS>ATOM
      1 C1          6.8672   54.7671   26.6662 C.3       1 UNK         0.0000 
      2 C2          5.4160   54.3714   26.4264 C.ar      1 UNK         0.0000 
      3 C3          4.9240   54.4872   25.1274 C.ar      1 UNK         0.0000 
      4 C4          3.6179   54.1222   24.8435 C.ar      1 UNK         0.0000 
      5 C5          2.7947   53.6157   25.8445 C.ar      1 UNK         0.0000 
      6 C6          3.2620   53.4552   27.1652 C.ar      1 UNK         0.0000 
      7 C7          4.5825   53.8873   27.4569 C.ar      1 UNK         0.0000 
      8 C8          5.1137   53.9063   28.8857 C.3       1 UNK         0.0000 
      9 S9          2.1643   52.7650   28.4681 S.o2      1 UNK         0.0000 
     10 O10         2.9938   52.2217   29.5500 O.2       1 UNK         0.0000 
     11 O11         1.1722   53.8023   28.7651 O.2       1 UNK         0.0000 
     12 N12         1.3201   51.3006   27.8696 N.pl3     1 UNK         0.0000 
     13 C13         0.1214   51.2273   27.1345 C.ar      1 UNK         0.0000 
     14 C14        -0.8994   52.1800   27.2618 C.ar      1 UNK         0.0000 
     15 C15        -2.0550   52.0956   26.4819 C.ar      1 UNK         0.0000 
     16 C16        -2.2175   51.0456   25.5840 C.ar      1 UNK         0.0000 
     17 C17        -1.2274   50.0752   25.4679 C.ar      1 UNK         0.0000 
     18 C18        -0.0678   50.1560   26.2408 C.ar      1 UNK         0.0000 
     19 Cl19        1.1038   48.8969   26.0802 Cl        1 UNK         0.0000 
     20 F20        -3.3367   50.9648   24.8306 F         1 UNK         0.0000 
     21 N21         1.5033   53.2966   25.4528 N.pl3     1 UNK         0.0000 
     22 H22         7.4200   54.8874   25.7332 H         1 UNK         0.0000 
     23 H23         6.9179   55.6966   27.2337 H         1 UNK         0.0000 
     24 H24         7.3829   53.9941   27.2388 H         1 UNK         0.0000 
     25 H25         5.5507   54.8629   24.3327 H         1 UNK         0.0000 
     26 H26         3.2555   54.2334   23.8306 H         1 UNK         0.0000 
     27 H27         4.3499   54.2714   29.5721 H         1 UNK         0.0000 
     28 H28         5.9486   54.5851   29.0322 H         1 UNK         0.0000 
     29 H29         5.4194   52.9054   29.1908 H         1 UNK         0.0000 
     30 H30         1.8114   50.4312   28.0057 H         1 UNK         0.0000 
     31 H31        -0.8307   52.9916   27.9627 H         1 UNK         0.0000 
     32 H32        -2.8304   52.8402   26.5800 H         1 UNK         0.0000 
     33 H33        -1.3667   49.2479   24.7886 H         1 UNK         0.0000 
     34 H34         0.8863   52.8457   26.1119 H         1 UNK         0.0000 
     35 H35         1.2595   53.3528   24.4740 H         1 UNK         0.0000 
@<TRIPOS>BOND
     1    1    2 1    
     2    1   22 1    
     3    1   23 1    
     4    1   24 1    
     5    2    7 ar   
     6    2    3 ar   
     7    3    4 ar   
     8    3   25 1    
     9    4    5 ar   
    10    4   26 1    
    11    5    6 ar   
    12    5   21 1    
    13    6    7 ar   
    14    6    9 1    
    15    7    8 1    
    16    8   27 1    
    17    8   28 1    
    18    8   29 1    
    19    9   10 2    
    20    9   11 2    
    21    9   12 1    
    22   12   13 1    
    23   12   30 1    
    24   13   18 ar   
    25   13   14 ar   
    26   14   15 ar   
    27   14   31 1    
    28   15   16 ar   
    29   15   32 1    
    30   16   17 ar   
    31   16   20 1    
    32   17   18 ar   
    33   17   33 1    
    34   18   19 1    
    35   21   34 1    
    36   21   35 1    
@<TRIPOS>SUBSTRUCTURE
     1 UNK         1 GROUP             0       ****    0 ROOT    
