@<TRIPOS>MOLECULE
ZINC39678226_2210
76   79    1
SMALL
USER_CHARGES


@<TRIPOS>ATOM
      1 C1         -4.1151   45.1676   26.0773 C.3       1 UNK         0.0000 
      2 C2         -3.6907   46.6263   25.8585 C.3       1 UNK         0.0000 
      3 C3         -2.6208   46.8477   24.7550 C.3       1 UNK         0.0000 
      4 C4         -2.3285   48.3512   24.4070 C.3       1 UNK         0.0000 
      5 H5         -3.2941   48.7686   24.1186 H         1 UNK         0.0000 
      6 C6         -1.8923   49.1208   25.6810 C.3       1 UNK         0.0000 
      7 C7         -1.4619   48.5352   23.1050 C.2       1 UNK         0.0000 
      8 O8         -1.4658   47.6072   22.2909 O.2       1 UNK         0.0000 
      9 N9         -0.7577   49.6705   22.8156 N.am      1 UNK         0.0000 
     10 C10        -0.6788   50.8671   23.6428 C.3       1 UNK         0.0000 
     11 C11         0.1070   51.9204   22.8309 C.3       1 UNK         0.0000 
     12 H12        -0.6020   52.6674   22.4752 H         1 UNK         0.0000 
     13 C13         0.7668   51.1492   21.6372 C.3       1 UNK         0.0000 
     14 C14        -0.0994   49.8699   21.5193 C.3       1 UNK         0.0000 
     15 C15         0.7766   52.0137   20.3496 C.3       1 UNK         0.0000 
     16 C16         1.2425   51.2244   19.1117 C.3       1 UNK         0.0000 
     17 N17         2.7045   50.8010   19.3522 N.4       1 UNK         0.0000 
     18 C18         2.9355   50.0566   20.6868 C.3       1 UNK         0.0000 
     19 C19         2.2654   50.7841   21.8718 C.3       1 UNK         0.0000 
     20 C20         1.0915   52.6418   23.8025 C.2       1 UNK         0.0000 
     21 O21         1.5039   52.0963   24.8257 O.2       1 UNK         0.0000 
     22 N22         1.4524   53.8966   23.4979 N.am      1 UNK         0.0000 
     23 C23         2.4736   54.6415   24.2466 C.3       1 UNK         0.0000 
     24 C24         3.9276   54.3728   23.8270 C.ar      1 UNK         0.0000 
     25 C25         4.1579   54.0966   22.4672 C.ar      1 UNK         0.0000 
     26 C26         5.4452   53.9854   21.9615 C.ar      1 UNK         0.0000 
     27 C27         6.5268   54.1585   22.8117 C.ar      1 UNK         0.0000 
     28 C28         6.3226   54.4116   24.1504 C.ar      1 UNK         0.0000 
     29 C29         5.0375   54.4967   24.7103 C.ar      1 UNK         0.0000 
     30 N30         4.9349   54.7368   26.0847 N.pl3     1 UNK         0.0000 
     31 C31         6.0617   55.2967   26.8562 C.3       1 UNK         0.0000 
     32 C32         7.0682   54.2521   27.3510 C.3       1 UNK         0.0000 
     33 C33         6.3514   53.3258   28.3096 C.3       1 UNK         0.0000 
     34 C34         5.0518   52.8131   27.6839 C.3       1 UNK         0.0000 
     35 C35         4.1715   53.8809   27.0144 C.3       1 UNK         0.0000 
     36 H36        -4.9190   45.1187   26.8116 H         1 UNK         0.0000 
     37 H37        -3.2969   44.5698   26.4818 H         1 UNK         0.0000 
     38 H38        -4.4955   44.7123   25.1622 H         1 UNK         0.0000 
     39 H39        -4.5762   47.2207   25.6271 H         1 UNK         0.0000 
     40 H40        -3.3241   46.9837   26.8203 H         1 UNK         0.0000 
     41 H41        -1.6917   46.3580   25.0498 H         1 UNK         0.0000 
     42 H42        -2.9665   46.3261   23.8614 H         1 UNK         0.0000 
     43 H43        -1.9949   50.1977   25.6126 H         1 UNK         0.0000 
     44 H44        -2.5499   48.8995   26.5088 H         1 UNK         0.0000 
     45 H45        -0.8762   48.8715   25.9921 H         1 UNK         0.0000 
     46 H46        -1.6774   51.2569   23.8408 H         1 UNK         0.0000 
     47 H47        -0.1521   50.5545   24.5434 H         1 UNK         0.0000 
     48 H48         0.4232   49.0053   21.1090 H         1 UNK         0.0000 
     49 H49        -0.9174   50.0798   20.8284 H         1 UNK         0.0000 
     50 H50        -0.2355   52.3623   20.1401 H         1 UNK         0.0000 
     51 H51         1.3751   52.9126   20.4887 H         1 UNK         0.0000 
     52 H52         0.6725   50.3137   18.9237 H         1 UNK         0.0000 
     53 H53         1.2518   51.8347   18.2057 H         1 UNK         0.0000 
     54 H54         3.0484   50.2386   18.5778 H         1 UNK         0.0000 
     55 H55         2.6040   49.0263   20.5457 H         1 UNK         0.0000 
     56 H56         4.0133   50.0967   20.8089 H         1 UNK         0.0000 
     57 H57         2.8637   51.6679   22.0898 H         1 UNK         0.0000 
     58 H58         2.3535   50.1585   22.7630 H         1 UNK         0.0000 
     59 H59         1.1346   54.3065   22.6321 H         1 UNK         0.0000 
     60 H60         2.2965   55.6967   24.0817 H         1 UNK         0.0000 
     61 H61         2.3000   54.4965   25.3060 H         1 UNK         0.0000 
     62 H62         3.3354   54.0207   21.7714 H         1 UNK         0.0000 
     63 H63         5.6009   53.7953   20.9091 H         1 UNK         0.0000 
     64 H64         7.5439   54.1014   22.4550 H         1 UNK         0.0000 
     65 H65         7.2179   54.5592   24.7257 H         1 UNK         0.0000 
     66 H66         6.5623   56.0968   26.3197 H         1 UNK         0.0000 
     67 H67         5.6315   55.6967   27.7668 H         1 UNK         0.0000 
     68 H68         7.4962   53.6529   26.5508 H         1 UNK         0.0000 
     69 H69         7.9045   54.7389   27.8466 H         1 UNK         0.0000 
     70 H70         6.1536   53.8366   29.2529 H         1 UNK         0.0000 
     71 H71         7.0227   52.4968   28.4816 H         1 UNK         0.0000 
     72 H72         4.4709   52.2621   28.4262 H         1 UNK         0.0000 
     73 H73         5.3087   52.1017   26.9131 H         1 UNK         0.0000 
     74 H74         3.6991   54.5111   27.7699 H         1 UNK         0.0000 
     75 H75         3.3698   53.3457   26.5141 H         1 UNK         0.0000 
     76 H76         3.2875   51.6263   19.3406 H         1 UNK         0.0000 
@<TRIPOS>BOND
     1    1    2 1    
     2    1   36 1    
     3    1   37 1    
     4    1   38 1    
     5    2    3 1    
     6    2   39 1    
     7    2   40 1    
     8    3    4 1    
     9    3   41 1    
    10    3   42 1    
    11    4    5 1    
    12    4    6 1    
    13    4    7 1    
    14    6   43 1    
    15    6   44 1    
    16    6   45 1    
    17    7    8 2    
    18    7    9 am   BACKBONE|DICT|INTERRES
    19    9   14 1    
    20    9   10 1    
    21   10   11 1    
    22   10   46 1    
    23   10   47 1    
    24   11   12 1    
    25   11   13 1    
    26   11   20 1    
    27   13   19 1    
    28   13   14 1    
    29   13   15 1    
    30   14   48 1    
    31   14   49 1    
    32   15   16 1    
    33   15   50 1    
    34   15   51 1    
    35   16   17 1    
    36   16   52 1    
    37   16   53 1    
    38   17   18 1    
    39   17   54 1    
    40   17   76 1    
    41   18   19 1    
    42   18   55 1    
    43   18   56 1    
    44   19   57 1    
    45   19   58 1    
    46   20   21 2    
    47   20   22 am   BACKBONE|DICT|INTERRES
    48   22   23 1    
    49   22   59 1    
    50   23   24 1    
    51   23   60 1    
    52   23   61 1    
    53   24   29 ar   
    54   24   25 ar   
    55   25   26 ar   
    56   25   62 1    
    57   26   27 ar   
    58   26   63 1    
    59   27   28 ar   
    60   27   64 1    
    61   28   29 ar   
    62   28   65 1    
    63   29   30 1    
    64   30   35 1    
    65   30   31 1    
    66   31   32 1    
    67   31   66 1    
    68   31   67 1    
    69   32   33 1    
    70   32   68 1    
    71   32   69 1    
    72   33   34 1    
    73   33   70 1    
    74   33   71 1    
    75   34   35 1    
    76   34   72 1    
    77   34   73 1    
    78   35   74 1    
    79   35   75 1    
@<TRIPOS>SUBSTRUCTURE
     1 UNK         1 GROUP             0       ****    0 ROOT    
