@<TRIPOS>MOLECULE
ZINC18201161_479
55   58    1
SMALL
USER_CHARGES


@<TRIPOS>ATOM
      1 C1          6.4128   54.1212   27.7344 C.3       1 UNK         0.0000 
      2 C2          5.0068   53.8581   27.2051 C.ar      1 UNK         0.0000 
      3 C3          4.0675   53.2967   27.9965 C.ar      1 UNK         0.0000 
      4 C4          2.7677   53.0105   27.4262 C.ar      1 UNK         0.0000 
      5 C5          2.4938   53.3171   26.1294 C.ar      1 UNK         0.0000 
      6 C6          3.4904   54.0445   25.3241 C.ar      1 UNK         0.0000 
      7 O7          3.1819   54.5002   24.2245 O.2       1 UNK         0.0000 
      8 N8          4.7472   54.2201   25.8843 N.pl3     1 UNK         0.0000 
      9 C9          5.7379   54.8860   25.0011 C.3       1 UNK         0.0000 
     10 C10         6.3775   53.9562   23.9446 C.3       1 UNK         0.0000 
     11 C11         6.2411   54.4966   22.5391 C.ar      1 UNK         0.0000 
     12 C12         7.1217   55.2988   21.8235 C.ar      1 UNK         0.0000 
     13 N13         6.5491   55.4693   20.5937 N.pl3     1 UNK         0.0000 
     14 H14         6.9211   55.9834   19.8064 H         1 UNK         0.0000 
     15 C15         5.3714   54.7757   20.6442 C.ar      1 UNK         0.0000 
     16 N16         5.1751   54.2006   21.8054 N.2       1 UNK         0.0000 
     17 C17         1.1083   52.9668   25.5077 C.3       1 UNK         0.0000 
     18 H18         0.7047   53.9021   25.1277 H         1 UNK         0.0000 
     19 C19         0.1587   52.4963   26.6316 C.2       1 UNK         0.0000 
     20 C20         0.6171   52.1946   27.8654 C.2       1 UNK         0.0000 
     21 O21         1.8951   52.3947   28.2633 O.3       1 UNK         0.0000 
     22 N22        -0.1004   51.7109   28.9260 N.pl3     1 UNK         0.0000 
     23 C23        -1.2257   52.3294   26.3257 C.1       1 UNK         0.0000 
     24 N24        -2.3513   52.2331   26.0750 N.1       1 UNK         0.0000 
     25 C25         1.1002   52.0429   24.2670 C.ar      1 UNK         0.0000 
     26 C26         0.7564   50.6880   24.3788 C.ar      1 UNK         0.0000 
     27 C27         0.6919   49.8478   23.2553 C.ar      1 UNK         0.0000 
     28 C28         1.0312   50.3696   21.9998 C.ar      1 UNK         0.0000 
     29 C29         1.3411   51.7266   21.8668 C.ar      1 UNK         0.0000 
     30 C30         1.3468   52.5538   22.9858 C.ar      1 UNK         0.0000 
     31 Br31        1.7533   52.4732   20.1643 Br        1 UNK         0.0000 
     32 O32         1.0262   49.5568   20.8911 O.3       1 UNK         0.0000 
     33 C33         2.2842   48.9500   20.6230 C.3       1 UNK         0.0000 
     34 O34         0.2931   48.5263   23.3117 O.3       1 UNK         0.0000 
     35 C35        -0.1075   47.9759   24.5611 C.3       1 UNK         0.0000 
     36 H36         6.5195   53.8062   28.7717 H         1 UNK         0.0000 
     37 H37         7.1491   53.5690   27.1487 H         1 UNK         0.0000 
     38 H38         6.6519   55.1849   27.6910 H         1 UNK         0.0000 
     39 H39         4.2854   53.0157   29.0155 H         1 UNK         0.0000 
     40 H40         5.2447   55.7044   24.4826 H         1 UNK         0.0000 
     41 H41         6.5204   55.3802   25.5707 H         1 UNK         0.0000 
     42 H42         7.4225   53.7800   24.1974 H         1 UNK         0.0000 
     43 H43         5.9172   52.9705   23.9802 H         1 UNK         0.0000 
     44 H44         8.0798   55.7281   22.0785 H         1 UNK         0.0000 
     45 H45         4.7133   54.7436   19.7875 H         1 UNK         0.0000 
     46 H46        -0.9859   51.2430   28.7888 H         1 UNK         0.0000 
     47 H47         0.2346   51.8081   29.8754 H         1 UNK         0.0000 
     48 H48         0.5322   50.2909   25.3557 H         1 UNK         0.0000 
     49 H49         1.5400   53.6029   22.8290 H         1 UNK         0.0000 
     50 H50         2.2012   48.3111   19.7436 H         1 UNK         0.0000 
     51 H51         2.6178   48.3280   21.4555 H         1 UNK         0.0000 
     52 H52         3.0527   49.6968   20.4165 H         1 UNK         0.0000 
     53 H53        -0.3822   46.9284   24.4342 H         1 UNK         0.0000 
     54 H54         0.7050   48.0199   25.2820 H         1 UNK         0.0000 
     55 H55        -0.9740   48.4957   24.9733 H         1 UNK         0.0000 
@<TRIPOS>BOND
     1    1    2 1    
     2    1   36 1    
     3    1   37 1    
     4    1   38 1    
     5    2    8 ar   
     6    2    3 ar   
     7    3    4 ar   
     8    3   39 1    
     9    4   21 1    
    10    4    5 ar   
    11    5    6 ar   
    12    5   17 1    
    13    6    7 2    
    14    6    8 ar   
    15    8    9 1    
    16    9   10 1    
    17    9   40 1    
    18    9   41 1    
    19   10   11 1    
    20   10   42 1    
    21   10   43 1    
    22   11   16 ar   
    23   11   12 ar   
    24   12   13 ar   
    25   12   44 1    
    26   13   14 1    
    27   13   15 ar   
    28   15   16 ar   
    29   15   45 1    
    30   17   18 1    
    31   17   19 1    
    32   17   25 1    
    33   19   20 2    
    34   19   23 1    
    35   20   21 1    
    36   20   22 1    
    37   22   46 1    
    38   22   47 1    
    39   23   24 3    
    40   25   30 ar   
    41   25   26 ar   
    42   26   27 ar   
    43   26   48 1    
    44   27   28 ar   
    45   27   34 1    
    46   28   29 ar   
    47   28   32 1    
    48   29   30 ar   
    49   29   31 1    
    50   30   49 1    
    51   32   33 1    
    52   33   50 1    
    53   33   51 1    
    54   33   52 1    
    55   34   35 1    
    56   35   53 1    
    57   35   54 1    
    58   35   55 1    
@<TRIPOS>SUBSTRUCTURE
     1 UNK         1 GROUP             0       ****    0 ROOT    
