ZINC13640613_5295
                    3D
 Schrodinger Suite 2024-2.
 69 73  0  0  1  0            999 V2000
    0.1281   52.7624   31.0557 C   0  0  0  0  0  0
    1.0725   53.4839   30.2713 O   0  0  0  0  0  0
    1.2006   53.2011   28.9224 C   0  0  0  0  0  0
    0.4303   52.2404   28.2448 C   0  0  0  0  0  0
    0.6074   52.0045   26.8777 C   0  0  0  0  0  0
    1.5651   52.7519   26.1857 C   0  0  0  0  0  0
    2.3575   53.7093   26.8373 C   0  0  0  0  0  0
    2.1685   53.9235   28.2102 C   0  0  0  0  0  0
    2.9224   54.8724   28.8651 O   0  0  0  0  0  0
    4.2207   54.4304   29.2426 C   0  0  0  0  0  0
    3.3232   54.4720   26.2004 O   0  0  0  0  0  0
    3.5335   54.3152   24.8010 C   0  0  0  0  0  0
   -0.2285   50.9238   26.1696 C   0  0  1  0  0  0
   -0.5331   50.2226   26.9502 H   0  0  0  0  0  0
   -1.5092   51.4649   25.4861 C   0  0  1  0  0  0
   -2.0466   50.5638   25.1647 H   0  0  0  0  0  0
   -2.5537   52.2822   26.2331 C   0  0  0  0  0  0
   -3.3016   52.8962   25.0559 C   0  0  0  0  0  0
   -2.5622   52.8419   23.9277 C   0  0  0  0  0  0
   -1.1859   52.3047   24.2595 C   0  0  2  0  0  0
   -0.5396   53.1487   24.5023 H   0  0  0  0  0  0
   -0.4049   51.4400   23.2764 C   0  0  0  0  0  0
   -0.4348   51.6581   21.8947 C   0  0  0  0  0  0
    0.3347   50.8799   21.0272 C   0  0  0  0  0  0
    1.1614   49.8798   21.5348 C   0  0  0  0  0  0
    1.2148   49.6614   22.9063 C   0  0  0  0  0  0
    0.4288   50.4148   23.7779 C   0  0  0  0  0  0
    0.5005   50.1241   25.1623 N   0  0  0  0  0  0
    0.2981   51.1917   19.2727 S   0  0  0  0  0  0
    0.8078   49.9944   18.5969 O   0  0  0  0  0  0
   -1.0340   51.7299   18.9709 O   0  0  0  0  0  0
    1.4414   52.4973   19.0274 N   0  0  0  0  0  0
    2.9037   52.3243   19.1992 C   0  0  0  0  0  0
    3.5522   53.3293   18.2120 C   0  0  0  0  0  0
    5.0581   53.5203   18.4627 C   0  0  0  0  0  0
    5.3159   53.9609   19.9150 C   0  0  0  0  0  0
    4.7180   52.9525   20.9147 C   0  0  0  0  0  0
    3.2096   52.7573   20.6619 C   0  0  0  0  0  0
    0.1716   53.1271   32.0814 H   0  0  0  0  0  0
   -0.8945   52.8967   30.6967 H   0  0  0  0  0  0
    0.3561   51.6969   31.0812 H   0  0  0  0  0  0
   -0.3106   51.6584   28.7726 H   0  0  0  0  0  0
    1.6988   52.5634   25.1324 H   0  0  0  0  0  0
    4.7762   55.2595   29.6806 H   0  0  0  0  0  0
    4.1663   53.6332   29.9861 H   0  0  0  0  0  0
    4.7964   54.0666   28.3896 H   0  0  0  0  0  0
    4.3414   54.9734   24.4826 H   0  0  0  0  0  0
    2.6419   54.5789   24.2288 H   0  0  0  0  0  0
    3.8315   53.2973   24.5508 H   0  0  0  0  0  0
   -3.1859   51.6405   26.8511 H   0  0  0  0  0  0
   -2.1059   53.0341   26.8811 H   0  0  0  0  0  0
   -4.2988   53.3013   25.1509 H   0  0  0  0  0  0
   -2.8350   53.2252   22.9557 H   0  0  0  0  0  0
   -1.0525   52.4453   21.4931 H   0  0  0  0  0  0
    1.7756   49.2860   20.8734 H   0  0  0  0  0  0
    1.8745   48.8967   23.2831 H   0  0  0  0  0  0
    1.0771   49.3776   25.5231 H   0  0  0  0  0  0
    1.1045   53.4349   19.2709 H   0  0  0  0  0  0
    3.2249   51.2868   19.0742 H   0  0  0  0  0  0
    3.3762   53.0059   17.1849 H   0  0  0  0  0  0
    3.0868   54.3108   18.3035 H   0  0  0  0  0  0
    5.5909   52.5919   18.2562 H   0  0  0  0  0  0
    5.4601   54.2615   17.7705 H   0  0  0  0  0  0
    6.3804   54.0968   20.0819 H   0  0  0  0  0  0
    4.8675   54.9416   20.0796 H   0  0  0  0  0  0
    5.2311   51.9933   20.8220 H   0  0  0  0  0  0
    4.8851   53.2931   21.9375 H   0  0  0  0  0  0
    2.7064   53.6966   20.8950 H   0  0  0  0  0  0
    2.8163   52.0314   21.3695 H   0  0  0  0  0  0
  1  2  1  0  0  0
  1 39  1  0  0  0
  1 40  1  0  0  0
  1 41  1  0  0  0
  2  3  1  0  0  0
  3  8  2  0  0  0
  3  4  1  0  0  0
  4  5  2  0  0  0
  4 42  1  0  0  0
  5  6  1  0  0  0
  5 13  1  0  0  0
  6  7  2  0  0  0
  6 43  1  0  0  0
  7  8  1  0  0  0
  7 11  1  0  0  0
  8  9  1  0  0  0
  9 10  1  0  0  0
 10 44  1  0  0  0
 10 45  1  0  0  0
 10 46  1  0  0  0
 11 12  1  0  0  0
 12 47  1  0  0  0
 12 48  1  0  0  0
 12 49  1  0  0  0
 13 14  1  0  0  0
 13 28  1  0  0  0
 13 15  1  0  0  0
 15 16  1  0  0  0
 15 20  1  0  0  0
 15 17  1  0  0  0
 17 18  1  0  0  0
 17 50  1  0  0  0
 17 51  1  0  0  0
 18 19  2  0  0  0
 18 52  1  0  0  0
 19 20  1  0  0  0
 19 53  1  0  0  0
 20 21  1  0  0  0
 20 22  1  0  0  0
 22 27  2  0  0  0
 22 23  1  0  0  0
 23 24  2  0  0  0
 23 54  1  0  0  0
 24 25  1  0  0  0
 24 29  1  0  0  0
 25 26  2  0  0  0
 25 55  1  0  0  0
 26 27  1  0  0  0
 26 56  1  0  0  0
 27 28  1  0  0  0
 28 57  1  0  0  0
 29 30  2  0  0  0
 29 31  2  0  0  0
 29 32  1  0  0  0
 32 33  1  0  0  0
 32 58  1  0  0  0
 33 38  1  0  0  0
 33 34  1  0  0  0
 33 59  1  0  0  0
 34 35  1  0  0  0
 34 60  1  0  0  0
 34 61  1  0  0  0
 35 36  1  0  0  0
 35 62  1  0  0  0
 35 63  1  0  0  0
 36 37  1  0  0  0
 36 64  1  0  0  0
 36 65  1  0  0  0
 37 38  1  0  0  0
 37 66  1  0  0  0
 37 67  1  0  0  0
 38 68  1  0  0  0
 38 69  1  0  0  0
M  END
> <i_i_glide_confnum>
1

> <i_i_glide_lignum>
5296

> <i_i_glide_posenum>
83

> <i_i_glide_rotatable_bonds>
7

> <i_m_Source_File_Index>
465

> <b_m_subgroup_collapsed>
0

> <r_i_docking_score>
-4.63824

> <r_i_glide_ecoul>
-4.72768

> <r_i_glide_eff_state_penalty>
0

> <r_i_glide_einternal>
4.19269

> <r_i_glide_emodel>
-55.3341

> <r_i_glide_energy>
-44.3509

> <r_i_glide_erotb>
0.328307

> <r_i_glide_esite>
-0.0998555

> <r_i_glide_evdw>
-39.6232

> <r_i_glide_gscore>
-4.63824

> <r_i_glide_hbond>
-0.32

> <r_i_glide_ligand_efficiency>
-0.132521

> <r_i_glide_ligand_efficiency_ln>
-1.0182

> <r_i_glide_ligand_efficiency_sa>
-0.433486

> <r_i_glide_lipo>
-1.89863

> <r_i_glide_metal>
0

> <r_i_glide_rewards>
0.0422479

> <s_i_glide_gridfile>
wee1_glide-grid

> <s_m_Source_File>
wee1_decoys_glide_SP.sdf

> <s_m_Source_Path>
/Users/zhangxujun/Desktop

> <s_m_entry_id>
740

> <s_m_entry_name>
wee1_decoys_glide_SP.465

> <s_m_subgroup_title>
wee1_decoys_glide_SP

> <s_m_subgroupid>
wee1_decoys_glide_SP


$$$$
