ZINC38847429_1095
                    3D
 Schrodinger Suite 2024-2.
 68 71  0  0  1  0            999 V2000
    4.7136   54.4933   28.7920 C   0  0  0  0  0  0
    5.0351   54.4288   27.3102 C   0  0  0  0  0  0
    6.3643   54.5382   26.8909 C   0  0  0  0  0  0
    6.7045   54.5155   25.5378 C   0  0  0  0  0  0
    5.6821   54.3744   24.5966 C   0  0  0  0  0  0
    4.3355   54.2608   25.0196 C   0  0  0  0  0  0
    3.9987   54.2866   26.3815 C   0  0  0  0  0  0
    3.3134   54.0952   23.5989 S   0  0  0  0  0  0
    4.7560   54.2342   22.5901 C   0  0  0  0  0  0
    5.8812   54.3408   23.2565 N   0  0  0  0  0  0
    4.6487   54.2650   21.1824 N   0  0  0  0  0  0
    3.5920   53.4268   20.5802 C   0  0  0  0  0  0
    4.1202   52.0418   20.1512 C   0  0  0  0  0  0
    3.1044   51.2674   19.2815 N   0  3  0  0  0  0
    1.8848   50.7447   20.0663 C   0  0  0  0  0  0
    2.7090   51.9784   17.9698 C   0  0  0  0  0  0
    5.5376   54.9784   20.4045 C   0  0  0  0  0  0
    6.3790   55.7453   20.8848 O   0  0  0  0  0  0
    5.5125   54.8831   18.8484 C   0  0  0  0  0  0
    5.2095   56.2714   18.2300 C   0  0  0  0  0  0
    5.1766   56.1530   16.6895 C   0  0  0  0  0  0
    6.3815   55.4700   16.1449 N   0  0  0  0  0  0
    6.8233   54.2158   16.8098 C   0  0  0  0  0  0
    6.8795   54.3575   18.3429 C   0  0  0  0  0  0
    7.5349   56.3983   15.1724 S   0  0  0  0  0  0
    8.5573   55.4792   14.6561 O   0  0  0  0  0  0
    6.7686   57.2638   14.2676 O   0  0  0  0  0  0
    8.3572   57.4777   16.3420 C   0  0  0  0  0  0
    7.9431   58.8027   16.4793 C   0  0  0  0  0  0
    8.6213   59.6486   17.3511 C   0  0  0  0  0  0
    9.6956   59.1790   18.1039 C   0  0  0  0  0  0
   10.0857   57.8326   17.9856 C   0  0  0  0  0  0
    9.4194   56.9867   17.1017 C   0  0  0  0  0  0
   10.3038   60.0969   18.9381 O   0  0  0  0  0  0
   11.4035   59.6778   19.7378 C   0  0  0  0  0  0
    3.7466   54.9706   28.9613 H   0  0  0  0  0  0
    4.6918   53.4899   29.2237 H   0  0  0  0  0  0
    5.4539   55.0908   29.3287 H   0  0  0  0  0  0
    7.1442   54.6461   27.6327 H   0  0  0  0  0  0
    7.7258   54.5969   25.2044 H   0  0  0  0  0  0
    2.9700   54.1982   26.7013 H   0  0  0  0  0  0
    2.7568   53.2733   21.2620 H   0  0  0  0  0  0
    3.1283   53.9632   19.7533 H   0  0  0  0  0  0
    5.0197   52.0983   19.5363 H   0  0  0  0  0  0
    4.3483   51.3979   21.0033 H   0  0  0  0  0  0
    1.3070   51.6078   20.4048 H   0  0  0  0  0  0
    1.3049   50.1197   19.3838 H   0  0  0  0  0  0
    2.2585   50.1569   20.9068 H   0  0  0  0  0  0
    2.0834   52.8423   18.2042 H   0  0  0  0  0  0
    3.6356   52.2630   17.4675 H   0  0  0  0  0  0
    2.1699   51.2464   17.3644 H   0  0  0  0  0  0
    4.7443   54.1861   18.5370 H   0  0  0  0  0  0
    4.2215   56.6345   18.5158 H   0  0  0  0  0  0
    5.9785   57.0071   18.4742 H   0  0  0  0  0  0
    4.2950   55.6211   16.3302 H   0  0  0  0  0  0
    5.1144   57.1510   16.2516 H   0  0  0  0  0  0
    6.1572   53.4110   16.4957 H   0  0  0  0  0  0
    7.8099   53.9428   16.4342 H   0  0  0  0  0  0
    7.6952   55.0463   18.5722 H   0  0  0  0  0  0
    7.0960   53.3592   18.7237 H   0  0  0  0  0  0
    7.1106   59.1920   15.9095 H   0  0  0  0  0  0
    8.3035   60.6757   17.4397 H   0  0  0  0  0  0
   10.9027   57.4262   18.5622 H   0  0  0  0  0  0
    9.7343   55.9562   17.0079 H   0  0  0  0  0  0
   11.7705   60.5189   20.3237 H   0  0  0  0  0  0
   11.1040   58.8962   20.4355 H   0  0  0  0  0  0
   12.2312   59.3139   19.1257 H   0  0  0  0  0  0
    3.6498   50.4728   18.9464 H   0  0  0  0  0  0
  1  2  1  0  0  0
  1 36  1  0  0  0
  1 37  1  0  0  0
  1 38  1  0  0  0
  2  7  2  0  0  0
  2  3  1  0  0  0
  3  4  2  0  0  0
  3 39  1  0  0  0
  4  5  1  0  0  0
  4 40  1  0  0  0
  5 10  1  0  0  0
  5  6  2  0  0  0
  6  7  1  0  0  0
  6  8  1  0  0  0
  7 41  1  0  0  0
  8  9  1  0  0  0
  9 10  2  0  0  0
  9 11  1  0  0  0
 11 12  1  0  0  0
 11 17  1  0  0  0
 12 13  1  0  0  0
 12 42  1  0  0  0
 12 43  1  0  0  0
 13 14  1  0  0  0
 13 44  1  0  0  0
 13 45  1  0  0  0
 14 15  1  0  0  0
 14 16  1  0  0  0
 14 68  1  0  0  0
 15 46  1  0  0  0
 15 47  1  0  0  0
 15 48  1  0  0  0
 16 49  1  0  0  0
 16 50  1  0  0  0
 16 51  1  0  0  0
 17 18  2  0  0  0
 17 19  1  0  0  0
 19 24  1  0  0  0
 19 20  1  0  0  0
 19 52  1  0  0  0
 20 21  1  0  0  0
 20 53  1  0  0  0
 20 54  1  0  0  0
 21 22  1  0  0  0
 21 55  1  0  0  0
 21 56  1  0  0  0
 22 23  1  0  0  0
 22 25  1  0  0  0
 23 24  1  0  0  0
 23 57  1  0  0  0
 23 58  1  0  0  0
 24 59  1  0  0  0
 24 60  1  0  0  0
 25 26  2  0  0  0
 25 27  2  0  0  0
 25 28  1  0  0  0
 28 33  2  0  0  0
 28 29  1  0  0  0
 29 30  2  0  0  0
 29 61  1  0  0  0
 30 31  1  0  0  0
 30 62  1  0  0  0
 31 32  2  0  0  0
 31 34  1  0  0  0
 32 33  1  0  0  0
 32 63  1  0  0  0
 33 64  1  0  0  0
 34 35  1  0  0  0
 35 65  1  0  0  0
 35 66  1  0  0  0
 35 67  1  0  0  0
M  CHG  1  14   1
M  END
> <i_i_glide_confnum>
108

> <i_i_glide_lignum>
1096

> <i_i_glide_posenum>
311

> <i_i_glide_rotatable_bonds>
9

> <i_m_Source_File_Index>
1778

> <b_m_subgroup_collapsed>
0

> <r_i_docking_score>
-5.55034

> <r_i_glide_ecoul>
-6.2141

> <r_i_glide_eff_state_penalty>
0

> <r_i_glide_einternal>
12.0726

> <r_i_glide_emodel>
-60.6311

> <r_i_glide_energy>
-46.9698

> <r_i_glide_erotb>
0.536328

> <r_i_glide_esite>
-0.100115

> <r_i_glide_evdw>
-40.7557

> <r_i_glide_gscore>
-5.55034

> <r_i_glide_hbond>
-0.293078

> <r_i_glide_ligand_efficiency>
-0.158581

> <r_i_glide_ligand_efficiency_ln>
-1.21842

> <r_i_glide_ligand_efficiency_sa>
-0.51873

> <r_i_glide_lipo>
-2.40305

> <r_i_glide_metal>
0

> <r_i_glide_rewards>
-0.320529

> <s_i_glide_gridfile>
wee1_glide-grid

> <s_m_Source_File>
wee1_decoys_glide_SP.sdf

> <s_m_Source_Path>
/Users/zhangxujun/Desktop

> <s_m_entry_id>
2053

> <s_m_entry_name>
wee1_decoys_glide_SP.1778

> <s_m_subgroup_title>
wee1_decoys_glide_SP

> <s_m_subgroupid>
wee1_decoys_glide_SP


$$$$
