@<TRIPOS>MOLECULE
ZINC39592692_3023
50   53    1
SMALL
USER_CHARGES


@<TRIPOS>ATOM
      1 C1          3.7957   51.9708   20.0828 C.3       1 UNK         0.0000 
      2 C2          2.4192   51.5726   20.5852 C.ar      1 UNK         0.0000 
      3 C3          2.2933   51.0030   21.8568 C.ar      1 UNK         0.0000 
      4 C4          1.0347   50.6680   22.3560 C.ar      1 UNK         0.0000 
      5 C5         -0.1045   50.8610   21.5689 C.ar      1 UNK         0.0000 
      6 C6          0.0199   51.4005   20.2901 C.ar      1 UNK         0.0000 
      7 C7          1.2742   51.7586   19.7955 C.ar      1 UNK         0.0000 
      8 Br8         1.3753   52.5011   18.0424 Br        1 UNK         0.0000 
      9 N9          0.9263   50.1388   23.6437 N.am      1 UNK         0.0000 
     10 C10         0.2998   50.7766   24.6528 C.2       1 UNK         0.0000 
     11 O11        -0.1481   51.9236   24.5547 O.2       1 UNK         0.0000 
     12 C12         0.1461   49.9815   25.9535 C.3       1 UNK         0.0000 
     13 S13        -0.6226   50.9050   27.3226 S.3       1 UNK         0.0000 
     14 C14         0.7073   52.0123   27.9094 C.3       1 UNK         0.0000 
     15 H15         0.9172   52.6234   27.0370 H         1 UNK         0.0000 
     16 N16         1.9041   51.2963   28.2228 N.2       1 UNK         0.0000 
     17 N17         2.5154   51.8549   29.1750 N.2       1 UNK         0.0000 
     18 C18         1.7860   53.0267   29.5983 C.3       1 UNK         0.0000 
     19 H19         1.7530   53.0013   30.6898 H         1 UNK         0.0000 
     20 N20         0.4413   52.8640   29.0663 N.3       1 UNK         0.0000 
     21 N21        -0.4980   52.3508   30.0333 N.3       1 UNK         0.0000 
     22 C22         2.5062   54.3444   29.1624 C.3       1 UNK         0.0000 
     23 H23         1.9728   55.2023   29.5725 H         1 UNK         0.0000 
     24 C24         2.6793   54.4886   27.6821 C.2       1 UNK         0.0000 
     25 C25         4.0003   54.4966   27.5058 C.2       1 UNK         0.0000 
     26 N26         4.6808   54.4503   28.6752 N.2       1 UNK         0.0000 
     27 N27         3.8637   54.3795   29.6494 N.2       1 UNK         0.0000 
     28 C28         4.7115   54.4886   26.2049 C.ar      1 UNK         0.0000 
     29 C29         4.0364   54.1043   25.0359 C.ar      1 UNK         0.0000 
     30 C30         4.6941   54.0977   23.8085 C.ar      1 UNK         0.0000 
     31 C31         6.0248   54.4889   23.7400 C.ar      1 UNK         0.0000 
     32 C32         6.7036   54.8802   24.8892 C.ar      1 UNK         0.0000 
     33 C33         6.0531   54.8750   26.1175 C.ar      1 UNK         0.0000 
     34 F34         6.6624   54.4999   22.5484 F         1 UNK         0.0000 
     35 H35         3.9328   53.0495   20.1653 H         1 UNK         0.0000 
     36 H36         4.5938   51.4587   20.6196 H         1 UNK         0.0000 
     37 H37         3.9038   51.7016   19.0324 H         1 UNK         0.0000 
     38 H38         3.1615   50.8467   22.4755 H         1 UNK         0.0000 
     39 H39        -1.0818   50.5980   21.9461 H         1 UNK         0.0000 
     40 H40        -0.8584   51.5450   19.6795 H         1 UNK         0.0000 
     41 H41         1.4318   49.2879   23.8441 H         1 UNK         0.0000 
     42 H42        -0.4990   49.1244   25.7539 H         1 UNK         0.0000 
     43 H43         1.1042   49.5775   26.2804 H         1 UNK         0.0000 
     44 H44        -1.3960   52.3168   29.5733 H         1 UNK         0.0000 
     45 H45        -0.2417   51.3930   30.2369 H         1 UNK         0.0000 
     46 H46         1.8802   54.5024   26.9578 H         1 UNK         0.0000 
     47 H47         3.0032   53.7915   25.0644 H         1 UNK         0.0000 
     48 H48         4.1698   53.8013   22.9119 H         1 UNK         0.0000 
     49 H49         7.7357   55.1791   24.8259 H         1 UNK         0.0000 
     50 H50         6.5941   55.1778   27.0027 H         1 UNK         0.0000 
@<TRIPOS>BOND
     1    1    2 1    
     2    1   35 1    
     3    1   36 1    
     4    1   37 1    
     5    2    7 ar   
     6    2    3 ar   
     7    3    4 ar   
     8    3   38 1    
     9    4    5 ar   
    10    4    9 1    
    11    5    6 ar   
    12    5   39 1    
    13    6    7 ar   
    14    6   40 1    
    15    7    8 1    
    16    9   10 am   BACKBONE|DICT|INTERRES
    17    9   41 1    
    18   10   11 2    
    19   10   12 1    
    20   12   13 1    
    21   12   42 1    
    22   12   43 1    
    23   13   14 1    
    24   14   15 1    
    25   14   20 1    
    26   14   16 1    
    27   16   17 2    
    28   17   18 1    
    29   18   19 1    
    30   18   20 1    
    31   18   22 1    
    32   20   21 1    
    33   21   44 1    
    34   21   45 1    
    35   22   23 1    
    36   22   27 1    
    37   22   24 1    
    38   24   25 2    
    39   24   46 1    
    40   25   26 1    
    41   25   28 1    
    42   26   27 2    
    43   28   33 ar   
    44   28   29 ar   
    45   29   30 ar   
    46   29   47 1    
    47   30   31 ar   
    48   30   48 1    
    49   31   32 ar   
    50   31   34 1    
    51   32   33 ar   
    52   32   49 1    
    53   33   50 1    
@<TRIPOS>SUBSTRUCTURE
     1 UNK         1 GROUP             0       ****    0 ROOT    
