@<TRIPOS>MOLECULE
ZINC04155831_1636
42   44    1
SMALL
USER_CHARGES


@<TRIPOS>ATOM
      1 C1          0.7045   52.5720   31.8658 C.3       1 UNK         0.0000 
      2 C2          1.4968   52.4967   30.5807 C.2       1 UNK         0.0000 
      3 O3          2.7235   52.4148   30.6408 O.2       1 UNK         0.0000 
      4 N4          0.7586   52.5004   29.4537 N.am      1 UNK         0.0000 
      5 C5          1.2091   52.5975   28.1298 C.ar      1 UNK         0.0000 
      6 C6          0.3455   52.1636   27.1196 C.ar      1 UNK         0.0000 
      7 C7          0.7071   52.3086   25.7791 C.ar      1 UNK         0.0000 
      8 C8          1.9277   52.9010   25.4462 C.ar      1 UNK         0.0000 
      9 C9          2.8046   53.2971   26.4675 C.ar      1 UNK         0.0000 
     10 C10         2.4435   53.1640   27.7961 C.ar      1 UNK         0.0000 
     11 N11         2.2428   53.0584   24.0809 N.am      1 UNK         0.0000 
     12 C12         3.0535   54.0027   23.5532 C.2       1 UNK         0.0000 
     13 O13         3.5422   54.8964   24.2367 O.2       1 UNK         0.0000 
     14 C14         3.2708   54.0635   22.0218 C.3       1 UNK         0.0000 
     15 H15         2.7211   54.9695   21.7789 H         1 UNK         0.0000 
     16 C16         2.7047   52.8859   21.1578 C.3       1 UNK         0.0000 
     17 H17         1.6174   52.8931   21.0668 H         1 UNK         0.0000 
     18 C18         3.2843   51.5058   21.5080 C.3       1 UNK         0.0000 
     19 C19         4.7703   51.6957   21.1605 C.3       1 UNK         0.0000 
     20 C20         4.8179   53.0739   20.4647 C.3       1 UNK         0.0000 
     21 H21         5.6347   53.1712   19.7480 H         1 UNK         0.0000 
     22 C22         3.4341   53.1137   19.8291 C.3       1 UNK         0.0000 
     23 C23         4.7388   54.2473   21.4762 C.3       1 UNK         0.0000 
     24 H24         4.7059   55.1441   20.8539 H         1 UNK         0.0000 
     25 C25         5.9780   54.4964   22.3754 C.2       1 UNK         0.0000 
     26 O26         6.2198   53.6802   23.2902 O.co2     1 UNK         0.0000 
     27 O27         6.7029   55.4784   22.0910 O.co2     1 UNK         0.0000 
     28 H28        -0.1304   53.2675   31.7790 H         1 UNK         0.0000 
     29 H29         1.3274   52.8965   32.6929 H         1 UNK         0.0000 
     30 H30         0.3084   51.5903   32.1136 H         1 UNK         0.0000 
     31 H31        -0.2343   52.3664   29.5646 H         1 UNK         0.0000 
     32 H32        -0.6093   51.7204   27.3641 H         1 UNK         0.0000 
     33 H33         0.0259   51.9790   25.0084 H         1 UNK         0.0000 
     34 H34         3.7803   53.7070   26.2535 H         1 UNK         0.0000 
     35 H35         3.1333   53.5232   28.5441 H         1 UNK         0.0000 
     36 H36         1.7634   52.4547   23.4321 H         1 UNK         0.0000 
     37 H37         3.1044   51.1842   22.5277 H         1 UNK         0.0000 
     38 H38         2.8411   50.7383   20.8710 H         1 UNK         0.0000 
     39 H39         5.1030   50.9104   20.4817 H         1 UNK         0.0000 
     40 H40         5.4120   51.6451   22.0399 H         1 UNK         0.0000 
     41 H41         3.2715   52.3263   19.0884 H         1 UNK         0.0000 
     42 H42         3.2029   54.0685   19.3527 H         1 UNK         0.0000 
@<TRIPOS>BOND
     1    1    2 1    
     2    1   28 1    
     3    1   29 1    
     4    1   30 1    
     5    2    3 2    
     6    2    4 am   BACKBONE|DICT|INTERRES
     7    4    5 1    
     8    4   31 1    
     9    5   10 ar   
    10    5    6 ar   
    11    6    7 ar   
    12    6   32 1    
    13    7    8 ar   
    14    7   33 1    
    15    8    9 ar   
    16    8   11 1    
    17    9   10 ar   
    18    9   34 1    
    19   10   35 1    
    20   11   12 am   BACKBONE|DICT|INTERRES
    21   11   36 1    
    22   12   13 2    
    23   12   14 1    
    24   14   15 1    
    25   14   23 1    
    26   14   16 1    
    27   16   17 1    
    28   16   22 1    
    29   16   18 1    
    30   18   19 1    
    31   18   37 1    
    32   18   38 1    
    33   19   20 1    
    34   19   39 1    
    35   19   40 1    
    36   20   21 1    
    37   20   22 1    
    38   20   23 1    
    39   22   41 1    
    40   22   42 1    
    41   23   24 1    
    42   23   25 1    
    43   25   26 2    
    44   25   27 1    
@<TRIPOS>SUBSTRUCTURE
     1 UNK         1 GROUP             0       ****    0 ROOT    
