@<TRIPOS>MOLECULE
ZINC20723365_306
49   52    1
SMALL
USER_CHARGES


@<TRIPOS>ATOM
      1 C1         -0.3263   52.0938   28.2326 C.3       1 UNK         0.0000 
      2 O2          0.9842   52.5335   27.8979 O.3       1 UNK         0.0000 
      3 C3          1.4618   53.7081   28.3783 C.2       1 UNK         0.0000 
      4 O4          0.8270   54.4562   29.1277 O.2       1 UNK         0.0000 
      5 C5          2.9205   53.8800   28.0876 C.ar      1 UNK         0.0000 
      6 C6          3.7276   54.3611   29.1286 C.ar      1 UNK         0.0000 
      7 C7          5.1041   54.5028   28.9663 C.ar      1 UNK         0.0000 
      8 C8          5.7063   54.1625   27.7651 C.ar      1 UNK         0.0000 
      9 C9          4.9192   53.7304   26.7065 C.ar      1 UNK         0.0000 
     10 C10         3.5209   53.6270   26.8331 C.ar      1 UNK         0.0000 
     11 N11         2.7454   53.2972   25.6961 N.am      1 UNK         0.0000 
     12 C12         2.9448   53.8275   24.4670 C.2       1 UNK         0.0000 
     13 O13         3.6569   54.8253   24.3185 O.2       1 UNK         0.0000 
     14 N14         2.3240   53.2264   23.4128 N.am      1 UNK         0.0000 
     15 C15         2.4021   53.9267   22.1055 C.3       1 UNK         0.0000 
     16 C16         3.4392   53.2481   21.1711 C.3       1 UNK         0.0000 
     17 C17         3.0825   51.7837   21.1212 C.ar      1 UNK         0.0000 
     18 C18         2.3066   51.1542   22.0908 C.ar      1 UNK         0.0000 
     19 N19         2.1276   49.8456   21.6744 N.pl3     1 UNK         0.0000 
     20 C20         2.6911   49.6966   20.4231 C.ar      1 UNK         0.0000 
     21 N21         3.2853   50.8896   20.0821 N.pl3     1 UNK         0.0000 
     22 H22         3.8166   51.0594   19.2281 H         1 UNK         0.0000 
     23 C23         1.8452   51.8030   23.4036 C.3       1 UNK         0.0000 
     24 H24         2.3168   51.2924   24.2351 H         1 UNK         0.0000 
     25 C25         0.3530   51.6129   23.6787 C.ar      1 UNK         0.0000 
     26 C26        -0.0490   51.0389   24.8939 C.ar      1 UNK         0.0000 
     27 C27        -1.4010   50.8276   25.1669 C.ar      1 UNK         0.0000 
     28 C28        -2.3661   51.1943   24.2318 C.ar      1 UNK         0.0000 
     29 C29        -1.9751   51.7499   23.0153 C.ar      1 UNK         0.0000 
     30 C30        -0.6270   51.9505   22.7328 C.ar      1 UNK         0.0000 
     31 F31        -0.2923   52.4439   21.5189 F         1 UNK         0.0000 
     32 F32        -2.8955   52.0905   22.0899 F         1 UNK         0.0000 
     33 F33        -3.6757   50.9955   24.5024 F         1 UNK         0.0000 
     34 H34        -1.0777   52.6837   27.7047 H         1 UNK         0.0000 
     35 H35        -0.4513   51.0483   27.9505 H         1 UNK         0.0000 
     36 H36        -0.5144   52.1633   29.3052 H         1 UNK         0.0000 
     37 H37         3.2949   54.6264   30.0817 H         1 UNK         0.0000 
     38 H38         5.7119   54.8969   29.7686 H         1 UNK         0.0000 
     39 H39         6.7745   54.2635   27.6473 H         1 UNK         0.0000 
     40 H40         5.4028   53.5002   25.7685 H         1 UNK         0.0000 
     41 H41         2.0121   52.6169   25.8245 H         1 UNK         0.0000 
     42 H42         1.4084   53.8600   21.6817 H         1 UNK         0.0000 
     43 H43         2.5468   55.0024   22.1961 H         1 UNK         0.0000 
     44 H44         3.4043   53.6994   20.1788 H         1 UNK         0.0000 
     45 H45         4.4507   53.4034   21.5499 H         1 UNK         0.0000 
     46 H46         2.7047   48.7922   19.8288 H         1 UNK         0.0000 
     47 H47         0.6825   50.7361   25.6311 H         1 UNK         0.0000 
     48 H48        -1.7024   50.3706   26.1012 H         1 UNK         0.0000 
     49 H49         1.6435   49.1289   22.1984 H         1 UNK         0.0000 
@<TRIPOS>BOND
     1    1    2 1    
     2    1   34 1    
     3    1   35 1    
     4    1   36 1    
     5    2    3 1    
     6    3    4 2    
     7    3    5 1    
     8    5   10 ar   
     9    5    6 ar   
    10    6    7 ar   
    11    6   37 1    
    12    7    8 ar   
    13    7   38 1    
    14    8    9 ar   
    15    8   39 1    
    16    9   10 ar   
    17    9   40 1    
    18   10   11 1    
    19   11   12 am   BACKBONE|DICT|INTERRES
    20   11   41 1    
    21   12   13 2    
    22   12   14 am   BACKBONE|DICT|INTERRES
    23   14   23 1    
    24   14   15 1    
    25   15   16 1    
    26   15   42 1    
    27   15   43 1    
    28   16   17 1    
    29   16   44 1    
    30   16   45 1    
    31   17   21 ar   
    32   17   18 ar   
    33   18   19 ar   
    34   18   23 1    
    35   19   20 ar   
    36   19   49 1    
    37   20   21 ar   
    38   20   46 1    
    39   21   22 1    
    40   23   24 1    
    41   23   25 1    
    42   25   30 ar   
    43   25   26 ar   
    44   26   27 ar   
    45   26   47 1    
    46   27   28 ar   
    47   27   48 1    
    48   28   29 ar   
    49   28   33 1    
    50   29   30 ar   
    51   29   32 1    
    52   30   31 1    
@<TRIPOS>SUBSTRUCTURE
     1 UNK         1 GROUP             0       ****    0 ROOT    
