@<TRIPOS>MOLECULE
ZINC23469481_3474
69   74    1
SMALL
USER_CHARGES


@<TRIPOS>ATOM
      1 C1          4.4382   58.1494   16.7779 C.ar      1 UNK         0.0000 
      2 C2          3.6813   56.9818   16.6715 C.ar      1 UNK         0.0000 
      3 C3          3.9535   55.8499   17.4455 C.ar      1 UNK         0.0000 
      4 C4          5.0137   55.9493   18.3556 C.ar      1 UNK         0.0000 
      5 C5          5.7814   57.1354   18.4815 C.ar      1 UNK         0.0000 
      6 C6          5.5048   58.2431   17.6706 C.ar      1 UNK         0.0000 
      7 N7          6.7361   56.9625   19.4354 N.2       1 UNK         0.0000 
      8 N8          6.6501   55.6587   19.8603 N.2       1 UNK         0.0000 
      9 N9          5.6308   55.0513   19.2165 N.pl3     1 UNK         0.0000 
     10 C10         5.4713   53.5947   19.3151 C.3       1 UNK         0.0000 
     11 H11         6.2090   53.2378   20.0229 H         1 UNK         0.0000 
     12 C12         4.0690   53.2031   19.9134 C.3       1 UNK         0.0000 
     13 H13         3.2943   53.7176   19.3426 H         1 UNK         0.0000 
     14 N14         3.7696   51.6968   19.7013 N.4       1 UNK         0.0000 
     15 C15         2.3786   51.3243   19.1533 C.3       1 UNK         0.0000 
     16 C16         2.3099   51.6995   17.6500 C.3       1 UNK         0.0000 
     17 C17         1.0626   51.1304   16.9468 C.3       1 UNK         0.0000 
     18 C18         0.9382   49.6081   17.1470 C.3       1 UNK         0.0000 
     19 C19         0.9874   49.2209   18.6372 C.3       1 UNK         0.0000 
     20 C20         2.2393   49.7922   19.3300 C.3       1 UNK         0.0000 
     21 N21         3.8213   53.4992   21.3500 N.pl3     1 UNK         0.0000 
     22 C22         4.6203   53.8731   22.4398 C.ar      1 UNK         0.0000 
     23 C23         5.9789   54.1562   22.6329 C.ar      1 UNK         0.0000 
     24 C24         6.3974   54.4961   23.9217 C.ar      1 UNK         0.0000 
     25 C25         5.5111   54.5652   24.9936 C.ar      1 UNK         0.0000 
     26 C26         4.1550   54.2949   24.8197 C.ar      1 UNK         0.0000 
     27 C27         3.7154   53.9413   23.5365 C.ar      1 UNK         0.0000 
     28 N28         2.4690   53.5987   23.1257 N.2       1 UNK         0.0000 
     29 N29         2.5584   53.2966   21.7915 N.2       1 UNK         0.0000 
     30 N30         5.7737   52.8967   18.0483 N.3       1 UNK         0.0000 
     31 C31         7.1403   53.0830   17.5487 C.3       1 UNK         0.0000 
     32 C32         7.7581   51.7482   17.0710 C.3       1 UNK         0.0000 
     33 C33         9.2167   51.9079   16.5995 C.3       1 UNK         0.0000 
     34 C34         9.3415   52.9731   15.4964 C.3       1 UNK         0.0000 
     35 C35         8.7072   54.3105   15.9246 C.3       1 UNK         0.0000 
     36 C36         7.2552   54.1273   16.4119 C.3       1 UNK         0.0000 
     37 H37         4.1934   59.0089   16.1661 H         1 UNK         0.0000 
     38 H38         2.8694   56.9517   15.9598 H         1 UNK         0.0000 
     39 H39         3.3824   54.9423   17.3277 H         1 UNK         0.0000 
     40 H40         6.0758   59.1596   17.7479 H         1 UNK         0.0000 
     41 H41         4.4457   51.2648   19.0669 H         1 UNK         0.0000 
     42 H42         1.5782   51.8071   19.7172 H         1 UNK         0.0000 
     43 H43         2.3988   52.7757   17.5011 H         1 UNK         0.0000 
     44 H44         3.1873   51.2967   17.1426 H         1 UNK         0.0000 
     45 H45         0.1700   51.6245   17.3329 H         1 UNK         0.0000 
     46 H46         1.1006   51.3622   15.8813 H         1 UNK         0.0000 
     47 H47         0.0161   49.2449   16.6931 H         1 UNK         0.0000 
     48 H48         1.7542   49.1109   16.6180 H         1 UNK         0.0000 
     49 H49         0.0900   49.5860   19.1400 H         1 UNK         0.0000 
     50 H50         0.9694   48.1337   18.7368 H         1 UNK         0.0000 
     51 H51         3.1040   49.2986   18.8816 H         1 UNK         0.0000 
     52 H52         2.2873   49.5120   20.3837 H         1 UNK         0.0000 
     53 H53         6.7031   54.1277   21.8455 H         1 UNK         0.0000 
     54 H54         7.4455   54.7128   24.0860 H         1 UNK         0.0000 
     55 H55         5.8819   54.8288   25.9738 H         1 UNK         0.0000 
     56 H56         3.4672   54.3376   25.6516 H         1 UNK         0.0000 
     57 H57         5.6169   51.8740   18.0817 H         1 UNK         0.0000 
     58 H58         7.7839   53.4319   18.3593 H         1 UNK         0.0000 
     59 H59         7.1608   51.3397   16.2545 H         1 UNK         0.0000 
     60 H60         7.7283   51.0085   17.8705 H         1 UNK         0.0000 
     61 H61         9.5989   50.9509   16.2405 H         1 UNK         0.0000 
     62 H62         9.8444   52.1863   17.4467 H         1 UNK         0.0000 
     63 H63         8.8537   52.6150   14.5883 H         1 UNK         0.0000 
     64 H64        10.3903   53.1229   15.2379 H         1 UNK         0.0000 
     65 H65         8.7351   55.0180   15.0948 H         1 UNK         0.0000 
     66 H66         9.3042   54.7557   16.7222 H         1 UNK         0.0000 
     67 H67         6.8812   55.0952   16.7317 H         1 UNK         0.0000 
     68 H68         6.6255   53.8247   15.5733 H         1 UNK         0.0000 
     69 H69         3.9068   51.2207   20.5799 H         1 UNK         0.0000 
@<TRIPOS>BOND
     1    1    6 ar   
     2    1    2 ar   
     3    1   37 1    
     4    2    3 ar   
     5    2   38 1    
     6    3    4 ar   
     7    3   39 1    
     8    4    9 ar   
     9    4    5 ar   
    10    5    6 ar   
    11    5    7 ar   
    12    6   40 1    
    13    7    8 ar   
    14    8    9 ar   
    15    9   10 1    
    16   10   11 1    
    17   10   12 1    
    18   10   30 1    
    19   12   13 1    
    20   12   14 1    
    21   12   21 1    
    22   14   15 1    
    23   14   41 1    
    24   14   69 1    
    25   15   20 1    
    26   15   16 1    
    27   15   42 1    
    28   16   17 1    
    29   16   43 1    
    30   16   44 1    
    31   17   18 1    
    32   17   45 1    
    33   17   46 1    
    34   18   19 1    
    35   18   47 1    
    36   18   48 1    
    37   19   20 1    
    38   19   49 1    
    39   19   50 1    
    40   20   51 1    
    41   20   52 1    
    42   21   29 ar   
    43   21   22 ar   
    44   22   27 ar   
    45   22   23 ar   
    46   23   24 ar   
    47   23   53 1    
    48   24   25 ar   
    49   24   54 1    
    50   25   26 ar   
    51   25   55 1    
    52   26   27 ar   
    53   26   56 1    
    54   27   28 ar   
    55   28   29 ar   
    56   30   31 1    
    57   30   57 1    
    58   31   36 1    
    59   31   32 1    
    60   31   58 1    
    61   32   33 1    
    62   32   59 1    
    63   32   60 1    
    64   33   34 1    
    65   33   61 1    
    66   33   62 1    
    67   34   35 1    
    68   34   63 1    
    69   34   64 1    
    70   35   36 1    
    71   35   65 1    
    72   35   66 1    
    73   36   67 1    
    74   36   68 1    
@<TRIPOS>SUBSTRUCTURE
     1 UNK         1 GROUP             0       ****    0 ROOT    
