@<TRIPOS>MOLECULE
ZINC51634303_1864
39   41    1
SMALL
USER_CHARGES


@<TRIPOS>ATOM
      1 C1          0.1259   53.4146   29.7768 C.ar      1 UNK         0.0000 
      2 C2          0.5235   52.0967   29.5955 C.ar      1 UNK         0.0000 
      3 C3          1.8608   51.8166   29.3319 C.ar      1 UNK         0.0000 
      4 C4          2.8127   52.8370   29.2592 C.ar      1 UNK         0.0000 
      5 C5          2.3781   54.1727   29.3314 C.ar      1 UNK         0.0000 
      6 C6          1.0423   54.4474   29.6262 C.ar      1 UNK         0.0000 
      7 C7          3.3403   55.2967   29.0153 C.3       1 UNK         0.0000 
      8 C8          4.8010   54.8967   29.2817 C.3       1 UNK         0.0000 
      9 C9          5.1830   53.6192   28.5340 C.3       1 UNK         0.0000 
     10 H10         6.2338   53.3926   28.7341 H         1 UNK         0.0000 
     11 C11         4.3044   52.5176   29.1579 C.3       1 UNK         0.0000 
     12 N12         5.0710   53.6990   27.0691 N.am      1 UNK         0.0000 
     13 C13         5.8080   54.4986   26.2726 C.2       1 UNK         0.0000 
     14 O14         6.7044   55.2301   26.6937 O.2       1 UNK         0.0000 
     15 C15         5.5107   54.4457   24.7959 C.ar      1 UNK         0.0000 
     16 C16         4.2471   54.0967   24.2914 C.ar      1 UNK         0.0000 
     17 C17         4.0467   54.0198   22.9105 C.ar      1 UNK         0.0000 
     18 C18         5.1165   54.3125   22.0574 C.ar      1 UNK         0.0000 
     19 N19         6.3290   54.6943   22.5242 N.ar      1 UNK         0.0000 
     20 C20         6.5130   54.7521   23.8664 C.ar      1 UNK         0.0000 
     21 N21         5.0303   54.2625   20.6640 N.pl3     1 UNK         0.0000 
     22 N22         3.9044   53.7242   19.9276 N.3       1 UNK         0.0000 
     23 H23        -0.8956   53.6406   30.0128 H         1 UNK         0.0000 
     24 H24        -0.1982   51.2967   29.6817 H         1 UNK         0.0000 
     25 H25         2.1660   50.7902   29.2165 H         1 UNK         0.0000 
     26 H26         0.7053   55.4701   29.7133 H         1 UNK         0.0000 
     27 H27         3.0819   56.1960   29.5759 H         1 UNK         0.0000 
     28 H28         3.2122   55.5461   27.9632 H         1 UNK         0.0000 
     29 H29         4.9277   54.7490   30.3513 H         1 UNK         0.0000 
     30 H30         5.5044   55.6926   29.0407 H         1 UNK         0.0000 
     31 H31         4.3691   51.6967   28.4817 H         1 UNK         0.0000 
     32 H32         4.7519   52.0867   30.0534 H         1 UNK         0.0000 
     33 H33         4.4883   53.0024   26.6298 H         1 UNK         0.0000 
     34 H34         3.4234   53.8704   24.9535 H         1 UNK         0.0000 
     35 H35         3.0820   53.7409   22.5149 H         1 UNK         0.0000 
     36 H36         7.5044   55.0424   24.1846 H         1 UNK         0.0000 
     37 H37         5.8180   54.4954   20.0727 H         1 UNK         0.0000 
     38 H38         3.7630   52.7511   20.1672 H         1 UNK         0.0000 
     39 H39         3.0718   54.2924   20.0762 H         1 UNK         0.0000 
@<TRIPOS>BOND
     1    1    6 ar   
     2    1    2 ar   
     3    1   23 1    
     4    2    3 ar   
     5    2   24 1    
     6    3    4 ar   
     7    3   25 1    
     8    4   11 1    
     9    4    5 ar   
    10    5    6 ar   
    11    5    7 1    
    12    6   26 1    
    13    7    8 1    
    14    7   27 1    
    15    7   28 1    
    16    8    9 1    
    17    8   29 1    
    18    8   30 1    
    19    9   10 1    
    20    9   11 1    
    21    9   12 1    
    22   11   31 1    
    23   11   32 1    
    24   12   13 am   BACKBONE|DICT|INTERRES
    25   12   33 1    
    26   13   14 2    
    27   13   15 1    
    28   15   20 ar   
    29   15   16 ar   
    30   16   17 ar   
    31   16   34 1    
    32   17   18 ar   
    33   17   35 1    
    34   18   19 ar   
    35   18   21 1    
    36   19   20 ar   
    37   20   36 1    
    38   21   22 1    
    39   21   37 1    
    40   22   38 1    
    41   22   39 1    
@<TRIPOS>SUBSTRUCTURE
     1 UNK         1 GROUP             0       ****    0 ROOT    
