ZINC13031439_2009
                    3D
 Schrodinger Suite 2024-2.
 49 52  0  0  1  0            999 V2000
   -0.1497   51.3159   16.3530 C   0  0  0  0  0  0
   -0.9310   51.1692   17.5334 O   0  0  0  0  0  0
   -1.1061   49.9137   18.0866 C   0  0  0  0  0  0
   -0.6453   48.7342   17.4798 C   0  0  0  0  0  0
   -0.8020   47.4998   18.1058 C   0  0  0  0  0  0
   -1.4311   47.4081   19.3524 C   0  0  0  0  0  0
   -1.9164   48.5736   19.9446 C   0  0  0  0  0  0
   -1.7596   49.8186   19.3261 C   0  0  0  0  0  0
   -2.2844   51.2947   20.2065 S   0  0  0  0  0  0
   -3.0036   52.0966   19.2103 O   0  0  0  0  0  0
   -3.1369   50.7851   21.2873 O   0  0  0  0  0  0
   -0.6420   51.8053   20.5882 N   0  0  0  0  0  0
   -0.3025   52.0794   21.7764 C   0  0  0  0  0  0
    0.9536   52.5011   22.1499 N   0  0  0  0  0  0
    1.1390   52.9015   23.4527 C   0  0  0  0  0  0
    0.0469   52.7304   24.2146 C   0  0  0  0  0  0
   -1.2948   52.0935   23.2768 S   0  0  0  0  0  0
    2.4498   53.4274   23.9226 C   0  0  0  0  0  0
    3.5023   53.6966   23.0252 C   0  0  0  0  0  0
    4.7503   54.1330   23.4804 C   0  0  0  0  0  0
    4.9473   54.3245   24.8447 C   0  0  0  0  0  0
    3.9099   54.0971   25.7457 C   0  0  0  0  0  0
    2.6718   53.6552   25.2904 C   0  0  0  0  0  0
    4.1536   54.2803   27.0990 N   0  0  0  0  0  0
    5.3632   54.3757   27.6733 C   0  0  0  0  0  0
    5.5037   54.4961   28.8830 O   0  0  0  0  0  0
    6.5244   54.3287   26.6382 C   0  0  0  0  0  0
    6.1595   54.7940   25.3125 O   0  0  0  0  0  0
   -1.5631   46.1364   20.0886 C   0  0  0  0  0  0
   -0.8844   45.0008   19.8280 C   0  0  0  0  0  0
   -1.0496   43.6967   20.6122 C   0  0  0  0  0  0
   -0.4764   42.7181   20.0816 O   0  0  0  0  0  0
   -1.7220   43.7375   21.6709 O   0  5  0  0  0  0
   -0.0770   52.3737   16.1009 H   0  0  0  0  0  0
    0.8655   50.9413   16.4939 H   0  0  0  0  0  0
   -0.6076   50.8058   15.5044 H   0  0  0  0  0  0
   -0.1420   48.7561   16.5256 H   0  0  0  0  0  0
   -0.4192   46.6213   17.6092 H   0  0  0  0  0  0
   -2.3855   48.5112   20.9162 H   0  0  0  0  0  0
   -0.0784   52.9336   25.2666 H   0  0  0  0  0  0
    3.3707   53.5573   21.9625 H   0  0  0  0  0  0
    5.5516   54.3292   22.7833 H   0  0  0  0  0  0
    1.8965   53.4617   26.0156 H   0  0  0  0  0  0
    3.3883   54.2541   27.7548 H   0  0  0  0  0  0
    6.8100   53.2788   26.5697 H   0  0  0  0  0  0
    7.3683   54.8888   27.0399 H   0  0  0  0  0  0
   -2.2783   46.1321   20.9009 H   0  0  0  0  0  0
   -0.1675   44.9866   19.0223 H   0  0  0  0  0  0
    1.6719   52.5757   21.4460 H   0  0  0  0  0  0
  1  2  1  0  0  0
  1 34  1  0  0  0
  1 35  1  0  0  0
  1 36  1  0  0  0
  2  3  1  0  0  0
  3  8  2  0  0  0
  3  4  1  0  0  0
  4  5  2  0  0  0
  4 37  1  0  0  0
  5  6  1  0  0  0
  5 38  1  0  0  0
  6  7  2  0  0  0
  6 29  1  0  0  0
  7  8  1  0  0  0
  7 39  1  0  0  0
  8  9  1  0  0  0
  9 10  2  0  0  0
  9 11  2  0  0  0
  9 12  1  0  0  0
 12 13  2  0  0  0
 13 17  1  0  0  0
 13 14  1  0  0  0
 14 15  1  0  0  0
 14 49  1  0  0  0
 15 16  2  0  0  0
 15 18  1  0  0  0
 16 17  1  0  0  0
 16 40  1  0  0  0
 18 23  2  0  0  0
 18 19  1  0  0  0
 19 20  2  0  0  0
 19 41  1  0  0  0
 20 21  1  0  0  0
 20 42  1  0  0  0
 21 28  1  0  0  0
 21 22  2  0  0  0
 22 23  1  0  0  0
 22 24  1  0  0  0
 23 43  1  0  0  0
 24 25  1  0  0  0
 24 44  1  0  0  0
 25 26  2  0  0  0
 25 27  1  0  0  0
 27 28  1  0  0  0
 27 45  1  0  0  0
 27 46  1  0  0  0
 29 30  2  0  0  0
 29 47  1  0  0  0
 30 31  1  0  0  0
 30 48  1  0  0  0
 31 32  2  0  0  0
 31 33  1  0  0  0
M  CHG  1  33  -1
M  END
> <i_i_glide_confnum>
51

> <i_i_glide_lignum>
2010

> <i_i_glide_posenum>
43

> <i_i_glide_rotatable_bonds>
6

> <i_m_Source_File_Index>
1852

> <b_m_subgroup_collapsed>
0

> <r_i_docking_score>
-5.76676

> <r_i_glide_ecoul>
-9.46634

> <r_i_glide_eff_state_penalty>
0

> <r_i_glide_einternal>
6.11332

> <r_i_glide_emodel>
-65.894

> <r_i_glide_energy>
-44.7939

> <r_i_glide_erotb>
0.429325

> <r_i_glide_esite>
-0.14103

> <r_i_glide_evdw>
-35.3276

> <r_i_glide_gscore>
-5.76676

> <r_i_glide_hbond>
-0.459446

> <r_i_glide_ligand_efficiency>
-0.17475

> <r_i_glide_ligand_efficiency_ln>
-1.2825

> <r_i_glide_ligand_efficiency_sa>
-0.560517

> <r_i_glide_lipo>
-1.97508

> <r_i_glide_metal>
0

> <r_i_glide_rewards>
-0.434201

> <s_i_glide_gridfile>
wee1_glide-grid

> <s_m_Source_File>
wee1_decoys_glide_SP.sdf

> <s_m_Source_Path>
/Users/zhangxujun/Desktop

> <s_m_entry_id>
2127

> <s_m_entry_name>
wee1_decoys_glide_SP.1852

> <s_m_subgroup_title>
wee1_decoys_glide_SP

> <s_m_subgroupid>
wee1_decoys_glide_SP


$$$$
