ZINC65021432_3346
                    3D
 Schrodinger Suite 2024-2.
 55 58  0  0  1  0            999 V2000
   -0.0601   52.1824   30.0174 C   0  0  0  0  0  0
    1.3322   52.6443   30.4581 C   0  0  0  0  0  0
    2.1018   52.9552   29.3039 O   0  0  0  0  0  0
    3.3577   53.4625   29.4047 C   0  0  0  0  0  0
    3.9043   53.6965   30.4816 O   0  0  0  0  0  0
    3.9751   53.7806   28.0794 C   0  0  0  0  0  0
    5.1393   54.5524   27.9880 C   0  0  0  0  0  0
    5.6625   54.8964   26.7362 C   0  0  0  0  0  0
    5.0938   54.4398   25.5410 C   0  0  0  0  0  0
    3.9842   53.6017   25.6769 C   0  0  0  0  0  0
    3.4112   53.2982   26.9012 C   0  0  0  0  0  0
    5.6352   54.8871   24.3519 N   0  5  0  0  0  0
    5.6290   54.1988   22.9160 S   0  0  0  0  0  0
    6.3041   52.9001   22.8817 O   0  0  0  0  0  0
    5.9891   55.1386   21.8494 O   0  0  0  0  0  0
    3.9232   53.7675   22.5175 C   0  0  0  0  0  0
    2.8138   54.4376   23.0394 C   0  0  0  0  0  0
    1.5382   53.8989   22.8818 C   0  0  0  0  0  0
    1.3511   52.7501   22.1071 C   0  0  0  0  0  0
    2.4486   52.1413   21.4847 C   0  0  0  0  0  0
    3.7238   52.6662   21.6779 C   0  0  0  0  0  0
    2.3240   50.9703   20.7293 N   0  0  0  0  0  0
    1.3608   50.0275   20.7531 C   0  0  0  0  0  0
    1.4448   49.0087   20.0718 O   0  0  0  0  0  0
    0.1610   50.3174   21.6943 C   0  0  2  0  0  0
   -0.6920   49.8039   21.2601 H   0  0  0  0  0  0
   -0.2714   52.0967   21.8423 S   0  0  0  0  0  0
    0.4301   49.7794   23.1264 C   0  0  0  0  0  0
    1.5009   50.0441   23.6816 O   0  0  0  0  0  0
   -0.5258   49.0430   23.7483 N   0  0  0  0  0  0
   -1.8362   48.6941   23.1791 C   0  0  0  0  0  0
   -2.5733   48.0606   24.3566 C   0  0  0  0  0  0
   -1.4648   47.4724   25.2053 C   0  0  0  0  0  0
   -0.3424   48.5037   25.1017 C   0  0  0  0  0  0
   -0.6735   51.9246   30.8817 H   0  0  0  0  0  0
   -0.5763   52.9638   29.4603 H   0  0  0  0  0  0
   -0.0015   51.2984   29.3808 H   0  0  0  0  0  0
    1.8226   51.8601   31.0375 H   0  0  0  0  0  0
    1.2417   53.5222   31.1011 H   0  0  0  0  0  0
    5.6240   54.9322   28.8773 H   0  0  0  0  0  0
    6.5314   55.5359   26.7005 H   0  0  0  0  0  0
    3.5431   53.0848   24.8515 H   0  0  0  0  0  0
    2.5463   52.6493   26.9094 H   0  0  0  0  0  0
    2.9527   55.2965   23.6755 H   0  0  0  0  0  0
    0.7004   54.3831   23.3560 H   0  0  0  0  0  0
    4.5771   52.1673   21.2386 H   0  0  0  0  0  0
    3.1018   50.6985   20.1445 H   0  0  0  0  0  0
   -1.7140   47.9539   22.3866 H   0  0  0  0  0  0
   -2.3830   49.5685   22.8228 H   0  0  0  0  0  0
   -3.3198   47.3304   24.0426 H   0  0  0  0  0  0
   -3.0964   48.8319   24.9252 H   0  0  0  0  0  0
   -1.7565   47.2870   26.2396 H   0  0  0  0  0  0
   -1.1327   46.5211   24.7876 H   0  0  0  0  0  0
   -0.4991   49.2910   25.8409 H   0  0  0  0  0  0
    0.6358   48.0388   25.2434 H   0  0  0  0  0  0
  1  2  1  0  0  0
  1 35  1  0  0  0
  1 36  1  0  0  0
  1 37  1  0  0  0
  2  3  1  0  0  0
  2 38  1  0  0  0
  2 39  1  0  0  0
  3  4  1  0  0  0
  4  5  2  0  0  0
  4  6  1  0  0  0
  6 11  2  0  0  0
  6  7  1  0  0  0
  7  8  2  0  0  0
  7 40  1  0  0  0
  8  9  1  0  0  0
  8 41  1  0  0  0
  9 10  2  0  0  0
  9 12  1  0  0  0
 10 11  1  0  0  0
 10 42  1  0  0  0
 11 43  1  0  0  0
 12 13  1  0  0  0
 13 14  2  0  0  0
 13 15  2  0  0  0
 13 16  1  0  0  0
 16 21  2  0  0  0
 16 17  1  0  0  0
 17 18  2  0  0  0
 17 44  1  0  0  0
 18 19  1  0  0  0
 18 45  1  0  0  0
 19 27  1  0  0  0
 19 20  2  0  0  0
 20 21  1  0  0  0
 20 22  1  0  0  0
 21 46  1  0  0  0
 22 23  1  0  0  0
 22 47  1  0  0  0
 23 24  2  0  0  0
 23 25  1  0  0  0
 25 26  1  0  0  0
 25 27  1  0  0  0
 25 28  1  0  0  0
 28 29  2  0  0  0
 28 30  1  0  0  0
 30 34  1  0  0  0
 30 31  1  0  0  0
 31 32  1  0  0  0
 31 48  1  0  0  0
 31 49  1  0  0  0
 32 33  1  0  0  0
 32 50  1  0  0  0
 32 51  1  0  0  0
 33 34  1  0  0  0
 33 52  1  0  0  0
 33 53  1  0  0  0
 34 54  1  0  0  0
 34 55  1  0  0  0
M  CHG  1  12  -1
M  END
> <i_i_glide_confnum>
124

> <i_i_glide_lignum>
3347

> <i_i_glide_posenum>
398

> <i_i_glide_rotatable_bonds>
8

> <i_m_Source_File_Index>
4090

> <b_m_subgroup_collapsed>
0

> <r_i_docking_score>
-4.30041

> <r_i_glide_ecoul>
-5.27471

> <r_i_glide_eff_state_penalty>
0

> <r_i_glide_einternal>
10.238

> <r_i_glide_emodel>
-49.9188

> <r_i_glide_energy>
-45.4965

> <r_i_glide_erotb>
0.596428

> <r_i_glide_esite>
-0.0130447

> <r_i_glide_evdw>
-40.2218

> <r_i_glide_gscore>
-4.30041

> <r_i_glide_hbond>
-0.32

> <r_i_glide_ligand_efficiency>
-0.130315

> <r_i_glide_ligand_efficiency_ln>
-0.956389

> <r_i_glide_ligand_efficiency_sa>
-0.417991

> <r_i_glide_lipo>
-2.01466

> <r_i_glide_metal>
0

> <r_i_glide_rewards>
0.253167

> <s_i_glide_gridfile>
wee1_glide-grid

> <s_m_Source_File>
wee1_decoys_glide_SP.sdf

> <s_m_Source_Path>
/Users/zhangxujun/Desktop

> <s_m_entry_id>
4365

> <s_m_entry_name>
wee1_decoys_glide_SP.4090

> <s_m_subgroup_title>
wee1_decoys_glide_SP

> <s_m_subgroupid>
wee1_decoys_glide_SP


$$$$
