ZINC65638345_6221
                    3D
 Schrodinger Suite 2024-2.
 58 59  0  0  1  0            999 V2000
   -0.5248   51.7424   27.4639 C   0  0  0  0  0  0
   -0.5536   51.7915   29.0013 C   0  0  0  0  0  0
    0.0869   53.0525   29.6222 C   0  0  0  0  0  0
    1.6161   53.0858   29.4979 C   0  0  0  0  0  0
    2.3037   52.5811   30.3872 O   0  0  0  0  0  0
    2.1021   53.6752   28.3847 N   0  0  0  0  0  0
    3.4474   53.8530   28.0103 C   0  0  0  0  0  0
    4.5059   53.9111   28.9277 C   0  0  0  0  0  0
    5.8165   54.0713   28.4819 C   0  0  0  0  0  0
    6.0820   54.1917   27.1243 C   0  0  0  0  0  0
    5.0327   54.1809   26.1946 C   0  0  0  0  0  0
    3.7189   54.0048   26.6455 C   0  0  0  0  0  0
    5.2373   54.2850   24.8083 N   0  0  0  0  0  0
    6.2702   54.8966   24.1753 C   0  0  0  0  0  0
    7.1044   55.5855   24.7658 O   0  0  0  0  0  0
    6.3030   54.7551   22.6779 C   0  0  0  0  0  0
    7.0069   55.4948   21.9868 O   0  0  0  0  0  0
    5.5067   53.7972   22.1404 N   0  0  0  0  0  0
    5.3135   53.5599   20.7011 C   0  0  0  0  0  0
    3.8291   53.5176   20.2649 C   0  0  1  0  0  0
    3.6276   52.8645   18.8852 C   0  0  0  0  0  0
    2.7762   51.6066   19.0810 C   0  0  0  0  0  0
    2.8550   51.3067   20.5924 N   0  3  1  0  0  0
    2.8939   52.7232   21.2001 C   0  0  0  0  0  0
    1.7479   50.3742   21.1472 C   0  0  0  0  0  0
    1.7497   49.0439   20.3674 C   0  0  0  0  0  0
    1.9790   50.1294   22.6523 C   0  0  0  0  0  0
   -1.0309   50.8467   27.0982 H   0  0  0  0  0  0
   -1.0312   52.6045   27.0276 H   0  0  0  0  0  0
    0.4935   51.7174   27.0777 H   0  0  0  0  0  0
   -0.0732   50.8967   29.3944 H   0  0  0  0  0  0
   -1.5924   51.7214   29.3283 H   0  0  0  0  0  0
   -0.1473   53.0728   30.6894 H   0  0  0  0  0  0
   -0.3561   53.9580   29.2047 H   0  0  0  0  0  0
    1.4206   53.9453   27.6938 H   0  0  0  0  0  0
    4.3339   53.8292   29.9899 H   0  0  0  0  0  0
    6.6332   54.0998   29.1872 H   0  0  0  0  0  0
    7.1113   54.2824   26.8129 H   0  0  0  0  0  0
    2.9073   53.9727   25.9337 H   0  0  0  0  0  0
    4.5114   53.8806   24.2452 H   0  0  0  0  0  0
    5.0201   53.1672   22.7531 H   0  0  0  0  0  0
    5.8094   52.6351   20.4035 H   0  0  0  0  0  0
    5.8106   54.3383   20.1161 H   0  0  0  0  0  0
    3.5050   54.5574   20.2123 H   0  0  0  0  0  0
    4.5648   52.6440   18.3697 H   0  0  0  0  0  0
    3.0768   53.5422   18.2289 H   0  0  0  0  0  0
    3.1040   50.7337   18.5138 H   0  0  0  0  0  0
    1.7207   51.7855   18.8595 H   0  0  0  0  0  0
    1.8694   53.1024   21.1989 H   0  0  0  0  0  0
    3.2012   52.6467   22.2410 H   0  0  0  0  0  0
    0.8094   50.9117   20.9818 H   0  0  0  0  0  0
    0.9765   48.3709   20.7409 H   0  0  0  0  0  0
    2.7038   48.5232   20.4582 H   0  0  0  0  0  0
    1.5512   49.1846   19.3041 H   0  0  0  0  0  0
    1.2384   49.4352   23.0536 H   0  0  0  0  0  0
    2.9598   49.6933   22.8479 H   0  0  0  0  0  0
    1.8953   51.0415   23.2409 H   0  0  0  0  0  0
    3.7376   50.8506   20.7667 H   0  0  0  0  0  0
  1  2  1  0  0  0
  1 28  1  0  0  0
  1 29  1  0  0  0
  1 30  1  0  0  0
  2  3  1  0  0  0
  2 31  1  0  0  0
  2 32  1  0  0  0
  3  4  1  0  0  0
  3 33  1  0  0  0
  3 34  1  0  0  0
  4  5  2  0  0  0
  4  6  1  0  0  0
  6  7  1  0  0  0
  6 35  1  0  0  0
  7 12  2  0  0  0
  7  8  1  0  0  0
  8  9  2  0  0  0
  8 36  1  0  0  0
  9 10  1  0  0  0
  9 37  1  0  0  0
 10 11  2  0  0  0
 10 38  1  0  0  0
 11 12  1  0  0  0
 11 13  1  0  0  0
 12 39  1  0  0  0
 13 14  1  0  0  0
 13 40  1  0  0  0
 14 15  2  0  0  0
 14 16  1  0  0  0
 16 17  2  0  0  0
 16 18  1  0  0  0
 18 19  1  0  0  0
 18 41  1  0  0  0
 19 20  1  0  0  0
 19 42  1  0  0  0
 19 43  1  0  0  0
 20 24  1  0  0  0
 20 21  1  0  0  0
 20 44  1  0  0  0
 21 22  1  0  0  0
 21 45  1  0  0  0
 21 46  1  0  0  0
 22 23  1  0  0  0
 22 47  1  0  0  0
 22 48  1  0  0  0
 23 24  1  0  0  0
 23 25  1  0  0  0
 23 58  1  0  0  0
 24 49  1  0  0  0
 24 50  1  0  0  0
 25 26  1  0  0  0
 25 27  1  0  0  0
 25 51  1  0  0  0
 26 52  1  0  0  0
 26 53  1  0  0  0
 26 54  1  0  0  0
 27 55  1  0  0  0
 27 56  1  0  0  0
 27 57  1  0  0  0
M  CHG  1  23   1
M  END
> <i_i_glide_confnum>
110

> <i_i_glide_lignum>
6222

> <i_i_glide_posenum>
318

> <i_i_glide_rotatable_bonds>
11

> <i_m_Source_File_Index>
2170

> <b_m_subgroup_collapsed>
0

> <r_i_docking_score>
-5.71757

> <r_i_glide_ecoul>
-5.52809

> <r_i_glide_eff_state_penalty>
0

> <r_i_glide_einternal>
6.45696

> <r_i_glide_emodel>
-65.9129

> <r_i_glide_energy>
-49.5076

> <r_i_glide_erotb>
1.23503

> <r_i_glide_esite>
-0.0147811

> <r_i_glide_evdw>
-43.9795

> <r_i_glide_gscore>
-5.71757

> <r_i_glide_hbond>
-0.291707

> <r_i_glide_ligand_efficiency>
-0.211762

> <r_i_glide_ligand_efficiency_ln>
-1.33096

> <r_i_glide_ligand_efficiency_sa>
-0.635285

> <r_i_glide_lipo>
-1.76957

> <r_i_glide_metal>
0

> <r_i_glide_rewards>
-1.84836

> <s_i_glide_gridfile>
wee1_glide-grid

> <s_m_Source_File>
wee1_decoys_glide_SP.sdf

> <s_m_Source_Path>
/Users/zhangxujun/Desktop

> <s_m_entry_id>
2445

> <s_m_entry_name>
wee1_decoys_glide_SP.2170

> <s_m_subgroup_title>
wee1_decoys_glide_SP

> <s_m_subgroupid>
wee1_decoys_glide_SP


$$$$
