@<TRIPOS>MOLECULE
ZINC09324800_3106
55   57    1
SMALL
USER_CHARGES


@<TRIPOS>ATOM
      1 C1          1.1155   52.7064   26.8312 C.3       1 UNK         0.0000 
      2 O2          2.2921   53.4124   27.2085 O.3       1 UNK         0.0000 
      3 C3          3.2153   53.7588   26.2360 C.ar      1 UNK         0.0000 
      4 C4          2.9509   53.6968   24.8604 C.ar      1 UNK         0.0000 
      5 C5          3.9356   54.0272   23.9329 C.ar      1 UNK         0.0000 
      6 C6          5.2182   54.4138   24.3520 C.ar      1 UNK         0.0000 
      7 C7          5.4718   54.4961   25.7222 C.ar      1 UNK         0.0000 
      8 C8          4.4765   54.1873   26.6711 C.ar      1 UNK         0.0000 
      9 O9          4.6596   54.2762   28.0381 O.3       1 UNK         0.0000 
     10 C10         5.9044   54.7257   28.5412 C.3       1 UNK         0.0000 
     11 N11         6.2941   54.7258   23.4899 N.am      1 UNK         0.0000 
     12 C12         6.2668   54.8967   22.1527 C.2       1 UNK         0.0000 
     13 O13         5.2732   54.7308   21.4467 O.2       1 UNK         0.0000 
     14 N14         7.4594   55.2993   21.6781 N.am      1 UNK         0.0000 
     15 C15         7.6763   55.7488   20.3820 C.2       1 UNK         0.0000 
     16 N16         8.8515   55.6976   19.8195 N.2       1 UNK         0.0000 
     17 N17         8.8736   56.2966   18.5657 N.2       1 UNK         0.0000 
     18 C18         7.7294   56.8338   18.2170 C.2       1 UNK         0.0000 
     19 S19         6.4868   56.6003   19.4190 S.3       1 UNK         0.0000 
     20 S20         7.4942   57.6660   16.6730 S.3       1 UNK         0.0000 
     21 C21         5.9218   58.5651   16.9230 C.3       1 UNK         0.0000 
     22 C22         4.6510   57.7687   16.5906 C.2       1 UNK         0.0000 
     23 O23         4.6485   56.5396   16.6772 O.2       1 UNK         0.0000 
     24 N24         3.5857   58.5083   16.2265 N.am      1 UNK         0.0000 
     25 C25         2.2629   58.0971   15.9875 C.ar      1 UNK         0.0000 
     26 C26         1.4579   58.9937   15.2835 C.ar      1 UNK         0.0000 
     27 C27         0.1052   58.7225   15.0913 C.ar      1 UNK         0.0000 
     28 C28        -0.4672   57.5483   15.5995 C.ar      1 UNK         0.0000 
     29 C29         0.3532   56.6393   16.2861 C.ar      1 UNK         0.0000 
     30 C30         1.7053   56.9082   16.4808 C.ar      1 UNK         0.0000 
     31 C31        -1.9350   57.3088   15.4021 C.2       1 UNK         0.0000 
     32 O32        -2.6801   58.1114   14.8316 O.2       1 UNK         0.0000 
     33 O33        -2.3633   56.1252   15.9136 O.3       1 UNK         0.0000 
     34 C34        -3.7134   55.7114   15.7468 C.3       1 UNK         0.0000 
     35 H35         0.5245   52.4854   27.7200 H         1 UNK         0.0000 
     36 H36         0.4939   53.2938   26.1575 H         1 UNK         0.0000 
     37 H37         1.3597   51.7577   26.3501 H         1 UNK         0.0000 
     38 H38         1.9897   53.3828   24.4859 H         1 UNK         0.0000 
     39 H39         3.6646   53.9391   22.8941 H         1 UNK         0.0000 
     40 H40         6.4548   54.7977   26.0462 H         1 UNK         0.0000 
     41 H41         5.8228   54.8965   29.6135 H         1 UNK         0.0000 
     42 H42         6.6851   53.9799   28.3790 H         1 UNK         0.0000 
     43 H43         6.2174   55.6658   28.0817 H         1 UNK         0.0000 
     44 H44         7.1751   54.8951   23.9489 H         1 UNK         0.0000 
     45 H45         8.2653   55.2547   22.2895 H         1 UNK         0.0000 
     46 H46         5.9610   59.4424   16.2768 H         1 UNK         0.0000 
     47 H47         5.8612   58.9563   17.9376 H         1 UNK         0.0000 
     48 H48         3.7551   59.4983   16.0905 H         1 UNK         0.0000 
     49 H49         1.8676   59.9233   14.9125 H         1 UNK         0.0000 
     50 H50        -0.4921   59.4472   14.5567 H         1 UNK         0.0000 
     51 H51        -0.0447   55.7229   16.6982 H         1 UNK         0.0000 
     52 H52         2.2912   56.2016   17.0492 H         1 UNK         0.0000 
     53 H53        -3.8844   54.7754   16.2800 H         1 UNK         0.0000 
     54 H54        -3.9413   55.5482   14.6915 H         1 UNK         0.0000 
     55 H55        -4.4105   56.4562   16.1368 H         1 UNK         0.0000 
@<TRIPOS>BOND
     1    1    2 1    
     2    1   35 1    
     3    1   36 1    
     4    1   37 1    
     5    2    3 1    
     6    3    8 ar   
     7    3    4 ar   
     8    4    5 ar   
     9    4   38 1    
    10    5    6 ar   
    11    5   39 1    
    12    6    7 ar   
    13    6   11 1    
    14    7    8 ar   
    15    7   40 1    
    16    8    9 1    
    17    9   10 1    
    18   10   41 1    
    19   10   42 1    
    20   10   43 1    
    21   11   12 am   BACKBONE|DICT|INTERRES
    22   11   44 1    
    23   12   13 2    
    24   12   14 am   BACKBONE|DICT|INTERRES
    25   14   15 am   BACKBONE|DICT|INTERRES
    26   14   45 1    
    27   15   19 1    
    28   15   16 2    
    29   16   17 1    
    30   17   18 2    
    31   18   19 1    
    32   18   20 1    
    33   20   21 1    
    34   21   22 1    
    35   21   46 1    
    36   21   47 1    
    37   22   23 2    
    38   22   24 am   BACKBONE|DICT|INTERRES
    39   24   25 1    
    40   24   48 1    
    41   25   30 ar   
    42   25   26 ar   
    43   26   27 ar   
    44   26   49 1    
    45   27   28 ar   
    46   27   50 1    
    47   28   29 ar   
    48   28   31 1    
    49   29   30 ar   
    50   29   51 1    
    51   30   52 1    
    52   31   32 2    
    53   31   33 1    
    54   33   34 1    
    55   34   53 1    
    56   34   54 1    
    57   34   55 1    
@<TRIPOS>SUBSTRUCTURE
     1 UNK         1 GROUP             0       ****    0 ROOT    
