ZINC35350232_3475
                    3D
 Schrodinger Suite 2024-2.
 70 74  0  0  1  0            999 V2000
    4.5773   54.7277   29.2807 C   0  0  0  0  0  0
    4.1442   54.4462   27.8611 C   0  0  0  0  0  0
    5.0113   54.6607   26.7883 C   0  0  0  0  0  0
    4.6070   54.3440   25.4933 C   0  0  0  0  0  0
    3.3418   53.7962   25.2627 C   0  0  0  0  0  0
    2.4620   53.5816   26.3441 C   0  0  0  0  0  0
    2.8680   53.9350   27.6321 C   0  0  0  0  0  0
    1.1291   52.8670   26.1983 C   0  0  0  0  0  0
    3.1062   53.2957   23.9807 N   0  0  0  0  0  0
    2.1165   53.5789   23.1225 C   0  0  0  0  0  0
    1.3141   54.4961   23.2826 O   0  0  0  0  0  0
    2.0158   52.6096   22.0334 C   0  0  0  0  0  0
    3.0832   52.2048   21.2898 C   0  0  0  0  0  0
    2.8967   51.2518   20.3182 N   0  3  0  0  0  0
    1.7359   50.6606   20.0250 C   0  0  0  0  0  0
    0.6134   51.0602   20.6526 N   0  0  0  0  0  0
    0.5968   52.0543   21.7604 C   0  0  1  0  0  0
    0.0463   52.8958   21.3365 H   0  0  0  0  0  0
   -0.1969   51.6036   23.0027 C   0  0  0  0  0  0
    0.1568   50.4558   23.7215 C   0  0  0  0  0  0
   -0.5602   50.0963   24.8676 C   0  0  0  0  0  0
   -1.6283   50.8825   25.3140 C   0  0  0  0  0  0
   -1.9991   52.0111   24.5640 C   0  0  0  0  0  0
   -1.2938   52.3605   23.4205 C   0  0  0  0  0  0
   -2.2447   50.4982   26.5289 N   0  0  0  0  0  0
   -3.2514   51.1021   27.1996 C   0  0  0  0  0  0
   -3.8774   52.0859   26.8060 O   0  0  0  0  0  0
   -3.4764   50.4963   28.3817 N   0  0  0  0  0  0
   -4.5229   50.7236   29.2986 C   0  0  0  0  0  0
   -5.7561   51.2981   28.9480 C   0  0  0  0  0  0
   -6.7413   51.4839   29.9142 C   0  0  0  0  0  0
   -6.5064   51.0801   31.2249 C   0  0  0  0  0  0
   -5.2960   50.4877   31.5776 C   0  0  0  0  0  0
   -4.3098   50.3051   30.6141 C   0  0  0  0  0  0
   -0.7273   50.7939   20.0931 C   0  0  0  0  0  0
   -0.7920   49.3968   19.4459 C   0  0  0  0  0  0
    0.2159   49.1775   18.3098 C   0  0  0  0  0  0
    1.9037   49.3375   18.9217 S   0  0  0  0  0  0
    4.5183   52.7253   21.3406 C   0  0  0  0  0  0
    4.7030   53.7899   29.8205 H   0  0  0  0  0  0
    3.7963   55.2966   29.7803 H   0  0  0  0  0  0
    5.5063   55.2955   29.3282 H   0  0  0  0  0  0
    6.0027   55.0532   26.9602 H   0  0  0  0  0  0
    5.3000   54.4814   24.6755 H   0  0  0  0  0  0
    2.2133   53.7535   28.4716 H   0  0  0  0  0  0
    0.5236   53.2969   25.4061 H   0  0  0  0  0  0
    1.3122   51.8237   25.9451 H   0  0  0  0  0  0
    0.5301   52.9012   27.1106 H   0  0  0  0  0  0
    3.8215   52.6809   23.6293 H   0  0  0  0  0  0
    0.9997   49.8569   23.4104 H   0  0  0  0  0  0
   -0.2585   49.2215   25.4292 H   0  0  0  0  0  0
   -2.8115   52.6579   24.8463 H   0  0  0  0  0  0
   -1.5932   53.2484   22.8836 H   0  0  0  0  0  0
   -1.8573   49.6723   26.9768 H   0  0  0  0  0  0
   -2.8065   49.7869   28.6634 H   0  0  0  0  0  0
   -5.9702   51.5974   27.9338 H   0  0  0  0  0  0
   -7.6872   51.9279   29.6405 H   0  0  0  0  0  0
   -7.2692   51.2173   31.9773 H   0  0  0  0  0  0
   -5.1155   50.1730   32.5962 H   0  0  0  0  0  0
   -3.3715   49.8543   30.9072 H   0  0  0  0  0  0
   -1.4833   50.8732   20.8729 H   0  0  0  0  0  0
   -0.9307   51.5715   19.3576 H   0  0  0  0  0  0
   -0.6424   48.6323   20.2120 H   0  0  0  0  0  0
   -1.8009   49.2301   19.0665 H   0  0  0  0  0  0
    0.1200   48.1896   17.8607 H   0  0  0  0  0  0
    0.0864   49.9179   17.5189 H   0  0  0  0  0  0
    5.1505   52.0409   21.9066 H   0  0  0  0  0  0
    4.9431   52.8219   20.3384 H   0  0  0  0  0  0
    4.5858   53.7136   21.7979 H   0  0  0  0  0  0
    3.6871   50.9646   19.7527 H   0  0  0  0  0  0
  1  2  1  0  0  0
  1 40  1  0  0  0
  1 41  1  0  0  0
  1 42  1  0  0  0
  2  7  2  0  0  0
  2  3  1  0  0  0
  3  4  2  0  0  0
  3 43  1  0  0  0
  4  5  1  0  0  0
  4 44  1  0  0  0
  5  6  2  0  0  0
  5  9  1  0  0  0
  6  7  1  0  0  0
  6  8  1  0  0  0
  7 45  1  0  0  0
  8 46  1  0  0  0
  8 47  1  0  0  0
  8 48  1  0  0  0
  9 10  1  0  0  0
  9 49  1  0  0  0
 10 11  2  0  0  0
 10 12  1  0  0  0
 12 17  1  0  0  0
 12 13  2  0  0  0
 13 14  1  0  0  0
 13 39  1  0  0  0
 14 15  2  0  0  0
 14 70  1  0  0  0
 15 38  1  0  0  0
 15 16  1  0  0  0
 16 17  1  0  0  0
 16 35  1  0  0  0
 17 18  1  0  0  0
 17 19  1  0  0  0
 19 24  2  0  0  0
 19 20  1  0  0  0
 20 21  2  0  0  0
 20 50  1  0  0  0
 21 22  1  0  0  0
 21 51  1  0  0  0
 22 23  2  0  0  0
 22 25  1  0  0  0
 23 24  1  0  0  0
 23 52  1  0  0  0
 24 53  1  0  0  0
 25 26  1  0  0  0
 25 54  1  0  0  0
 26 27  2  0  0  0
 26 28  1  0  0  0
 28 29  1  0  0  0
 28 55  1  0  0  0
 29 34  2  0  0  0
 29 30  1  0  0  0
 30 31  2  0  0  0
 30 56  1  0  0  0
 31 32  1  0  0  0
 31 57  1  0  0  0
 32 33  2  0  0  0
 32 58  1  0  0  0
 33 34  1  0  0  0
 33 59  1  0  0  0
 34 60  1  0  0  0
 35 36  1  0  0  0
 35 61  1  0  0  0
 35 62  1  0  0  0
 36 37  1  0  0  0
 36 63  1  0  0  0
 36 64  1  0  0  0
 37 38  1  0  0  0
 37 65  1  0  0  0
 37 66  1  0  0  0
 39 67  1  0  0  0
 39 68  1  0  0  0
 39 69  1  0  0  0
M  CHG  1  14   1
M  END
> <i_i_glide_confnum>
145

> <i_i_glide_lignum>
3476

> <i_i_glide_posenum>
399

> <i_i_glide_rotatable_bonds>
8

> <i_m_Source_File_Index>
5092

> <b_m_subgroup_collapsed>
0

> <r_i_docking_score>
-5.27873

> <r_i_glide_ecoul>
-5.09855

> <r_i_glide_eff_state_penalty>
0

> <r_i_glide_einternal>
7.99027

> <r_i_glide_emodel>
-60.0082

> <r_i_glide_energy>
-46.7377

> <r_i_glide_erotb>
0.519615

> <r_i_glide_esite>
-0.3029

> <r_i_glide_evdw>
-41.6392

> <r_i_glide_gscore>
-5.27873

> <r_i_glide_hbond>
-0.317901

> <r_i_glide_ligand_efficiency>
-0.138914

> <r_i_glide_ligand_efficiency_ln>
-1.13825

> <r_i_glide_ligand_efficiency_sa>
-0.467025

> <r_i_glide_lipo>
-2.00528

> <r_i_glide_metal>
0

> <r_i_glide_rewards>
-0.325519

> <s_i_glide_gridfile>
wee1_glide-grid

> <s_m_Source_File>
wee1_decoys_glide_SP.sdf

> <s_m_Source_Path>
/Users/zhangxujun/Desktop

> <s_m_entry_id>
5367

> <s_m_entry_name>
wee1_decoys_glide_SP.5092

> <s_m_subgroup_title>
wee1_decoys_glide_SP

> <s_m_subgroupid>
wee1_decoys_glide_SP


$$$$
