ZINC36006700_5694
                    3D
 Schrodinger Suite 2024-2.
 80 82  0  0  1  0            999 V2000
    4.8627   54.8439   19.4420 C   0  0  0  0  0  0
    5.1420   54.8777   20.9539 C   0  0  0  0  0  0
    4.0189   54.4278   21.7127 O   0  0  0  0  0  0
    3.7286   53.1092   21.8371 C   0  0  0  0  0  0
    4.3962   52.2353   21.2805 O   0  0  0  0  0  0
    2.5523   52.8285   22.7105 C   0  0  0  0  0  0
    1.8916   51.6305   22.7350 C   0  0  0  0  0  0
    0.8192   51.4368   23.5979 N   0  0  0  0  0  0
    0.1193   52.4944   24.1385 C   0  0  0  0  0  0
   -1.0233   52.4632   24.5929 O   0  0  0  0  0  0
    0.7433   53.6967   24.0756 N   0  0  0  0  0  0
    2.1854   53.8752   23.7933 C   0  0  1  0  0  0
    2.3339   54.8956   23.4320 H   0  0  0  0  0  0
    3.1002   53.8788   25.0352 C   0  0  0  0  0  0
    2.7207   53.3134   26.2634 C   0  0  0  0  0  0
    3.5744   53.3375   27.3693 C   0  0  0  0  0  0
    4.8370   53.9391   27.2394 C   0  0  0  0  0  0
    5.2417   54.5055   26.0326 C   0  0  0  0  0  0
    4.3613   54.4694   24.9444 C   0  0  0  0  0  0
    6.4995   55.0764   25.9838 O   0  0  0  0  0  0
    6.9177   55.6740   24.7620 C   0  0  0  0  0  0
    3.1079   52.7461   28.5282 O   0  0  0  0  0  0
    3.9720   52.6608   29.6558 C   0  0  0  0  0  0
    0.2606   50.1109   23.9350 C   0  0  0  0  0  0
    2.0909   50.5030   21.6947 C   0  0  0  0  0  0
    1.5035   50.8955   20.3106 N   0  3  2  0  0  0
   -0.0511   50.9128   20.3233 C   0  0  0  0  0  0
   -0.6872   51.5826   19.0896 C   0  0  0  0  0  0
   -0.8637   50.6769   17.8479 C   0  0  0  0  0  0
    0.3197   49.8761   17.4880 N   0  0  0  0  0  0
    1.6197   50.5082   17.7709 C   0  0  0  0  0  0
    2.1907   50.1326   19.1509 C   0  0  0  0  0  0
    0.1716   48.5778   17.0866 C   0  0  0  0  0  0
   -0.9312   48.0366   16.9795 O   0  0  0  0  0  0
    1.3123   47.9386   16.7403 N   0  0  0  0  0  0
    1.4974   46.5540   16.2872 C   0  0  0  0  0  0
    3.0156   46.3192   16.1653 C   0  0  0  0  0  0
    0.8457   46.3324   14.9028 C   0  0  0  0  0  0
    0.9271   45.5378   17.3063 C   0  0  0  0  0  0
    5.6810   55.2994   18.8857 H   0  0  0  0  0  0
    4.7549   53.8212   19.0804 H   0  0  0  0  0  0
    3.9450   55.3762   19.1925 H   0  0  0  0  0  0
    5.3693   55.8981   21.2590 H   0  0  0  0  0  0
    6.0284   54.2903   21.1972 H   0  0  0  0  0  0
    0.3035   54.4048   24.6443 H   0  0  0  0  0  0
    1.7587   52.8405   26.3804 H   0  0  0  0  0  0
    5.5256   53.9739   28.0693 H   0  0  0  0  0  0
    4.6545   54.9064   24.0081 H   0  0  0  0  0  0
    7.9044   56.0975   24.8818 H   0  0  0  0  0  0
    6.9726   54.9467   23.9508 H   0  0  0  0  0  0
    6.2623   56.4962   24.4789 H   0  0  0  0  0  0
    3.4587   52.1415   30.4657 H   0  0  0  0  0  0
    4.8737   52.0902   29.4213 H   0  0  0  0  0  0
    4.2573   53.6477   30.0246 H   0  0  0  0  0  0
   -0.3769   50.1168   24.8217 H   0  0  0  0  0  0
   -0.3312   49.7128   23.1112 H   0  0  0  0  0  0
    1.0689   49.4104   24.1511 H   0  0  0  0  0  0
    1.6416   49.5414   21.9377 H   0  0  0  0  0  0
    3.1467   50.2874   21.5549 H   0  0  0  0  0  0
   -0.3145   51.5070   21.1969 H   0  0  0  0  0  0
   -0.3841   49.8852   20.4831 H   0  0  0  0  0  0
   -0.1054   52.4661   18.8215 H   0  0  0  0  0  0
   -1.6662   51.9763   19.3596 H   0  0  0  0  0  0
   -1.0599   51.3454   17.0069 H   0  0  0  0  0  0
   -1.7403   50.0417   17.9947 H   0  0  0  0  0  0
    2.3045   50.1337   17.0169 H   0  0  0  0  0  0
    1.6311   51.5789   17.5646 H   0  0  0  0  0  0
    2.1291   49.0643   19.3672 H   0  0  0  0  0  0
    3.2429   50.4187   19.2101 H   0  0  0  0  0  0
    2.1684   48.4790   16.7726 H   0  0  0  0  0  0
    3.2490   45.2987   15.8611 H   0  0  0  0  0  0
    3.5075   46.4976   17.1214 H   0  0  0  0  0  0
    3.4788   46.9894   15.4380 H   0  0  0  0  0  0
   -0.2353   46.4706   14.9341 H   0  0  0  0  0  0
    1.2376   47.0305   14.1616 H   0  0  0  0  0  0
    1.0313   45.3238   14.5313 H   0  0  0  0  0  0
   -0.1581   45.5945   17.3769 H   0  0  0  0  0  0
    1.1722   44.5132   17.0270 H   0  0  0  0  0  0
    1.3253   45.7109   18.3072 H   0  0  0  0  0  0
    1.7882   51.8571   20.1682 H   0  0  0  0  0  0
  1  2  1  0  0  0
  1 40  1  0  0  0
  1 41  1  0  0  0
  1 42  1  0  0  0
  2  3  1  0  0  0
  2 43  1  0  0  0
  2 44  1  0  0  0
  3  4  1  0  0  0
  4  5  2  0  0  0
  4  6  1  0  0  0
  6 12  1  0  0  0
  6  7  2  0  0  0
  7  8  1  0  0  0
  7 25  1  0  0  0
  8  9  1  0  0  0
  8 24  1  0  0  0
  9 10  2  0  0  0
  9 11  1  0  0  0
 11 12  1  0  0  0
 11 45  1  0  0  0
 12 13  1  0  0  0
 12 14  1  0  0  0
 14 19  2  0  0  0
 14 15  1  0  0  0
 15 16  2  0  0  0
 15 46  1  0  0  0
 16 17  1  0  0  0
 16 22  1  0  0  0
 17 18  2  0  0  0
 17 47  1  0  0  0
 18 19  1  0  0  0
 18 20  1  0  0  0
 19 48  1  0  0  0
 20 21  1  0  0  0
 21 49  1  0  0  0
 21 50  1  0  0  0
 21 51  1  0  0  0
 22 23  1  0  0  0
 23 52  1  0  0  0
 23 53  1  0  0  0
 23 54  1  0  0  0
 24 55  1  0  0  0
 24 56  1  0  0  0
 24 57  1  0  0  0
 25 26  1  0  0  0
 25 58  1  0  0  0
 25 59  1  0  0  0
 26 32  1  0  0  0
 26 27  1  0  0  0
 26 80  1  0  0  0
 27 28  1  0  0  0
 27 60  1  0  0  0
 27 61  1  0  0  0
 28 29  1  0  0  0
 28 62  1  0  0  0
 28 63  1  0  0  0
 29 30  1  0  0  0
 29 64  1  0  0  0
 29 65  1  0  0  0
 30 31  1  0  0  0
 30 33  1  0  0  0
 31 32  1  0  0  0
 31 66  1  0  0  0
 31 67  1  0  0  0
 32 68  1  0  0  0
 32 69  1  0  0  0
 33 34  2  0  0  0
 33 35  1  0  0  0
 35 36  1  0  0  0
 35 70  1  0  0  0
 36 37  1  0  0  0
 36 38  1  0  0  0
 36 39  1  0  0  0
 37 71  1  0  0  0
 37 72  1  0  0  0
 37 73  1  0  0  0
 38 74  1  0  0  0
 38 75  1  0  0  0
 38 76  1  0  0  0
 39 77  1  0  0  0
 39 78  1  0  0  0
 39 79  1  0  0  0
M  CHG  1  26   1
M  END
> <i_i_glide_confnum>
283

> <i_i_glide_lignum>
5695

> <i_i_glide_posenum>
102

> <i_i_glide_rotatable_bonds>
11

> <i_m_Source_File_Index>
5164

> <b_m_subgroup_collapsed>
0

> <r_i_docking_score>
-5.40371

> <r_i_glide_ecoul>
-3.12817

> <r_i_glide_eff_state_penalty>
0

> <r_i_glide_einternal>
4.81429

> <r_i_glide_emodel>
-65.5142

> <r_i_glide_energy>
-48.236

> <r_i_glide_erotb>
0.508927

> <r_i_glide_esite>
-0.123074

> <r_i_glide_evdw>
-45.1078

> <r_i_glide_gscore>
-5.40371

> <r_i_glide_hbond>
-0.266381

> <r_i_glide_ligand_efficiency>
-0.142203

> <r_i_glide_ligand_efficiency_ln>
-1.1652

> <r_i_glide_ligand_efficiency_sa>
-0.478082

> <r_i_glide_lipo>
-2.38455

> <r_i_glide_metal>
0

> <r_i_glide_rewards>
-0.414014

> <s_i_glide_gridfile>
wee1_glide-grid

> <s_m_Source_File>
wee1_decoys_glide_SP.sdf

> <s_m_Source_Path>
/Users/zhangxujun/Desktop

> <s_m_entry_id>
5439

> <s_m_entry_name>
wee1_decoys_glide_SP.5164

> <s_m_subgroup_title>
wee1_decoys_glide_SP

> <s_m_subgroupid>
wee1_decoys_glide_SP


$$$$
