ZINC01062035_1396
                    3D
 Schrodinger Suite 2024-2.
 43 45  0  0  1  0            999 V2000
    1.4810   53.9719   23.1248 C   0  0  0  0  0  0
    2.6525   54.4830   23.7409 O   0  0  0  0  0  0
    2.9419   54.0969   25.0342 C   0  0  0  0  0  0
    2.0517   53.3771   25.8511 C   0  0  0  0  0  0
    2.4176   52.9306   27.1268 C   0  0  0  0  0  0
    3.6902   53.2969   27.5827 C   0  0  0  0  0  0
    4.5917   54.0415   26.8094 C   0  0  0  0  0  0
    4.2093   54.4267   25.5264 C   0  0  0  0  0  0
    5.1044   55.1132   24.7407 O   0  0  0  0  0  0
    5.9847   54.2816   23.9963 C   0  0  0  0  0  0
    5.8749   54.3793   27.2051 O   0  0  0  0  0  0
    6.3870   53.8745   28.4293 C   0  0  0  0  0  0
    1.5478   51.9126   27.9177 C   0  0  1  0  0  0
    2.2089   51.0453   27.9205 H   0  0  0  0  0  0
    1.2168   52.2214   29.3952 C   0  0  0  0  0  0
    1.9177   52.2871   30.6215 C   0  0  0  0  0  0
    1.1310   52.4968   31.6584 N   0  0  0  0  0  0
   -0.0956   52.4967   31.1674 N   0  0  0  0  0  0
   -0.9031   52.4038   31.7901 H   0  0  0  0  0  0
   -0.0915   52.3163   29.8178 C   0  0  0  0  0  0
   -1.2298   52.0966   29.0934 O   0  0  0  0  0  0
   -0.9901   51.6057   27.8452 C   0  0  0  0  0  0
    0.2238   51.4486   27.2531 C   0  0  0  0  0  0
    0.2872   50.8014   25.9798 C   0  0  0  0  0  0
    0.3046   50.3147   24.9301 N   0  0  0  0  0  0
   -2.2000   51.2438   27.3225 N   0  0  0  0  0  0
    3.3843   52.1504   30.8648 C   0  0  0  0  0  0
    3.6773   51.6967   32.0817 F   0  0  0  0  0  0
    3.9480   53.3361   30.7222 F   0  0  0  0  0  0
    3.9045   51.3021   29.9904 F   0  0  0  0  0  0
    1.4771   54.2684   22.0817 H   0  0  0  0  0  0
    1.4499   52.8811   23.1495 H   0  0  0  0  0  0
    0.5832   54.3688   23.6001 H   0  0  0  0  0  0
    1.0777   53.1264   25.4684 H   0  0  0  0  0  0
    4.0293   52.9406   28.5211 H   0  0  0  0  0  0
    6.6245   54.9022   23.3687 H   0  0  0  0  0  0
    6.6318   53.6966   24.6520 H   0  0  0  0  0  0
    5.4386   53.5980   23.3432 H   0  0  0  0  0  0
    7.4510   54.0966   28.5009 H   0  0  0  0  0  0
    5.8874   54.3394   29.2789 H   0  0  0  0  0  0
    6.2844   52.7912   28.4816 H   0  0  0  0  0  0
   -2.2128   50.7608   26.4362 H   0  0  0  0  0  0
   -2.9266   50.9717   27.9682 H   0  0  0  0  0  0
  1  2  1  0  0  0
  1 31  1  0  0  0
  1 32  1  0  0  0
  1 33  1  0  0  0
  2  3  1  0  0  0
  3  8  2  0  0  0
  3  4  1  0  0  0
  4  5  2  0  0  0
  4 34  1  0  0  0
  5  6  1  0  0  0
  5 13  1  0  0  0
  6  7  2  0  0  0
  6 35  1  0  0  0
  7  8  1  0  0  0
  7 11  1  0  0  0
  8  9  1  0  0  0
  9 10  1  0  0  0
 10 36  1  0  0  0
 10 37  1  0  0  0
 10 38  1  0  0  0
 11 12  1  0  0  0
 12 39  1  0  0  0
 12 40  1  0  0  0
 12 41  1  0  0  0
 13 14  1  0  0  0
 13 23  1  0  0  0
 13 15  1  0  0  0
 15 20  2  0  0  0
 15 16  1  0  0  0
 16 17  2  0  0  0
 16 27  1  0  0  0
 17 18  1  0  0  0
 18 19  1  0  0  0
 18 20  1  0  0  0
 20 21  1  0  0  0
 21 22  1  0  0  0
 22 23  2  0  0  0
 22 26  1  0  0  0
 23 24  1  0  0  0
 24 25  3  0  0  0
 26 42  1  0  0  0
 26 43  1  0  0  0
 27 28  1  0  0  0
 27 29  1  0  0  0
 27 30  1  0  0  0
M  END
> <i_i_glide_confnum>
1

> <i_i_glide_lignum>
1397

> <i_i_glide_posenum>
57

> <i_i_glide_rotatable_bonds>
6

> <i_m_Source_File_Index>
2548

> <b_m_subgroup_collapsed>
0

> <r_i_docking_score>
-6.30269

> <r_i_glide_ecoul>
-6.52439

> <r_i_glide_eff_state_penalty>
0

> <r_i_glide_einternal>
7.68785

> <r_i_glide_emodel>
-48.7529

> <r_i_glide_energy>
-38.4443

> <r_i_glide_erotb>
0.124554

> <r_i_glide_esite>
-0.219769

> <r_i_glide_evdw>
-31.92

> <r_i_glide_gscore>
-6.30269

> <r_i_glide_hbond>
-0.16

> <r_i_glide_ligand_efficiency>
-0.225096

> <r_i_glide_ligand_efficiency_ln>
-1.45485

> <r_i_glide_ligand_efficiency_sa>
-0.683524

> <r_i_glide_lipo>
-2.45727

> <r_i_glide_metal>
0

> <r_i_glide_rewards>
-1.01555

> <s_i_glide_gridfile>
wee1_glide-grid

> <s_m_Source_File>
wee1_decoys_glide_SP.sdf

> <s_m_Source_Path>
/Users/zhangxujun/Desktop

> <s_m_entry_id>
2823

> <s_m_entry_name>
wee1_decoys_glide_SP.2548

> <s_m_subgroup_title>
wee1_decoys_glide_SP

> <s_m_subgroupid>
wee1_decoys_glide_SP


$$$$
