@<TRIPOS>MOLECULE
ZINC08693968_4868
52   54    1
SMALL
USER_CHARGES


@<TRIPOS>ATOM
      1 C1         -0.0804   52.0967   30.3512 C.ar      1 UNK         0.0000 
      2 C2          1.0191   52.6932   29.7406 C.ar      1 UNK         0.0000 
      3 C3          1.0264   52.8931   28.3504 C.ar      1 UNK         0.0000 
      4 C4         -0.0787   52.4969   27.5911 C.ar      1 UNK         0.0000 
      5 C5         -1.1832   51.9083   28.2058 C.ar      1 UNK         0.0000 
      6 C6         -1.1698   51.6944   29.5854 C.ar      1 UNK         0.0000 
      7 S7         -2.6424   51.5230   27.2447 S.o2      1 UNK         0.0000 
      8 O8         -3.7221   51.1446   28.1591 O.2       1 UNK         0.0000 
      9 O9         -2.8152   52.5713   26.2306 O.2       1 UNK         0.0000 
     10 N10        -2.1507   50.0965   26.4817 N.pl3     1 UNK         0.0000 
     11 C11        -1.7670   49.9498   25.2141 C.2       1 UNK         0.0000 
     12 C12        -1.3361   50.9769   22.9608 C.3       1 UNK         0.0000 
     13 C13         0.1870   50.7714   22.8793 C.3       1 UNK         0.0000 
     14 C14         0.6452   49.3158   23.0704 C.3       1 UNK         0.0000 
     15 C15         0.3044   48.6820   24.4303 C.3       1 UNK         0.0000 
     16 C16        -1.1860   48.6417   24.7721 C.3       1 UNK         0.0000 
     17 N17         2.0773   53.4750   27.6305 N.am      1 UNK         0.0000 
     18 C18         3.2436   54.0010   28.0619 C.2       1 UNK         0.0000 
     19 O19         3.5873   54.1075   29.2403 O.2       1 UNK         0.0000 
     20 C20         4.0990   54.4731   26.9995 C.2       1 UNK         0.0000 
     21 C21         4.1465   53.9305   25.7594 C.2       1 UNK         0.0000 
     22 C22         5.0122   54.3729   24.6488 C.ar      1 UNK         0.0000 
     23 C23         6.1767   55.1017   24.9173 C.ar      1 UNK         0.0000 
     24 C24         7.0000   55.5219   23.8816 C.ar      1 UNK         0.0000 
     25 C25         6.7040   55.2000   22.5604 C.ar      1 UNK         0.0000 
     26 C26         5.5371   54.4931   22.2753 C.ar      1 UNK         0.0000 
     27 C27         4.6832   54.0966   23.3081 C.ar      1 UNK         0.0000 
     28 Cl28        3.2232   53.2683   22.8801 Cl        1 UNK         0.0000 
     29 Cl29        7.7552   55.6967   21.2852 Cl        1 UNK         0.0000 
     30 H30        -0.0950   51.9396   31.4205 H         1 UNK         0.0000 
     31 H31         1.8465   52.9799   30.3690 H         1 UNK         0.0000 
     32 H32        -0.0965   52.6607   26.5226 H         1 UNK         0.0000 
     33 H33        -2.0067   51.2162   30.0747 H         1 UNK         0.0000 
     34 H34        -2.0323   49.3371   27.1698 H         1 UNK         0.0000 
     35 H35        -1.8827   50.2350   22.3762 H         1 UNK         0.0000 
     36 H36        -1.6058   51.9601   22.5714 H         1 UNK         0.0000 
     37 H37         0.5234   51.1003   21.8940 H         1 UNK         0.0000 
     38 H38         0.6953   51.4256   23.5910 H         1 UNK         0.0000 
     39 H39         0.2275   48.7016   22.2719 H         1 UNK         0.0000 
     40 H40         1.7279   49.2716   22.9321 H         1 UNK         0.0000 
     41 H41         0.8344   49.2075   25.2264 H         1 UNK         0.0000 
     42 H42         0.7041   47.6669   24.4537 H         1 UNK         0.0000 
     43 H43        -1.3325   47.9219   25.5817 H         1 UNK         0.0000 
     44 H44        -1.7710   48.2628   23.9336 H         1 UNK         0.0000 
     45 H45         1.9239   53.5229   26.6365 H         1 UNK         0.0000 
     46 H46         4.7332   55.2971   27.2836 H         1 UNK         0.0000 
     47 H47         3.5226   53.0767   25.5341 H         1 UNK         0.0000 
     48 H48         6.4567   55.3486   25.9291 H         1 UNK         0.0000 
     49 H49         7.8847   56.0966   24.1070 H         1 UNK         0.0000 
     50 H50         5.2874   54.2622   21.2511 H         1 UNK         0.0000 
     51 N51        -1.8556   50.9521   24.3324 N.pl3     1 UNK         0.0000 
     52 H52        -2.2670   51.8094   24.6863 H         1 UNK         0.0000 
@<TRIPOS>BOND
     1    1    6 ar   
     2    1    2 ar   
     3    1   30 1    
     4    2    3 ar   
     5    2   31 1    
     6    3    4 ar   
     7    3   17 1    
     8    4    5 ar   
     9    4   32 1    
    10    5    6 ar   
    11    5    7 1    
    12    6   33 1    
    13    7    8 2    
    14    7    9 2    
    15    7   10 1    
    16   10   11 1    
    17   10   34 1    
    18   11   16 1    
    19   11   51 2    
    20   12   13 1    
    21   12   35 1    
    22   12   36 1    
    23   12   51 1    
    24   13   14 1    
    25   13   37 1    
    26   13   38 1    
    27   14   15 1    
    28   14   39 1    
    29   14   40 1    
    30   15   16 1    
    31   15   41 1    
    32   15   42 1    
    33   16   43 1    
    34   16   44 1    
    35   17   18 am   BACKBONE|DICT|INTERRES
    36   17   45 1    
    37   18   19 2    
    38   18   20 1    
    39   20   21 2    
    40   20   46 1    
    41   21   22 1    
    42   21   47 1    
    43   22   27 ar   
    44   22   23 ar   
    45   23   24 ar   
    46   23   48 1    
    47   24   25 ar   
    48   24   49 1    
    49   25   26 ar   
    50   25   29 1    
    51   26   27 ar   
    52   26   50 1    
    53   27   28 1    
    54   51   52 1    
@<TRIPOS>SUBSTRUCTURE
     1 UNK         1 GROUP             0       ****    0 ROOT    
