@<TRIPOS>MOLECULE
ZINC66135911_1822
44   45    1
SMALL
USER_CHARGES


@<TRIPOS>ATOM
      1 C1         -0.0972   52.5539   30.4287 C.3       1 UNK         0.0000 
      2 C2          0.7429   53.5280   29.6080 C.ar      1 UNK         0.0000 
      3 C3          1.3659   53.1828   28.3894 C.ar      1 UNK         0.0000 
      4 C4          2.1549   54.1814   27.7626 C.ar      1 UNK         0.0000 
      5 N5          2.3027   55.4057   28.3486 N.ar      1 UNK         0.0000 
      6 C6          1.6400   55.6404   29.5055 C.ar      1 UNK         0.0000 
      7 N7          0.8629   54.7580   30.1628 N.ar      1 UNK         0.0000 
      8 N8          1.7623   56.8942   30.0841 N.pl3     1 UNK         0.0000 
      9 C9          2.8971   54.0438   26.4570 C.ar      1 UNK         0.0000 
     10 C10         2.2376   53.6967   25.2707 C.ar      1 UNK         0.0000 
     11 C11         2.9183   53.6277   24.0526 C.ar      1 UNK         0.0000 
     12 C12         4.2921   53.9022   23.9684 C.ar      1 UNK         0.0000 
     13 C13         4.9542   54.2393   25.1628 C.ar      1 UNK         0.0000 
     14 C14         4.2693   54.3109   26.3789 C.ar      1 UNK         0.0000 
     15 C15         5.0388   53.8209   22.5949 C.3       1 UNK         0.0000 
     16 C16         5.1649   52.3663   22.0795 C.3       1 UNK         0.0000 
     17 C17         6.4628   54.4397   22.6559 C.3       1 UNK         0.0000 
     18 C18         4.2718   54.5847   21.4951 C.3       1 UNK         0.0000 
     19 C19         1.2798   51.7722   27.8931 C.2       1 UNK         0.0000 
     20 O20         1.9046   50.8969   28.4812 O.2       1 UNK         0.0000 
     21 N21         0.4516   51.5462   26.8654 N.am      1 UNK         0.0000 
     22 C22         0.2076   50.2167   26.3139 C.3       1 UNK         0.0000 
     23 H23        -0.9360   52.1807   29.8419 H         1 UNK         0.0000 
     24 H24         0.5047   51.6987   30.7339 H         1 UNK         0.0000 
     25 H25        -0.4960   53.0071   31.3369 H         1 UNK         0.0000 
     26 H26         1.3074   57.0668   30.9684 H         1 UNK         0.0000 
     27 H27         2.3883   57.5792   29.6821 H         1 UNK         0.0000 
     28 H28         1.1760   53.5065   25.2772 H         1 UNK         0.0000 
     29 H29         2.3610   53.3490   23.1709 H         1 UNK         0.0000 
     30 H30         6.0114   54.4513   25.1743 H         1 UNK         0.0000 
     31 H31         4.8130   54.5833   27.2721 H         1 UNK         0.0000 
     32 H32         5.5042   52.3384   21.0430 H         1 UNK         0.0000 
     33 H33         4.2121   51.8356   22.0817 H         1 UNK         0.0000 
     34 H34         5.9041   51.7943   22.6350 H         1 UNK         0.0000 
     35 H35         6.4462   55.4566   23.0500 H         1 UNK         0.0000 
     36 H36         7.1371   53.8535   23.2817 H         1 UNK         0.0000 
     37 H37         6.9216   54.4982   21.6690 H         1 UNK         0.0000 
     38 H38         4.3095   55.6463   21.6817 H         1 UNK         0.0000 
     39 H39         4.7206   54.4448   20.5107 H         1 UNK         0.0000 
     40 H40         3.2271   54.2894   21.4065 H         1 UNK         0.0000 
     41 H41        -0.1058   52.3066   26.5091 H         1 UNK         0.0000 
     42 H42        -0.1120   50.2918   25.2749 H         1 UNK         0.0000 
     43 H43         1.0987   49.5871   26.3469 H         1 UNK         0.0000 
     44 H44        -0.5765   49.7156   26.8811 H         1 UNK         0.0000 
@<TRIPOS>BOND
     1    1    2 1    
     2    1   23 1    
     3    1   24 1    
     4    1   25 1    
     5    2    7 ar   
     6    2    3 ar   
     7    3    4 ar   
     8    3   19 1    
     9    4    5 ar   
    10    4    9 1    
    11    5    6 ar   
    12    6    7 ar   
    13    6    8 1    
    14    8   26 1    
    15    8   27 1    
    16    9   14 ar   
    17    9   10 ar   
    18   10   11 ar   
    19   10   28 1    
    20   11   12 ar   
    21   11   29 1    
    22   12   13 ar   
    23   12   15 1    
    24   13   14 ar   
    25   13   30 1    
    26   14   31 1    
    27   15   16 1    
    28   15   17 1    
    29   15   18 1    
    30   16   32 1    
    31   16   33 1    
    32   16   34 1    
    33   17   35 1    
    34   17   36 1    
    35   17   37 1    
    36   18   38 1    
    37   18   39 1    
    38   18   40 1    
    39   19   20 2    
    40   19   21 am   BACKBONE|DICT|INTERRES
    41   21   22 1    
    42   21   41 1    
    43   22   42 1    
    44   22   43 1    
    45   22   44 1    
@<TRIPOS>SUBSTRUCTURE
     1 UNK         1 GROUP             0       ****    0 ROOT    
