ZINC39665806_3069
                    3D
 Schrodinger Suite 2024-2.
 70 74  0  0  1  0            999 V2000
    1.0461   55.0195   28.7198 C   0  0  0  0  0  0
    1.7148   53.7465   29.2847 C   0  0  1  0  0  0
    1.3699   53.6804   30.3181 H   0  0  0  0  0  0
    1.3067   52.3897   28.6347 C   0  0  0  0  0  0
    0.4360   52.5106   27.4586 N   0  0  0  0  0  0
    0.1871   51.5317   26.5790 C   0  0  0  0  0  0
    0.7043   50.4224   26.6733 O   0  0  0  0  0  0
   -0.7095   51.8972   25.3665 C   0  0  1  0  0  0
   -0.7916   52.9817   25.2896 H   0  0  0  0  0  0
   -0.0344   51.3743   24.0839 C   0  0  0  0  0  0
   -1.1475   51.2640   23.1360 N   0  0  0  0  0  0
   -2.4404   51.3397   23.8350 C   0  0  0  0  0  0
   -2.1191   51.2481   25.3480 C   0  0  0  0  0  0
   -2.1317   49.7662   25.8417 C   0  0  0  0  0  0
   -3.5042   49.0865   25.6870 C   0  0  0  0  0  0
   -4.5304   49.9131   26.4895 N   0  3  0  0  0  0
   -4.5575   51.4152   26.1159 C   0  0  0  0  0  0
   -3.1296   51.9793   26.2703 C   0  0  0  0  0  0
   -1.0758   51.4222   21.7817 C   0  0  0  0  0  0
   -2.0825   51.7015   21.1307 O   0  0  0  0  0  0
    0.2100   51.2501   21.0936 C   0  0  0  0  0  0
    1.3106   50.5496   21.5860 C   0  0  0  0  0  0
    2.7042   50.4954   20.5591 S   0  0  0  0  0  0
    1.8022   51.3057   19.3069 C   0  0  0  0  0  0
    0.4746   51.6515   19.7263 C   0  0  0  0  0  0
   -0.3393   52.3079   18.7748 C   0  0  0  0  0  0
    0.1484   52.5997   17.5021 C   0  0  0  0  0  0
    1.4374   52.2440   17.1329 C   0  0  0  0  0  0
    2.2826   51.5913   18.0210 C   0  0  0  0  0  0
    3.1289   53.9282   29.4254 O   0  0  0  0  0  0
    3.9802   54.0688   28.3398 C   0  0  0  0  0  0
    3.6122   53.9333   26.9956 C   0  0  0  0  0  0
    4.5555   54.0961   25.9846 C   0  0  0  0  0  0
    5.8938   54.3730   26.3007 C   0  0  0  0  0  0
    6.2573   54.4968   27.6391 C   0  0  0  0  0  0
    5.3069   54.3627   28.6449 C   0  0  0  0  0  0
    6.8997   54.5364   25.3692 O   0  0  0  0  0  0
    6.6028   54.3306   23.9917 C   0  0  0  0  0  0
   -0.0216   54.8610   28.5677 H   0  0  0  0  0  0
    1.1600   55.8586   29.4049 H   0  0  0  0  0  0
    1.4602   55.3284   27.7632 H   0  0  0  0  0  0
    2.2061   51.8277   28.3735 H   0  0  0  0  0  0
    0.7893   51.7697   29.3716 H   0  0  0  0  0  0
   -0.0212   53.3994   27.3325 H   0  0  0  0  0  0
    0.7610   52.0603   23.7860 H   0  0  0  0  0  0
    0.3070   50.3581   24.2813 H   0  0  0  0  0  0
   -3.2177   50.6700   23.4682 H   0  0  0  0  0  0
   -2.8254   52.3442   23.6501 H   0  0  0  0  0  0
   -1.4059   49.1746   25.2841 H   0  0  0  0  0  0
   -1.8114   49.6970   26.8816 H   0  0  0  0  0  0
   -3.8610   49.0209   24.6597 H   0  0  0  0  0  0
   -3.5042   48.0885   26.1292 H   0  0  0  0  0  0
   -5.4515   49.5085   26.3888 H   0  0  0  0  0  0
   -4.9436   51.4830   25.0969 H   0  0  0  0  0  0
   -5.2661   51.8880   26.7985 H   0  0  0  0  0  0
   -2.7972   51.9526   27.3110 H   0  0  0  0  0  0
   -3.1592   53.0382   26.0052 H   0  0  0  0  0  0
    1.4102   50.0290   22.5263 H   0  0  0  0  0  0
   -1.3503   52.5920   19.0143 H   0  0  0  0  0  0
   -0.4858   53.1046   16.7880 H   0  0  0  0  0  0
    1.7886   52.4687   16.1364 H   0  0  0  0  0  0
    3.2818   51.2987   17.7212 H   0  0  0  0  0  0
    2.6018   53.7018   26.7059 H   0  0  0  0  0  0
    4.2314   53.9869   24.9610 H   0  0  0  0  0  0
    7.2815   54.7187   27.9002 H   0  0  0  0  0  0
    5.5984   54.4988   29.6770 H   0  0  0  0  0  0
    7.5044   54.4736   23.3972 H   0  0  0  0  0  0
    5.8623   55.0451   23.6320 H   0  0  0  0  0  0
    6.2437   53.3174   23.8033 H   0  0  0  0  0  0
   -4.2884   49.8248   27.4696 H   0  0  0  0  0  0
  1  2  1  0  0  0
  1 39  1  0  0  0
  1 40  1  0  0  0
  1 41  1  0  0  0
  2  3  1  0  0  0
  2  4  1  0  0  0
  2 30  1  0  0  0
  4  5  1  0  0  0
  4 42  1  0  0  0
  4 43  1  0  0  0
  5  6  1  0  0  0
  5 44  1  0  0  0
  6  7  2  0  0  0
  6  8  1  0  0  0
  8  9  1  0  0  0
  8 13  1  0  0  0
  8 10  1  0  0  0
 10 11  1  0  0  0
 10 45  1  0  0  0
 10 46  1  0  0  0
 11 12  1  0  0  0
 11 19  1  0  0  0
 12 13  1  0  0  0
 12 47  1  0  0  0
 12 48  1  0  0  0
 13 18  1  0  0  0
 13 14  1  0  0  0
 14 15  1  0  0  0
 14 49  1  0  0  0
 14 50  1  0  0  0
 15 16  1  0  0  0
 15 51  1  0  0  0
 15 52  1  0  0  0
 16 17  1  0  0  0
 16 53  1  0  0  0
 16 70  1  0  0  0
 17 18  1  0  0  0
 17 54  1  0  0  0
 17 55  1  0  0  0
 18 56  1  0  0  0
 18 57  1  0  0  0
 19 20  2  0  0  0
 19 21  1  0  0  0
 21 25  1  0  0  0
 21 22  2  0  0  0
 22 23  1  0  0  0
 22 58  1  0  0  0
 23 24  1  0  0  0
 24 29  2  0  0  0
 24 25  1  0  0  0
 25 26  2  0  0  0
 26 27  1  0  0  0
 26 59  1  0  0  0
 27 28  2  0  0  0
 27 60  1  0  0  0
 28 29  1  0  0  0
 28 61  1  0  0  0
 29 62  1  0  0  0
 30 31  1  0  0  0
 31 36  2  0  0  0
 31 32  1  0  0  0
 32 33  2  0  0  0
 32 63  1  0  0  0
 33 34  1  0  0  0
 33 64  1  0  0  0
 34 35  2  0  0  0
 34 37  1  0  0  0
 35 36  1  0  0  0
 35 65  1  0  0  0
 36 66  1  0  0  0
 37 38  1  0  0  0
 38 67  1  0  0  0
 38 68  1  0  0  0
 38 69  1  0  0  0
M  CHG  1  16   1
M  END
> <i_i_glide_confnum>
91

> <i_i_glide_lignum>
3070

> <i_i_glide_posenum>
153

> <i_i_glide_rotatable_bonds>
9

> <i_m_Source_File_Index>
326

> <b_m_subgroup_collapsed>
0

> <r_i_docking_score>
-4.62603

> <r_i_glide_ecoul>
-4.76414

> <r_i_glide_eff_state_penalty>
0

> <r_i_glide_einternal>
14.9759

> <r_i_glide_emodel>
-53.6904

> <r_i_glide_energy>
-45.9039

> <r_i_glide_erotb>
0.633088

> <r_i_glide_esite>
-0.0393848

> <r_i_glide_evdw>
-41.1397

> <r_i_glide_gscore>
-4.62603

> <r_i_glide_hbond>
-0.133738

> <r_i_glide_ligand_efficiency>
-0.128501

> <r_i_glide_ligand_efficiency_ln>
-1.00927

> <r_i_glide_ligand_efficiency_sa>
-0.4243

> <r_i_glide_lipo>
-2.36084

> <r_i_glide_metal>
0

> <r_i_glide_rewards>
0.0464513

> <s_i_glide_gridfile>
wee1_glide-grid

> <s_m_Source_File>
wee1_decoys_glide_SP.sdf

> <s_m_Source_Path>
/Users/zhangxujun/Desktop

> <s_m_entry_id>
601

> <s_m_entry_name>
wee1_decoys_glide_SP.326

> <s_m_subgroup_title>
wee1_decoys_glide_SP

> <s_m_subgroupid>
wee1_decoys_glide_SP


$$$$
