@<TRIPOS>MOLECULE
ZINC13077350_513
43   46    1
SMALL
USER_CHARGES


@<TRIPOS>ATOM
      1 C1         -2.8890   47.0817   20.6947 C.3       1 UNK         0.0000 
      2 C2         -1.6836   46.3809   21.3616 C.3       1 UNK         0.0000 
      3 H3         -0.7447   46.7224   20.9224 H         1 UNK         0.0000 
      4 C4         -1.7773   44.8475   21.1266 C.2       1 UNK         0.0000 
      5 O5         -1.5021   44.4241   19.9808 O.co2     1 UNK         0.0000 
      6 O6         -1.7102   46.6078   22.7772 O.3       1 UNK         0.0000 
      7 C7         -1.1794   47.7514   23.3429 C.ar      1 UNK         0.0000 
      8 C8         -0.7146   48.8774   22.6474 C.ar      1 UNK         0.0000 
      9 C9         -0.1885   49.9706   23.3455 C.ar      1 UNK         0.0000 
     10 C10        -0.1087   49.9705   24.7504 C.ar      1 UNK         0.0000 
     11 C11        -0.5552   48.8176   25.4114 C.ar      1 UNK         0.0000 
     12 C12        -1.0919   47.7379   24.7271 C.ar      1 UNK         0.0000 
     13 C13         0.4118   51.1388   25.5455 C.2       1 UNK         0.0000 
     14 C14         1.1040   52.1668   24.9878 C.2       1 UNK         0.0000 
     15 C15         1.6297   53.3940   25.7544 C.3       1 UNK         0.0000 
     16 H16         1.1492   54.2734   25.3268 H         1 UNK         0.0000 
     17 N17         1.1587   53.2778   27.1518 N.pl3     1 UNK         0.0000 
     18 C18         0.5129   52.1947   27.7132 C.ar      1 UNK         0.0000 
     19 N19         0.2040   52.4266   28.9633 N.2       1 UNK         0.0000 
     20 N20         0.6855   53.7070   29.2221 N.2       1 UNK         0.0000 
     21 N21         1.2565   54.2424   28.0820 N.2       1 UNK         0.0000 
     22 N22         0.1194   51.1460   26.9083 N.pl3     1 UNK         0.0000 
     23 C23         3.1273   53.7177   25.5875 C.ar      1 UNK         0.0000 
     24 C24         3.6017   54.1061   24.3275 C.ar      1 UNK         0.0000 
     25 C25         4.9347   54.4833   24.1511 C.ar      1 UNK         0.0000 
     26 C26         5.8151   54.4803   25.2316 C.ar      1 UNK         0.0000 
     27 C27         5.3654   54.0765   26.4889 C.ar      1 UNK         0.0000 
     28 C28         4.0329   53.6968   26.6633 C.ar      1 UNK         0.0000 
     29 Br29        6.5658   54.0149   27.9675 Br        1 UNK         0.0000 
     30 F30         7.1019   54.8610   25.0541 F         1 UNK         0.0000 
     31 H31        -2.9061   46.9082   19.6172 H         1 UNK         0.0000 
     32 H32        -3.8355   46.7266   21.1052 H         1 UNK         0.0000 
     33 H33        -2.8576   48.1599   20.8462 H         1 UNK         0.0000 
     34 H34        -0.7589   48.9205   21.5706 H         1 UNK         0.0000 
     35 H35         0.1358   50.8240   22.7713 H         1 UNK         0.0000 
     36 H36        -0.4939   48.7280   26.4816 H         1 UNK         0.0000 
     37 H37        -1.4261   46.8773   25.2875 H         1 UNK         0.0000 
     38 H38         1.3510   52.1132   23.9394 H         1 UNK         0.0000 
     39 H39        -0.6037   50.5211   27.2423 H         1 UNK         0.0000 
     40 H40         2.9314   54.1352   23.4801 H         1 UNK         0.0000 
     41 H41         5.2853   54.7861   23.1755 H         1 UNK         0.0000 
     42 H42         3.7177   53.3816   27.6468 H         1 UNK         0.0000 
     43 O43        -2.0963   44.0973   22.0816 O.co2     1 UNK         0.0000 
@<TRIPOS>BOND
     1    1    2 1    
     2    1   31 1    
     3    1   32 1    
     4    1   33 1    
     5    2    3 1    
     6    2    4 1    
     7    2    6 1    
     8    4    5 2    
     9    4   43 1    
    10    6    7 1    
    11    7   12 ar   
    12    7    8 ar   
    13    8    9 ar   
    14    8   34 1    
    15    9   10 ar   
    16    9   35 1    
    17   10   11 ar   
    18   10   13 1    
    19   11   12 ar   
    20   11   36 1    
    21   12   37 1    
    22   13   22 1    
    23   13   14 2    
    24   14   15 1    
    25   14   38 1    
    26   15   16 1    
    27   15   17 1    
    28   15   23 1    
    29   17   21 ar   
    30   17   18 ar   
    31   18   19 ar   
    32   18   22 1    
    33   19   20 ar   
    34   20   21 ar   
    35   22   39 1    
    36   23   28 ar   
    37   23   24 ar   
    38   24   25 ar   
    39   24   40 1    
    40   25   26 ar   
    41   25   41 1    
    42   26   27 ar   
    43   26   30 1    
    44   27   28 ar   
    45   27   29 1    
    46   28   42 1    
@<TRIPOS>SUBSTRUCTURE
     1 UNK         1 GROUP             0       ****    0 ROOT    
