@<TRIPOS>MOLECULE
ZINC39636040_781
75   79    1
SMALL
USER_CHARGES


@<TRIPOS>ATOM
      1 C1          7.3305   58.8425   15.9104 C.3       1 UNK         0.0000 
      2 C2          6.7363   57.8005   16.8404 C.ar      1 UNK         0.0000 
      3 C3          7.5579   56.8265   17.4113 C.ar      1 UNK         0.0000 
      4 C4          7.0187   55.8943   18.2961 C.ar      1 UNK         0.0000 
      5 C5          5.6612   55.9529   18.6302 C.ar      1 UNK         0.0000 
      6 C6          4.8386   56.8966   18.0202 C.ar      1 UNK         0.0000 
      7 C7          5.3736   57.8308   17.1381 C.ar      1 UNK         0.0000 
      8 O8          5.0854   55.0808   19.5332 O.3       1 UNK         0.0000 
      9 C9          5.5575   54.8964   20.8268 C.ar      1 UNK         0.0000 
     10 C10         4.9829   53.9204   21.6678 C.ar      1 UNK         0.0000 
     11 C11         5.5900   53.6967   22.9119 C.ar      1 UNK         0.0000 
     12 C12         6.6562   54.4786   23.3319 C.ar      1 UNK         0.0000 
     13 C13         7.1039   55.4754   22.4788 C.ar      1 UNK         0.0000 
     14 N14         6.5851   55.6879   21.2505 N.ar      1 UNK         0.0000 
     15 C15         3.7748   53.1237   21.2331 C.2       1 UNK         0.0000 
     16 O16         3.7630   52.6269   20.1075 O.2       1 UNK         0.0000 
     17 N17         2.7169   53.0082   22.0819 N.am      1 UNK         0.0000 
     18 C18         2.6195   53.5092   23.4558 C.3       1 UNK         0.0000 
     19 C19         1.1707   53.1753   23.8843 C.3       1 UNK         0.0000 
     20 H20         0.5656   54.0630   23.7010 H         1 UNK         0.0000 
     21 C21         0.7507   51.9831   22.9721 C.3       1 UNK         0.0000 
     22 C22         1.4818   52.3521   21.6608 C.3       1 UNK         0.0000 
     23 C23        -0.7806   51.8295   22.8121 C.3       1 UNK         0.0000 
     24 C24        -1.1281   50.7741   21.7386 C.3       1 UNK         0.0000 
     25 N25        -0.5223   49.4170   22.1733 N.4       1 UNK         0.0000 
     26 C26         0.9892   49.4568   22.5008 C.3       1 UNK         0.0000 
     27 C27         1.2343   50.5960   23.5032 C.3       1 UNK         0.0000 
     28 C28         1.0881   52.8964   25.4143 C.2       1 UNK         0.0000 
     29 O29         0.0462   52.4177   25.8565 O.2       1 UNK         0.0000 
     30 N30         2.1060   53.2350   26.2287 N.am      1 UNK         0.0000 
     31 C31         2.1881   52.9546   27.6702 C.3       1 UNK         0.0000 
     32 H32         2.0316   51.8757   27.7533 H         1 UNK         0.0000 
     33 C33         3.6188   53.2033   28.2119 C.3       1 UNK         0.0000 
     34 C34         3.9418   54.6999   28.3738 C.3       1 UNK         0.0000 
     35 C35         2.9065   55.3916   29.2780 C.3       1 UNK         0.0000 
     36 C36         1.4659   55.1596   28.7891 C.3       1 UNK         0.0000 
     37 C37         1.1152   53.6694   28.5606 C.3       1 UNK         0.0000 
     38 H38         0.1622   53.6611   28.0311 H         1 UNK         0.0000 
     39 C39         0.8817   52.9185   29.8910 C.3       1 UNK         0.0000 
     40 H40         8.3100   59.1648   16.2715 H         1 UNK         0.0000 
     41 H41         7.4516   58.4355   14.9050 H         1 UNK         0.0000 
     42 H42         6.7083   59.7389   15.8619 H         1 UNK         0.0000 
     43 H43         8.6111   56.7937   17.1744 H         1 UNK         0.0000 
     44 H44         7.6564   55.1450   18.7400 H         1 UNK         0.0000 
     45 H45         3.7862   56.9175   18.2555 H         1 UNK         0.0000 
     46 H46         4.7331   58.5855   16.7024 H         1 UNK         0.0000 
     47 H47         5.2663   52.9096   23.5679 H         1 UNK         0.0000 
     48 H48         7.1233   54.3205   24.2926 H         1 UNK         0.0000 
     49 H49         7.9049   56.1174   22.7806 H         1 UNK         0.0000 
     50 H50         2.8313   54.5775   23.5342 H         1 UNK         0.0000 
     51 H51         3.3010   52.8976   24.0417 H         1 UNK         0.0000 
     52 H52         1.6000   51.5317   20.9559 H         1 UNK         0.0000 
     53 H53         0.8885   53.1059   21.1404 H         1 UNK         0.0000 
     54 H54        -1.2672   51.6079   23.7634 H         1 UNK         0.0000 
     55 H55        -1.2073   52.7794   22.4878 H         1 UNK         0.0000 
     56 H56        -2.2032   50.6145   21.6481 H         1 UNK         0.0000 
     57 H57        -0.7209   51.0032   20.7528 H         1 UNK         0.0000 
     58 H58        -1.0103   49.1110   23.0059 H         1 UNK         0.0000 
     59 H59         1.2462   48.4967   22.9418 H         1 UNK         0.0000 
     60 H60         1.5332   49.5549   21.5607 H         1 UNK         0.0000 
     61 H61         2.3052   50.6313   23.6829 H         1 UNK         0.0000 
     62 H62         0.7909   50.3443   24.4685 H         1 UNK         0.0000 
     63 H63         2.8288   53.8352   25.8614 H         1 UNK         0.0000 
     64 H64         4.3550   52.7374   27.5537 H         1 UNK         0.0000 
     65 H65         3.7406   52.7012   29.1726 H         1 UNK         0.0000 
     66 H66         3.9602   55.1799   27.3941 H         1 UNK         0.0000 
     67 H67         4.9420   54.8233   28.7915 H         1 UNK         0.0000 
     68 H68         3.1044   56.4636   29.3275 H         1 UNK         0.0000 
     69 H69         3.0066   55.0104   30.2926 H         1 UNK         0.0000 
     70 H70         0.7628   55.6104   29.4912 H         1 UNK         0.0000 
     71 H71         1.3253   55.6967   27.8530 H         1 UNK         0.0000 
     72 H72         1.7777   52.8852   30.5110 H         1 UNK         0.0000 
     73 H73         0.0955   53.3933   30.4779 H         1 UNK         0.0000 
     74 H74         0.5648   51.8895   29.7128 H         1 UNK         0.0000 
     75 H75        -0.6984   48.7204   21.4613 H         1 UNK         0.0000 
@<TRIPOS>BOND
     1    1    2 1    
     2    1   40 1    
     3    1   41 1    
     4    1   42 1    
     5    2    7 ar   
     6    2    3 ar   
     7    3    4 ar   
     8    3   43 1    
     9    4    5 ar   
    10    4   44 1    
    11    5    6 ar   
    12    5    8 1    
    13    6    7 ar   
    14    6   45 1    
    15    7   46 1    
    16    8    9 1    
    17    9   14 ar   
    18    9   10 ar   
    19   10   11 ar   
    20   10   15 1    
    21   11   12 ar   
    22   11   47 1    
    23   12   13 ar   
    24   12   48 1    
    25   13   14 ar   
    26   13   49 1    
    27   15   16 2    
    28   15   17 am   BACKBONE|DICT|INTERRES
    29   17   22 1    
    30   17   18 1    
    31   18   19 1    
    32   18   50 1    
    33   18   51 1    
    34   19   20 1    
    35   19   21 1    
    36   19   28 1    
    37   21   27 1    
    38   21   22 1    
    39   21   23 1    
    40   22   52 1    
    41   22   53 1    
    42   23   24 1    
    43   23   54 1    
    44   23   55 1    
    45   24   25 1    
    46   24   56 1    
    47   24   57 1    
    48   25   26 1    
    49   25   58 1    
    50   25   75 1    
    51   26   27 1    
    52   26   59 1    
    53   26   60 1    
    54   27   61 1    
    55   27   62 1    
    56   28   29 2    
    57   28   30 am   BACKBONE|DICT|INTERRES
    58   30   31 1    
    59   30   63 1    
    60   31   32 1    
    61   31   37 1    
    62   31   33 1    
    63   33   34 1    
    64   33   64 1    
    65   33   65 1    
    66   34   35 1    
    67   34   66 1    
    68   34   67 1    
    69   35   36 1    
    70   35   68 1    
    71   35   69 1    
    72   36   37 1    
    73   36   70 1    
    74   36   71 1    
    75   37   38 1    
    76   37   39 1    
    77   39   72 1    
    78   39   73 1    
    79   39   74 1    
@<TRIPOS>SUBSTRUCTURE
     1 UNK         1 GROUP             0       ****    0 ROOT    
