ZINC25172389_707
                    3D
 Schrodinger Suite 2024-2.
 63 67  0  0  1  0            999 V2000
    5.4151   54.3745   25.7617 C   0  0  0  0  0  0
    4.0688   54.4967   25.4297 C   0  0  0  0  0  0
    3.6717   54.3798   24.0995 C   0  0  0  0  0  0
    4.6119   54.1201   23.0923 C   0  0  0  0  0  0
    5.9538   53.9401   23.4544 C   0  0  0  0  0  0
    6.3578   54.0967   24.7771 C   0  0  0  0  0  0
    4.1397   54.1388   21.6201 C   0  0  1  0  0  0
    5.2148   54.3462   20.5097 C   0  0  0  0  0  0
    5.1598   53.6216   19.3044 C   0  0  0  0  0  0
    6.1530   53.7016   18.3289 C   0  0  0  0  0  0
    7.2425   54.5418   18.5684 C   0  0  0  0  0  0
    7.2824   55.3098   19.7599 C   0  0  0  0  0  0
    6.2623   55.2674   20.7164 C   0  0  0  0  0  0
    8.4837   55.9785   19.6784 N   0  0  0  0  0  0
    9.0751   55.5956   18.4976 C   0  0  0  0  0  0
    8.3584   54.7524   17.8012 N   0  0  0  0  0  0
    3.1023   53.1273   21.3555 N   0  0  0  0  0  0
    3.2893   51.7980   21.2807 C   0  0  0  0  0  0
    4.4089   51.2967   21.3351 O   0  0  0  0  0  0
    2.0590   50.9451   21.0682 C   0  0  0  0  0  0
    2.1624   49.7470   20.3477 C   0  0  0  0  0  0
    1.0461   48.9413   20.1349 C   0  0  0  0  0  0
   -0.1953   49.3248   20.6335 C   0  0  0  0  0  0
   -0.3244   50.5131   21.3563 C   0  0  0  0  0  0
    0.8018   51.3168   21.5781 C   0  0  0  0  0  0
   -1.9419   51.0324   21.9397 S   0  0  0  0  0  0
   -1.9329   52.4967   21.9158 O   0  0  0  0  0  0
   -2.9456   50.2851   21.1718 O   0  0  0  0  0  0
   -2.0754   50.5469   23.6439 N   0  0  0  0  0  0
   -1.2720   51.3127   24.6332 C   0  0  0  0  0  0
   -0.4265   50.4666   25.6061 C   0  0  0  0  0  0
    0.3411   49.2889   24.9822 C   0  0  0  0  0  0
   -0.4956   48.0093   24.8077 C   0  0  0  0  0  0
   -1.6374   48.0576   23.7818 C   0  0  0  0  0  0
   -2.6384   49.2097   23.9565 C   0  0  0  0  0  0
    5.7269   54.4768   26.7908 H   0  0  0  0  0  0
    3.3369   54.7039   26.1969 H   0  0  0  0  0  0
    2.6309   54.5189   23.8477 H   0  0  0  0  0  0
    6.7034   53.7001   22.7179 H   0  0  0  0  0  0
    7.3987   53.9844   25.0360 H   0  0  0  0  0  0
    3.5677   55.0615   21.5644 H   0  0  0  0  0  0
    4.3478   52.9409   19.1022 H   0  0  0  0  0  0
    6.0950   53.0995   17.4335 H   0  0  0  0  0  0
    6.3179   55.8641   21.6145 H   0  0  0  0  0  0
   10.0508   55.9816   18.2331 H   0  0  0  0  0  0
    2.2049   53.4956   21.0730 H   0  0  0  0  0  0
    3.1046   49.4340   19.9243 H   0  0  0  0  0  0
    1.1440   48.0286   19.5659 H   0  0  0  0  0  0
   -1.0584   48.7025   20.4433 H   0  0  0  0  0  0
    0.6907   52.2338   22.1398 H   0  0  0  0  0  0
   -0.6993   52.0963   24.1366 H   0  0  0  0  0  0
   -1.9885   51.8339   25.2696 H   0  0  0  0  0  0
    0.2806   51.1336   26.1023 H   0  0  0  0  0  0
   -1.0609   50.0881   26.4117 H   0  0  0  0  0  0
    0.7995   49.5801   24.0363 H   0  0  0  0  0  0
    1.1712   49.0368   25.6432 H   0  0  0  0  0  0
   -0.8977   47.7167   25.7801 H   0  0  0  0  0  0
    0.1806   47.2024   24.5234 H   0  0  0  0  0  0
   -2.1866   47.1177   23.8453 H   0  0  0  0  0  0
   -1.2249   48.0723   22.7745 H   0  0  0  0  0  0
   -3.1219   49.2309   24.9344 H   0  0  0  0  0  0
   -3.4535   49.0345   23.2538 H   0  0  0  0  0  0
    8.9214   56.6067   20.3365 H   0  0  0  0  0  0
  1  6  2  0  0  0
  1  2  1  0  0  0
  1 36  1  0  0  0
  2  3  2  0  0  0
  2 37  1  0  0  0
  3  4  1  0  0  0
  3 38  1  0  0  0
  4  5  2  0  0  0
  4  7  1  0  0  0
  5  6  1  0  0  0
  5 39  1  0  0  0
  6 40  1  0  0  0
  7  8  1  0  0  0
  7 17  1  0  0  0
  7 41  1  0  0  0
  8 13  2  0  0  0
  8  9  1  0  0  0
  9 10  2  0  0  0
  9 42  1  0  0  0
 10 11  1  0  0  0
 10 43  1  0  0  0
 11 16  1  0  0  0
 11 12  2  0  0  0
 12 13  1  0  0  0
 12 14  1  0  0  0
 13 44  1  0  0  0
 14 15  1  0  0  0
 14 63  1  0  0  0
 15 16  2  0  0  0
 15 45  1  0  0  0
 17 18  1  0  0  0
 17 46  1  0  0  0
 18 19  2  0  0  0
 18 20  1  0  0  0
 20 25  2  0  0  0
 20 21  1  0  0  0
 21 22  2  0  0  0
 21 47  1  0  0  0
 22 23  1  0  0  0
 22 48  1  0  0  0
 23 24  2  0  0  0
 23 49  1  0  0  0
 24 25  1  0  0  0
 24 26  1  0  0  0
 25 50  1  0  0  0
 26 27  2  0  0  0
 26 28  2  0  0  0
 26 29  1  0  0  0
 29 35  1  0  0  0
 29 30  1  0  0  0
 30 31  1  0  0  0
 30 51  1  0  0  0
 30 52  1  0  0  0
 31 32  1  0  0  0
 31 53  1  0  0  0
 31 54  1  0  0  0
 32 33  1  0  0  0
 32 55  1  0  0  0
 32 56  1  0  0  0
 33 34  1  0  0  0
 33 57  1  0  0  0
 33 58  1  0  0  0
 34 35  1  0  0  0
 34 59  1  0  0  0
 34 60  1  0  0  0
 35 61  1  0  0  0
 35 62  1  0  0  0
M  END
> <i_i_glide_confnum>
803

> <i_i_glide_lignum>
708

> <i_i_glide_posenum>
57

> <i_i_glide_rotatable_bonds>
7

> <i_m_Source_File_Index>
5420

> <b_m_subgroup_collapsed>
0

> <r_i_docking_score>
-5.08892

> <r_i_glide_ecoul>
-6.43767

> <r_i_glide_eff_state_penalty>
0

> <r_i_glide_einternal>
4.5778

> <r_i_glide_emodel>
-63.2615

> <r_i_glide_energy>
-49.9731

> <r_i_glide_erotb>
0.59633

> <r_i_glide_esite>
-0.0197437

> <r_i_glide_evdw>
-43.5354

> <r_i_glide_gscore>
-5.08892

> <r_i_glide_hbond>
-0.325429

> <r_i_glide_ligand_efficiency>
-0.145398

> <r_i_glide_ligand_efficiency_ln>
-1.11713

> <r_i_glide_ligand_efficiency_sa>
-0.475605

> <r_i_glide_lipo>
-2.06142

> <r_i_glide_metal>
0

> <r_i_glide_rewards>
-0.136232

> <s_i_glide_gridfile>
wee1_glide-grid

> <s_m_Source_File>
wee1_decoys_glide_SP.sdf

> <s_m_Source_Path>
/Users/zhangxujun/Desktop

> <s_m_entry_id>
5695

> <s_m_entry_name>
wee1_decoys_glide_SP.5420

> <s_m_subgroup_title>
wee1_decoys_glide_SP

> <s_m_subgroupid>
wee1_decoys_glide_SP


$$$$
