@<TRIPOS>MOLECULE
ZINC64794457_860
50   54    1
SMALL
USER_CHARGES


@<TRIPOS>ATOM
      1 C1          6.3884   54.4492   27.4778 C.3       1 UNK         0.0000 
      2 O2          6.7255   54.6469   26.1079 O.3       1 UNK         0.0000 
      3 C3          5.7499   54.4670   25.1451 C.ar      1 UNK         0.0000 
      4 C4          6.1756   54.4821   23.8152 C.ar      1 UNK         0.0000 
      5 C5          5.2686   54.2846   22.7735 C.ar      1 UNK         0.0000 
      6 C6          3.9166   54.0906   23.0541 C.ar      1 UNK         0.0000 
      7 C7          3.4676   54.0646   24.3778 C.ar      1 UNK         0.0000 
      8 C8          4.3856   54.2589   25.4183 C.ar      1 UNK         0.0000 
      9 C9          1.9911   53.8349   24.6753 C.3       1 UNK         0.0000 
     10 S10         1.5045   52.0985   24.4253 S.3       1 UNK         0.0000 
     11 C11        -0.2356   52.2998   24.5758 C.ar      1 UNK         0.0000 
     12 N12        -0.9534   52.8958   23.6651 N.2       1 UNK         0.0000 
     13 N13        -2.2712   52.8692   24.0819 N.2       1 UNK         0.0000 
     14 C14        -2.3095   52.2499   25.2372 C.ar      1 UNK         0.0000 
     15 N15        -1.0287   51.8789   25.6294 N.pl3     1 UNK         0.0000 
     16 C16        -0.5784   51.1833   26.8425 C.3       1 UNK         0.0000 
     17 C17        -0.1957   52.0951   27.9887 C.2       1 UNK         0.0000 
     18 C18        -0.4956   52.0958   29.3441 C.2       1 UNK         0.0000 
     19 C19         0.1840   53.1698   29.9175 C.2       1 UNK         0.0000 
     20 C20         0.8746   53.7834   28.8859 C.2       1 UNK         0.0000 
     21 O21         0.6552   53.1216   27.7200 O.3       1 UNK         0.0000 
     22 C22        -3.5754   52.0642   25.9498 C.2       1 UNK         0.0000 
     23 C23        -4.1598   50.9232   26.4929 C.2       1 UNK         0.0000 
     24 C24        -5.4197   51.1726   27.1206 C.ar      1 UNK         0.0000 
     25 C25        -6.3063   50.3261   27.8202 C.ar      1 UNK         0.0000 
     26 C26        -7.4863   50.8675   28.3318 C.ar      1 UNK         0.0000 
     27 C27        -7.7547   52.2201   28.1305 C.ar      1 UNK         0.0000 
     28 N28        -6.9375   53.0691   27.4564 N.ar      1 UNK         0.0000 
     29 C29        -5.8120   52.5339   26.9763 C.ar      1 UNK         0.0000 
     30 S30        -4.6297   53.4638   26.0817 S.3       1 UNK         0.0000 
     31 N31        -3.6024   49.6754   26.4253 N.pl3     1 UNK         0.0000 
     32 H32         7.2961   54.4966   28.0796 H         1 UNK         0.0000 
     33 H33         5.7064   55.2215   27.8364 H         1 UNK         0.0000 
     34 H34         5.9424   53.4671   27.6460 H         1 UNK         0.0000 
     35 H35         7.2212   54.6392   23.5909 H         1 UNK         0.0000 
     36 H36         5.6114   54.2905   21.7495 H         1 UNK         0.0000 
     37 H37         3.2194   53.9462   22.2403 H         1 UNK         0.0000 
     38 H38         4.0275   54.2383   26.4363 H         1 UNK         0.0000 
     39 H39         1.3916   54.4859   24.0379 H         1 UNK         0.0000 
     40 H40         1.7659   54.1060   25.7043 H         1 UNK         0.0000 
     41 H41        -1.3516   50.4969   27.1708 H         1 UNK         0.0000 
     42 H42         0.2651   50.5484   26.5678 H         1 UNK         0.0000 
     43 H43        -1.1278   51.3843   29.8579 H         1 UNK         0.0000 
     44 H44         0.1690   53.4564   30.9598 H         1 UNK         0.0000 
     45 H45         1.5304   54.6398   28.8325 H         1 UNK         0.0000 
     46 H46        -6.0737   49.2813   27.9622 H         1 UNK         0.0000 
     47 H47        -8.1837   50.2453   28.8755 H         1 UNK         0.0000 
     48 H48        -8.6649   52.6527   28.5181 H         1 UNK         0.0000 
     49 H49        -2.6962   49.5250   25.9989 H         1 UNK         0.0000 
     50 H50        -3.9617   48.8934   26.9557 H         1 UNK         0.0000 
@<TRIPOS>BOND
     1    1    2 1    
     2    1   32 1    
     3    1   33 1    
     4    1   34 1    
     5    2    3 1    
     6    3    8 ar   
     7    3    4 ar   
     8    4    5 ar   
     9    4   35 1    
    10    5    6 ar   
    11    5   36 1    
    12    6    7 ar   
    13    6   37 1    
    14    7    8 ar   
    15    7    9 1    
    16    8   38 1    
    17    9   10 1    
    18    9   39 1    
    19    9   40 1    
    20   10   11 1    
    21   11   15 ar   
    22   11   12 ar   
    23   12   13 ar   
    24   13   14 ar   
    25   14   15 ar   
    26   14   22 1    
    27   15   16 1    
    28   16   17 1    
    29   16   41 1    
    30   16   42 1    
    31   17   21 1    
    32   17   18 2    
    33   18   19 1    
    34   18   43 1    
    35   19   20 2    
    36   19   44 1    
    37   20   21 1    
    38   20   45 1    
    39   22   30 1    
    40   22   23 2    
    41   23   24 1    
    42   23   31 1    
    43   24   29 ar   
    44   24   25 ar   
    45   25   26 ar   
    46   25   46 1    
    47   26   27 ar   
    48   26   47 1    
    49   27   28 ar   
    50   27   48 1    
    51   28   29 ar   
    52   29   30 1    
    53   31   49 1    
    54   31   50 1    
@<TRIPOS>SUBSTRUCTURE
     1 UNK         1 GROUP             0       ****    0 ROOT    
