@<TRIPOS>MOLECULE
ZINC43349635_2531
50   52    1
SMALL
USER_CHARGES


@<TRIPOS>ATOM
      1 C1         -2.1292   50.6927   23.6829 C.3       1 UNK         0.0000 
      2 C2         -0.7487   50.1916   24.1727 C.3       1 UNK         0.0000 
      3 H3         -0.7547   49.1191   23.9721 H         1 UNK         0.0000 
      4 C4          0.4281   50.7903   23.3849 C.ar      1 UNK         0.0000 
      5 C5          0.5192   52.1685   23.1481 C.ar      1 UNK         0.0000 
      6 C6          1.5751   52.6912   22.4083 C.ar      1 UNK         0.0000 
      7 C7          2.5372   51.8319   21.8768 C.ar      1 UNK         0.0000 
      8 C8          2.4373   50.4553   22.0810 C.ar      1 UNK         0.0000 
      9 C9          1.3947   49.9392   22.8421 C.ar      1 UNK         0.0000 
     10 S10         3.9107   52.4820   20.9278 S.o2      1 UNK         0.0000 
     11 O11         3.9048   53.9424   21.0653 O.2       1 UNK         0.0000 
     12 O12         5.0971   51.6982   21.2836 O.2       1 UNK         0.0000 
     13 N13         3.5046   52.0969   19.2775 N.pl3     1 UNK         0.0000 
     14 N14        -0.5855   50.2842   25.6320 N.am      1 UNK         0.0000 
     15 C15        -0.5410   51.4116   26.3610 C.2       1 UNK         0.0000 
     16 O16        -0.9675   52.4953   25.9659 O.2       1 UNK         0.0000 
     17 N17         0.0467   51.2136   27.5525 N.am      1 UNK         0.0000 
     18 C18         0.3182   52.2293   28.4797 C.ar      1 UNK         0.0000 
     19 C19        -0.2476   52.0974   29.7483 C.ar      1 UNK         0.0000 
     20 C20        -0.0453   53.0834   30.7097 C.ar      1 UNK         0.0000 
     21 C21         0.7048   54.2182   30.4048 C.ar      1 UNK         0.0000 
     22 C22         1.2944   54.3440   29.1478 C.ar      1 UNK         0.0000 
     23 C23         1.1415   53.3353   28.1852 C.ar      1 UNK         0.0000 
     24 O24         1.7559   53.4318   26.9519 O.3       1 UNK         0.0000 
     25 C25         3.0949   53.7393   26.8061 C.ar      1 UNK         0.0000 
     26 C26         3.5053   54.1819   25.5477 C.ar      1 UNK         0.0000 
     27 C27         4.8404   54.4982   25.3107 C.ar      1 UNK         0.0000 
     28 C28         5.7704   54.3656   26.3369 C.ar      1 UNK         0.0000 
     29 C29         5.3821   53.9111   27.5946 C.ar      1 UNK         0.0000 
     30 C30         4.0473   53.5876   27.8266 C.ar      1 UNK         0.0000 
     31 H31        -2.2646   50.4789   22.6222 H         1 UNK         0.0000 
     32 H32        -2.9411   50.2004   24.2203 H         1 UNK         0.0000 
     33 H33        -2.2532   51.7667   23.8201 H         1 UNK         0.0000 
     34 H34        -0.2190   52.8439   23.5515 H         1 UNK         0.0000 
     35 H35         1.6398   53.7574   22.2446 H         1 UNK         0.0000 
     36 H36         3.1695   49.7826   21.6589 H         1 UNK         0.0000 
     37 H37         1.3401   48.8729   23.0040 H         1 UNK         0.0000 
     38 H38         3.3526   52.9264   18.6959 H         1 UNK         0.0000 
     39 H39         4.1479   51.4131   18.8380 H         1 UNK         0.0000 
     40 H40        -0.3963   49.4158   26.1135 H         1 UNK         0.0000 
     41 H41         0.0659   50.2657   27.9000 H         1 UNK         0.0000 
     42 H42        -0.8596   51.2389   29.9945 H         1 UNK         0.0000 
     43 H43        -0.4957   52.9625   31.6822 H         1 UNK         0.0000 
     44 H44         0.8328   54.9966   31.1419 H         1 UNK         0.0000 
     45 H45         1.8853   55.2183   28.9196 H         1 UNK         0.0000 
     46 H46         2.7826   54.2795   24.7517 H         1 UNK         0.0000 
     47 H47         5.1482   54.8369   24.3325 H         1 UNK         0.0000 
     48 H48         6.8067   54.6091   26.1548 H         1 UNK         0.0000 
     49 H49         6.1129   53.8058   28.3827 H         1 UNK         0.0000 
     50 H50         3.7598   53.2122   28.7953 H         1 UNK         0.0000 
@<TRIPOS>BOND
     1    1    2 1    
     2    1   31 1    
     3    1   32 1    
     4    1   33 1    
     5    2    3 1    
     6    2    4 1    
     7    2   14 1    
     8    4    9 ar   
     9    4    5 ar   
    10    5    6 ar   
    11    5   34 1    
    12    6    7 ar   
    13    6   35 1    
    14    7    8 ar   
    15    7   10 1    
    16    8    9 ar   
    17    8   36 1    
    18    9   37 1    
    19   10   11 2    
    20   10   12 2    
    21   10   13 1    
    22   13   38 1    
    23   13   39 1    
    24   14   15 am   BACKBONE|DICT|INTERRES
    25   14   40 1    
    26   15   16 2    
    27   15   17 am   BACKBONE|DICT|INTERRES
    28   17   18 1    
    29   17   41 1    
    30   18   23 ar   
    31   18   19 ar   
    32   19   20 ar   
    33   19   42 1    
    34   20   21 ar   
    35   20   43 1    
    36   21   22 ar   
    37   21   44 1    
    38   22   23 ar   
    39   22   45 1    
    40   23   24 1    
    41   24   25 1    
    42   25   30 ar   
    43   25   26 ar   
    44   26   27 ar   
    45   26   46 1    
    46   27   28 ar   
    47   27   47 1    
    48   28   29 ar   
    49   28   48 1    
    50   29   30 ar   
    51   29   49 1    
    52   30   50 1    
@<TRIPOS>SUBSTRUCTURE
     1 UNK         1 GROUP             0       ****    0 ROOT    
