@<TRIPOS>MOLECULE
ZINC36502252_3175
70   74    1
SMALL
USER_CHARGES


@<TRIPOS>ATOM
      1 C1          4.0048   54.1075   25.0461 C.ar      1 UNK         0.0000 
      2 C2          3.0414   53.7983   24.0944 C.ar      1 UNK         0.0000 
      3 C3          1.8982   53.0987   24.4703 C.ar      1 UNK         0.0000 
      4 C4          1.6663   52.7236   25.8100 C.ar      1 UNK         0.0000 
      5 C5          2.7031   52.9899   26.7290 C.ar      1 UNK         0.0000 
      6 C6          3.8448   53.6987   26.3639 C.ar      1 UNK         0.0000 
      7 C7          0.3714   51.9512   26.2876 C.3       1 UNK         0.0000 
      8 C8         -0.0534   52.3799   27.7393 C.ar      1 UNK         0.0000 
      9 C9         -0.6631   51.4559   28.5985 C.ar      1 UNK         0.0000 
     10 C10        -0.8104   51.7005   29.9568 C.ar      1 UNK         0.0000 
     11 C11        -0.3485   52.8966   30.4882 C.ar      1 UNK         0.0000 
     12 C12         0.1657   53.8812   29.6554 C.ar      1 UNK         0.0000 
     13 C13         0.2739   53.6367   28.2892 C.ar      1 UNK         0.0000 
     14 C14        -0.8444   52.0909   25.2710 C.2       1 UNK         0.0000 
     15 O15        -0.9431   53.1632   24.6730 O.2       1 UNK         0.0000 
     16 N16        -1.7190   51.0790   24.9130 N.am      1 UNK         0.0000 
     17 C17        -1.9892   49.8409   25.6833 C.3       1 UNK         0.0000 
     18 C18        -2.0207   48.6002   24.8155 C.2       1 UNK         0.0000 
     19 C19        -1.0513   47.8256   24.1936 C.2       1 UNK         0.0000 
     20 C20        -1.7331   46.8669   23.4423 C.2       1 UNK         0.0000 
     21 C21        -3.0825   47.0558   23.6916 C.2       1 UNK         0.0000 
     22 O22        -3.2550   48.1026   24.5330 O.3       1 UNK         0.0000 
     23 C23        -2.6925   51.2673   23.7852 C.3       1 UNK         0.0000 
     24 H24        -3.2013   50.3218   23.6179 H         1 UNK         0.0000 
     25 C25        -3.7703   52.2234   24.1678 C.2       1 UNK         0.0000 
     26 C26        -4.9544   52.0774   24.8797 C.2       1 UNK         0.0000 
     27 C27        -5.4806   53.3547   25.0717 C.2       1 UNK         0.0000 
     28 C28        -4.5843   54.2254   24.4818 C.2       1 UNK         0.0000 
     29 O29        -3.5634   53.5426   23.9160 O.3       1 UNK         0.0000 
     30 C30        -2.1186   51.4944   22.3494 C.2       1 UNK         0.0000 
     31 O31        -2.8932   51.6586   21.4077 O.2       1 UNK         0.0000 
     32 N32        -0.7861   51.4278   22.1770 N.am      1 UNK         0.0000 
     33 C33        -0.0839   51.4675   20.8939 C.3       1 UNK         0.0000 
     34 C34         1.2944   52.1656   20.9829 C.3       1 UNK         0.0000 
     35 C35         2.0885   52.1485   19.6616 C.3       1 UNK         0.0000 
     36 C36         2.2049   50.7341   19.0723 C.3       1 UNK         0.0000 
     37 C37         0.8194   50.0939   18.8897 C.3       1 UNK         0.0000 
     38 C38        -0.0002   50.0867   20.1961 C.3       1 UNK         0.0000 
     39 O39         0.7044   50.5761   26.2976 O.3       1 UNK         0.0000 
     40 H40         4.8922   54.6494   24.7533 H         1 UNK         0.0000 
     41 H41         3.1813   54.0945   23.0650 H         1 UNK         0.0000 
     42 H42         1.1966   52.8679   23.6886 H         1 UNK         0.0000 
     43 H43         2.6285   52.6441   27.7486 H         1 UNK         0.0000 
     44 H44         4.6122   53.9091   27.0934 H         1 UNK         0.0000 
     45 H45        -0.9740   50.4966   28.2429 H         1 UNK         0.0000 
     46 H46        -1.2551   50.9527   30.6017 H         1 UNK         0.0000 
     47 H47        -0.4404   53.0737   31.5504 H         1 UNK         0.0000 
     48 H48         0.4816   54.8293   30.0652 H         1 UNK         0.0000 
     49 H49         0.7046   54.4163   27.6811 H         1 UNK         0.0000 
     50 H50        -1.3262   49.6547   26.5109 H         1 UNK         0.0000 
     51 H51        -2.9611   49.9660   26.1621 H         1 UNK         0.0000 
     52 H52         0.0187   47.9683   24.2516 H         1 UNK         0.0000 
     53 H53        -1.2998   46.1156   22.7977 H         1 UNK         0.0000 
     54 H54        -3.9861   46.5677   23.3505 H         1 UNK         0.0000 
     55 H55        -5.3690   51.1475   25.2399 H         1 UNK         0.0000 
     56 H56        -6.3934   53.6107   25.5894 H         1 UNK         0.0000 
     57 H57        -4.5341   55.2946   24.3701 H         1 UNK         0.0000 
     58 H58        -0.2176   51.2593   22.9917 H         1 UNK         0.0000 
     59 H59        -0.6588   52.1014   20.2144 H         1 UNK         0.0000 
     60 H60         1.1720   53.2013   21.3078 H         1 UNK         0.0000 
     61 H61         1.9007   51.6600   21.7354 H         1 UNK         0.0000 
     62 H62         1.6008   52.8042   18.9385 H         1 UNK         0.0000 
     63 H63         3.0847   52.5670   19.8192 H         1 UNK         0.0000 
     64 H64         2.7327   50.7677   18.1172 H         1 UNK         0.0000 
     65 H65         2.8168   50.1124   19.7273 H         1 UNK         0.0000 
     66 H66         0.2694   50.6364   18.1188 H         1 UNK         0.0000 
     67 H67         0.9357   49.0760   18.5158 H         1 UNK         0.0000 
     68 H68         0.4689   49.3790   20.8808 H         1 UNK         0.0000 
     69 H69        -1.0026   49.7082   19.9910 H         1 UNK         0.0000 
     70 H70         0.7829   50.2654   25.3937 H         1 UNK         0.0000 
@<TRIPOS>BOND
     1    1    6 ar   
     2    1    2 ar   
     3    1   40 1    
     4    2    3 ar   
     5    2   41 1    
     6    3    4 ar   
     7    3   42 1    
     8    4    5 ar   
     9    4    7 1    
    10    5    6 ar   
    11    5   43 1    
    12    6   44 1    
    13    7    8 1    
    14    7   14 1    
    15    7   39 1    
    16    8   13 ar   
    17    8    9 ar   
    18    9   10 ar   
    19    9   45 1    
    20   10   11 ar   
    21   10   46 1    
    22   11   12 ar   
    23   11   47 1    
    24   12   13 ar   
    25   12   48 1    
    26   13   49 1    
    27   14   15 2    
    28   14   16 am   BACKBONE|DICT|INTERRES
    29   16   17 1    
    30   16   23 1    
    31   17   18 1    
    32   17   50 1    
    33   17   51 1    
    34   18   22 1    
    35   18   19 2    
    36   19   20 1    
    37   19   52 1    
    38   20   21 2    
    39   20   53 1    
    40   21   22 1    
    41   21   54 1    
    42   23   24 1    
    43   23   25 1    
    44   23   30 1    
    45   25   29 1    
    46   25   26 2    
    47   26   27 1    
    48   26   55 1    
    49   27   28 2    
    50   27   56 1    
    51   28   29 1    
    52   28   57 1    
    53   30   31 2    
    54   30   32 am   BACKBONE|DICT|INTERRES
    55   32   33 1    
    56   32   58 1    
    57   33   38 1    
    58   33   34 1    
    59   33   59 1    
    60   34   35 1    
    61   34   60 1    
    62   34   61 1    
    63   35   36 1    
    64   35   62 1    
    65   35   63 1    
    66   36   37 1    
    67   36   64 1    
    68   36   65 1    
    69   37   38 1    
    70   37   66 1    
    71   37   67 1    
    72   38   68 1    
    73   38   69 1    
    74   39   70 1    
@<TRIPOS>SUBSTRUCTURE
     1 UNK         1 GROUP             0       ****    0 ROOT    
