@<TRIPOS>MOLECULE
ZINC36013493_5399
73   76    1
SMALL
USER_CHARGES


@<TRIPOS>ATOM
      1 C1          1.2124   55.7632   30.1710 C.3       1 UNK         0.0000 
      2 C2          2.2542   56.2044   29.1432 C.3       1 UNK         0.0000 
      3 C3          2.6978   55.1055   28.1509 C.3       1 UNK         0.0000 
      4 N4          3.6757   54.1203   28.6828 N.am      1 UNK         0.0000 
      5 C5          5.1265   54.4215   28.5647 C.3       1 UNK         0.0000 
      6 C6          5.7435   54.2819   27.1550 C.2       1 UNK         0.0000 
      7 O7          6.9688   54.3572   27.0493 O.2       1 UNK         0.0000 
      8 N8          4.8961   54.2756   26.1058 N.am      1 UNK         0.0000 
      9 C9          5.1485   54.3479   24.7283 C.ar      1 UNK         0.0000 
     10 C10         6.3861   54.6713   24.1582 C.ar      1 UNK         0.0000 
     11 C11         6.5162   54.7414   22.7752 C.ar      1 UNK         0.0000 
     12 C12         5.4199   54.4925   21.9376 C.ar      1 UNK         0.0000 
     13 C13         4.1905   54.1615   22.5209 C.ar      1 UNK         0.0000 
     14 C14         4.0538   54.0966   23.9028 C.ar      1 UNK         0.0000 
     15 N15         5.5485   54.5580   20.5531 N.pl3     1 UNK         0.0000 
     16 C16         6.4835   55.4357   19.8344 C.3       1 UNK         0.0000 
     17 C17         7.3568   54.7287   18.7721 C.3       1 UNK         0.0000 
     18 N18         6.5247   53.8666   17.9118 N.am      1 UNK         0.0000 
     19 C19         5.5771   52.9662   18.5998 C.3       1 UNK         0.0000 
     20 C20         4.7479   53.7534   19.6268 C.3       1 UNK         0.0000 
     21 C21         6.7503   53.8412   16.5608 C.2       1 UNK         0.0000 
     22 O22         7.5281   54.6254   16.0127 O.2       1 UNK         0.0000 
     23 N23         6.0364   52.9127   15.8778 N.am      1 UNK         0.0000 
     24 C24         5.9466   52.6666   14.4939 C.ar      1 UNK         0.0000 
     25 C25         6.4583   53.5087   13.4901 C.ar      1 UNK         0.0000 
     26 C26         6.2976   53.1748   12.1449 C.ar      1 UNK         0.0000 
     27 C27         5.6285   52.0053   11.7879 C.ar      1 UNK         0.0000 
     28 C28         5.1163   51.1598   12.7768 C.ar      1 UNK         0.0000 
     29 C29         5.2713   51.5007   14.1219 C.ar      1 UNK         0.0000 
     30 C30         4.3721   49.8931   12.3933 C.3       1 UNK         0.0000 
     31 C31         3.3099   52.8951   29.1631 C.2       1 UNK         0.0000 
     32 O32         4.0979   52.0991   29.6812 O.2       1 UNK         0.0000 
     33 C33         1.8690   52.4811   29.0537 C.ar      1 UNK         0.0000 
     34 C34         1.0607   52.4621   30.1925 C.ar      1 UNK         0.0000 
     35 C35        -0.2749   52.0964   30.0822 C.ar      1 UNK         0.0000 
     36 C36        -0.7902   51.7027   28.8499 C.ar      1 UNK         0.0000 
     37 C37         0.0141   51.7033   27.7139 C.ar      1 UNK         0.0000 
     38 C38         1.3452   52.0977   27.8138 C.ar      1 UNK         0.0000 
     39 H39         0.8251   56.6164   30.7337 H         1 UNK         0.0000 
     40 H40         0.3676   55.2601   29.7022 H         1 UNK         0.0000 
     41 H41         1.6454   55.0694   30.8815 H         1 UNK         0.0000 
     42 H42         3.1043   56.6464   29.6581 H         1 UNK         0.0000 
     43 H43         1.8099   57.0148   28.5668 H         1 UNK         0.0000 
     44 H44         3.1192   55.6080   27.2869 H         1 UNK         0.0000 
     45 H45         1.8024   54.6202   27.7665 H         1 UNK         0.0000 
     46 H46         5.2232   55.4718   28.8212 H         1 UNK         0.0000 
     47 H47         5.7743   53.9267   29.2819 H         1 UNK         0.0000 
     48 H48         3.9231   54.1764   26.3456 H         1 UNK         0.0000 
     49 H49         7.2604   54.8802   24.7521 H         1 UNK         0.0000 
     50 H50         7.4884   54.9746   22.3672 H         1 UNK         0.0000 
     51 H51         3.3194   53.9842   21.9088 H         1 UNK         0.0000 
     52 H52         3.0876   53.8547   24.3205 H         1 UNK         0.0000 
     53 H53         5.8539   56.1811   19.3439 H         1 UNK         0.0000 
     54 H54         7.1184   55.9966   20.5190 H         1 UNK         0.0000 
     55 H55         7.9031   55.4901   18.2133 H         1 UNK         0.0000 
     56 H56         8.0832   54.0972   19.2822 H         1 UNK         0.0000 
     57 H57         6.1372   52.1904   19.1238 H         1 UNK         0.0000 
     58 H58         4.8579   52.4959   17.9304 H         1 UNK         0.0000 
     59 H59         4.1152   53.0419   20.1612 H         1 UNK         0.0000 
     60 H60         4.0743   54.4483   19.1222 H         1 UNK         0.0000 
     61 H61         5.4967   52.2713   16.4423 H         1 UNK         0.0000 
     62 H62         6.9695   54.4278   13.7237 H         1 UNK         0.0000 
     63 H63         6.6887   53.8295   11.3791 H         1 UNK         0.0000 
     64 H64         5.5076   51.7585   10.7415 H         1 UNK         0.0000 
     65 H65         4.8595   50.8488   14.8818 H         1 UNK         0.0000 
     66 H66         3.8399   50.0226   11.4494 H         1 UNK         0.0000 
     67 H67         5.0655   49.0569   12.2958 H         1 UNK         0.0000 
     68 H68         3.6211   49.6404   13.1438 H         1 UNK         0.0000 
     69 H69         1.4508   52.7268   31.1650 H         1 UNK         0.0000 
     70 H70        -0.8964   52.0708   30.9646 H         1 UNK         0.0000 
     71 H71        -1.8171   51.3736   28.7764 H         1 UNK         0.0000 
     72 H72        -0.3932   51.3879   26.7636 H         1 UNK         0.0000 
     73 H73         1.9654   52.0954   26.9266 H         1 UNK         0.0000 
@<TRIPOS>BOND
     1    1    2 1    
     2    1   39 1    
     3    1   40 1    
     4    1   41 1    
     5    2    3 1    
     6    2   42 1    
     7    2   43 1    
     8    3    4 1    
     9    3   44 1    
    10    3   45 1    
    11    4    5 1    
    12    4   31 am   BACKBONE|DICT|INTERRES
    13    5    6 1    
    14    5   46 1    
    15    5   47 1    
    16    6    7 2    
    17    6    8 am   BACKBONE|DICT|INTERRES
    18    8    9 1    
    19    8   48 1    
    20    9   14 ar   
    21    9   10 ar   
    22   10   11 ar   
    23   10   49 1    
    24   11   12 ar   
    25   11   50 1    
    26   12   13 ar   
    27   12   15 1    
    28   13   14 ar   
    29   13   51 1    
    30   14   52 1    
    31   15   20 1    
    32   15   16 1    
    33   16   17 1    
    34   16   53 1    
    35   16   54 1    
    36   17   18 1    
    37   17   55 1    
    38   17   56 1    
    39   18   19 1    
    40   18   21 am   BACKBONE|DICT|INTERRES
    41   19   20 1    
    42   19   57 1    
    43   19   58 1    
    44   20   59 1    
    45   20   60 1    
    46   21   22 2    
    47   21   23 am   BACKBONE|DICT|INTERRES
    48   23   24 1    
    49   23   61 1    
    50   24   29 ar   
    51   24   25 ar   
    52   25   26 ar   
    53   25   62 1    
    54   26   27 ar   
    55   26   63 1    
    56   27   28 ar   
    57   27   64 1    
    58   28   29 ar   
    59   28   30 1    
    60   29   65 1    
    61   30   66 1    
    62   30   67 1    
    63   30   68 1    
    64   31   32 2    
    65   31   33 1    
    66   33   38 ar   
    67   33   34 ar   
    68   34   35 ar   
    69   34   69 1    
    70   35   36 ar   
    71   35   70 1    
    72   36   37 ar   
    73   36   71 1    
    74   37   38 ar   
    75   37   72 1    
    76   38   73 1    
@<TRIPOS>SUBSTRUCTURE
     1 UNK         1 GROUP             0       ****    0 ROOT    
