ZINC15945400_4307
                    3D
 Schrodinger Suite 2024-2.
 47 50  0  0  1  0            999 V2000
    0.5428   47.1708   17.8042 C   0  0  0  0  0  0
    1.6663   48.1923   18.0462 C   0  0  0  0  0  0
    1.4092   49.1903   19.2032 C   0  0  1  0  0  0
    0.4738   49.7056   18.9758 H   0  0  0  0  0  0
    1.3269   48.4966   20.5790 C   0  0  0  0  0  0
    0.8880   49.4404   21.7215 C   0  0  0  0  0  0
    1.6175   50.7796   21.6075 C   0  0  0  0  0  0
    2.3582   51.1235   20.4609 C   0  0  0  0  0  0
    3.1060   52.6789   20.5898 S   0  0  0  0  0  0
    2.3643   52.9166   22.1295 C   0  0  0  0  0  0
    1.6679   51.7965   22.5870 C   0  0  0  0  0  0
    1.1101   51.9038   23.9351 C   0  0  0  0  0  0
    1.3077   52.8660   24.7443 N   0  0  0  0  0  0
    2.1504   53.9862   24.2879 C   0  0  2  0  0  0
    1.5843   54.8964   24.4824 H   0  0  0  0  0  0
    2.4514   54.0959   22.8428 N   0  0  0  0  0  0
    3.3897   54.0958   25.1991 C   0  0  0  0  0  0
    4.6825   54.0970   24.6617 C   0  0  0  0  0  0
    5.8207   54.1687   25.4738 C   0  0  0  0  0  0
    5.6558   54.3101   26.8590 C   0  0  0  0  0  0
    4.3705   54.3172   27.4141 C   0  0  0  0  0  0
    3.2510   54.1973   26.5881 C   0  0  0  0  0  0
    4.0813   54.4964   29.4809 I   0  0  0  0  0  0
    6.7613   54.4148   27.6698 O   0  0  0  0  0  0
    7.1043   54.0987   24.9661 O   0  0  0  0  0  0
    7.3103   53.6970   23.6112 C   0  0  0  0  0  0
    0.3027   50.9284   24.4497 O   0  0  0  0  0  0
    2.5452   50.2349   19.2399 C   0  0  0  0  0  0
    0.7442   46.5865   16.9060 H   0  0  0  0  0  0
   -0.4189   47.6658   17.6670 H   0  0  0  0  0  0
    0.4464   46.4663   18.6296 H   0  0  0  0  0  0
    2.6051   47.6617   18.2155 H   0  0  0  0  0  0
    1.8173   48.7539   17.1223 H   0  0  0  0  0  0
    0.6017   47.6903   20.5167 H   0  0  0  0  0  0
    2.2763   48.0075   20.8066 H   0  0  0  0  0  0
   -0.1890   49.6061   21.6707 H   0  0  0  0  0  0
    1.0873   48.9574   22.6782 H   0  0  0  0  0  0
    3.1070   54.8246   22.6050 H   0  0  0  0  0  0
    4.8077   54.0168   23.5952 H   0  0  0  0  0  0
    2.2631   54.1897   27.0265 H   0  0  0  0  0  0
    6.5902   54.8160   28.5275 H   0  0  0  0  0  0
    8.3174   53.2964   23.5049 H   0  0  0  0  0  0
    6.6447   52.8974   23.2816 H   0  0  0  0  0  0
    7.2024   54.5460   22.9356 H   0  0  0  0  0  0
    0.6423   50.0684   24.2022 H   0  0  0  0  0  0
    3.5045   49.7247   19.3031 H   0  0  0  0  0  0
    2.5716   50.8204   18.3195 H   0  0  0  0  0  0
  1  2  1  0  0  0
  1 29  1  0  0  0
  1 30  1  0  0  0
  1 31  1  0  0  0
  2  3  1  0  0  0
  2 32  1  0  0  0
  2 33  1  0  0  0
  3  4  1  0  0  0
  3 28  1  0  0  0
  3  5  1  0  0  0
  5  6  1  0  0  0
  5 34  1  0  0  0
  5 35  1  0  0  0
  6  7  1  0  0  0
  6 36  1  0  0  0
  6 37  1  0  0  0
  7 11  1  0  0  0
  7  8  2  0  0  0
  8  9  1  0  0  0
  8 28  1  0  0  0
  9 10  1  0  0  0
 10 16  1  0  0  0
 10 11  2  0  0  0
 11 12  1  0  0  0
 12 13  2  0  0  0
 12 27  1  0  0  0
 13 14  1  0  0  0
 14 15  1  0  0  0
 14 16  1  0  0  0
 14 17  1  0  0  0
 16 38  1  0  0  0
 17 22  2  0  0  0
 17 18  1  0  0  0
 18 19  2  0  0  0
 18 39  1  0  0  0
 19 20  1  0  0  0
 19 25  1  0  0  0
 20 21  2  0  0  0
 20 24  1  0  0  0
 21 22  1  0  0  0
 21 23  1  0  0  0
 22 40  1  0  0  0
 24 41  1  0  0  0
 25 26  1  0  0  0
 26 42  1  0  0  0
 26 43  1  0  0  0
 26 44  1  0  0  0
 27 45  1  0  0  0
 28 46  1  0  0  0
 28 47  1  0  0  0
M  END
> <i_i_glide_confnum>
1

> <i_i_glide_lignum>
4308

> <i_i_glide_posenum>
287

> <i_i_glide_rotatable_bonds>
5

> <i_m_Source_File_Index>
528

> <b_m_subgroup_collapsed>
0

> <r_i_docking_score>
-5.07312

> <r_i_glide_ecoul>
-4.16059

> <r_i_glide_eff_state_penalty>
0

> <r_i_glide_einternal>
0.823351

> <r_i_glide_emodel>
-55.354

> <r_i_glide_energy>
-43.7453

> <r_i_glide_erotb>
0.0865626

> <r_i_glide_esite>
0

> <r_i_glide_evdw>
-39.5847

> <r_i_glide_gscore>
-5.07312

> <r_i_glide_hbond>
0

> <r_i_glide_ligand_efficiency>
-0.19512

> <r_i_glide_ligand_efficiency_ln>
-1.19141

> <r_i_glide_ligand_efficiency_sa>
-0.578042

> <r_i_glide_lipo>
-1.91853

> <r_i_glide_metal>
0

> <r_i_glide_rewards>
-0.637825

> <s_i_glide_gridfile>
wee1_glide-grid

> <s_m_Source_File>
wee1_decoys_glide_SP.sdf

> <s_m_Source_Path>
/Users/zhangxujun/Desktop

> <s_m_entry_id>
803

> <s_m_entry_name>
wee1_decoys_glide_SP.528

> <s_m_subgroup_title>
wee1_decoys_glide_SP

> <s_m_subgroupid>
wee1_decoys_glide_SP


$$$$
