ZINC38700693_6013
                    3D
 Schrodinger Suite 2024-2.
 57 61  0  0  1  0            999 V2000
   -0.0106   52.2852   28.4761 C   0  0  0  0  0  0
    1.3726   52.8070   28.1306 C   0  0  0  0  0  0
    2.3144   53.0153   29.1443 C   0  0  0  0  0  0
    3.6053   53.4752   28.8626 C   0  0  0  0  0  0
    3.9574   53.7272   27.5253 C   0  0  0  0  0  0
    5.1406   54.1606   26.8407 C   0  0  0  0  0  0
    4.7991   54.1704   25.4792 C   0  0  0  0  0  0
    3.4921   53.8066   25.2912 O   0  0  0  0  0  0
    2.9844   53.5292   26.5242 C   0  0  0  0  0  0
    1.6891   53.0739   26.7957 C   0  0  0  0  0  0
    5.5944   54.4956   24.2869 C   0  0  0  0  0  0
    6.7045   55.0257   24.3499 O   0  0  0  0  0  0
    4.9472   54.0965   23.1435 O   0  0  0  0  0  0
    5.4168   54.2834   21.8511 C   0  0  0  0  0  0
    4.9044   53.4155   20.8827 C   0  0  0  0  0  0
    5.2495   53.5469   19.5369 C   0  0  0  0  0  0
    6.1126   54.5616   19.1101 C   0  0  0  0  0  0
    6.6193   55.4423   20.0854 C   0  0  0  0  0  0
    6.2983   55.2979   21.4357 C   0  0  0  0  0  0
    7.4006   56.5309   19.7481 O   0  0  0  0  0  0
    7.3653   56.9634   18.4620 C   0  0  0  0  0  0
    6.9145   56.2328   17.4220 C   0  0  0  0  0  0
    6.4312   54.7936   17.6221 C   0  0  1  0  0  0
    5.4910   54.7037   17.0734 H   0  0  0  0  0  0
    7.3877   53.7488   17.0369 C   0  0  0  0  0  0
    6.9385   52.8645   16.0496 C   0  0  0  0  0  0
    7.8098   51.9318   15.4903 C   0  0  0  0  0  0
    9.1347   51.8698   15.9242 C   0  0  0  0  0  0
    9.5909   52.7598   16.8933 C   0  0  0  0  0  0
    8.7233   53.6969   17.4509 C   0  0  0  0  0  0
   10.2715   50.6677   15.2818 S   0  0  0  0  0  0
    9.5276   49.8203   13.8569 C   0  0  0  0  0  0
    6.9321   56.7664   16.0981 C   0  0  0  0  0  0
    6.9712   57.1964   15.0249 N   0  0  0  0  0  0
    7.8886   58.2264   18.4153 N   0  0  0  0  0  0
    6.4527   54.4946   27.5133 C   0  0  0  0  0  0
   -0.2133   52.3329   29.5469 H   0  0  0  0  0  0
   -0.7734   52.8800   27.9732 H   0  0  0  0  0  0
   -0.1246   51.2533   28.1408 H   0  0  0  0  0  0
    2.0426   52.8055   30.1693 H   0  0  0  0  0  0
    4.3257   53.6171   29.6545 H   0  0  0  0  0  0
    0.9751   52.9150   26.0014 H   0  0  0  0  0  0
    4.2176   52.6336   21.1729 H   0  0  0  0  0  0
    4.8322   52.8559   18.8167 H   0  0  0  0  0  0
    6.6965   56.0160   22.1356 H   0  0  0  0  0  0
    5.9119   52.8897   15.7136 H   0  0  0  0  0  0
    7.4380   51.2554   14.7376 H   0  0  0  0  0  0
   10.6188   52.7172   17.2219 H   0  0  0  0  0  0
    9.0893   54.3765   18.2073 H   0  0  0  0  0  0
   10.2580   49.1510   13.3967 H   0  0  0  0  0  0
    9.2124   50.5434   13.1036 H   0  0  0  0  0  0
    8.6696   49.2238   14.1640 H   0  0  0  0  0  0
    7.7566   58.8094   17.5999 H   0  0  0  0  0  0
    8.5645   58.5249   19.1040 H   0  0  0  0  0  0
    6.3040   55.2924   28.2376 H   0  0  0  0  0  0
    6.8564   53.6399   28.0562 H   0  0  0  0  0  0
    7.2251   54.8262   26.8236 H   0  0  0  0  0  0
  1  2  1  0  0  0
  1 37  1  0  0  0
  1 38  1  0  0  0
  1 39  1  0  0  0
  2 10  2  0  0  0
  2  3  1  0  0  0
  3  4  2  0  0  0
  3 40  1  0  0  0
  4  5  1  0  0  0
  4 41  1  0  0  0
  5  9  2  0  0  0
  5  6  1  0  0  0
  6  7  2  0  0  0
  6 36  1  0  0  0
  7  8  1  0  0  0
  7 11  1  0  0  0
  8  9  1  0  0  0
  9 10  1  0  0  0
 10 42  1  0  0  0
 11 12  2  0  0  0
 11 13  1  0  0  0
 13 14  1  0  0  0
 14 19  2  0  0  0
 14 15  1  0  0  0
 15 16  2  0  0  0
 15 43  1  0  0  0
 16 17  1  0  0  0
 16 44  1  0  0  0
 17 23  1  0  0  0
 17 18  2  0  0  0
 18 19  1  0  0  0
 18 20  1  0  0  0
 19 45  1  0  0  0
 20 21  1  0  0  0
 21 22  2  0  0  0
 21 35  1  0  0  0
 22 23  1  0  0  0
 22 33  1  0  0  0
 23 24  1  0  0  0
 23 25  1  0  0  0
 25 30  2  0  0  0
 25 26  1  0  0  0
 26 27  2  0  0  0
 26 46  1  0  0  0
 27 28  1  0  0  0
 27 47  1  0  0  0
 28 29  2  0  0  0
 28 31  1  0  0  0
 29 30  1  0  0  0
 29 48  1  0  0  0
 30 49  1  0  0  0
 31 32  1  0  0  0
 32 50  1  0  0  0
 32 51  1  0  0  0
 32 52  1  0  0  0
 33 34  3  0  0  0
 35 53  1  0  0  0
 35 54  1  0  0  0
 36 55  1  0  0  0
 36 56  1  0  0  0
 36 57  1  0  0  0
M  END
> <i_i_glide_confnum>
5

> <i_i_glide_lignum>
6014

> <i_i_glide_posenum>
224

> <i_i_glide_rotatable_bonds>
6

> <i_m_Source_File_Index>
3350

> <b_m_subgroup_collapsed>
0

> <r_i_docking_score>
-5.90278

> <r_i_glide_ecoul>
-1.65915

> <r_i_glide_eff_state_penalty>
0

> <r_i_glide_einternal>
2.15778

> <r_i_glide_emodel>
-63.5205

> <r_i_glide_energy>
-48.5856

> <r_i_glide_erotb>
0.348617

> <r_i_glide_esite>
-0.0269168

> <r_i_glide_evdw>
-46.9264

> <r_i_glide_gscore>
-5.90278

> <r_i_glide_hbond>
-0.27569

> <r_i_glide_ligand_efficiency>
-0.168651

> <r_i_glide_ligand_efficiency_ln>
-1.29579

> <r_i_glide_ligand_efficiency_sa>
-0.551668

> <r_i_glide_lipo>
-2.85684

> <r_i_glide_metal>
0

> <r_i_glide_rewards>
-0.496758

> <s_i_glide_gridfile>
wee1_glide-grid

> <s_m_Source_File>
wee1_decoys_glide_SP.sdf

> <s_m_Source_Path>
/Users/zhangxujun/Desktop

> <s_m_entry_id>
3625

> <s_m_entry_name>
wee1_decoys_glide_SP.3350

> <s_m_subgroup_title>
wee1_decoys_glide_SP

> <s_m_subgroupid>
wee1_decoys_glide_SP


$$$$
