@<TRIPOS>MOLECULE
ZINC64202137_4917
57   59    1
SMALL
USER_CHARGES


@<TRIPOS>ATOM
      1 C1          3.5227   52.2851   15.9911 C.3       1 UNK         0.0000 
      2 C2          2.2486   51.6644   16.5867 C.3       1 UNK         0.0000 
      3 C3          1.9430   52.1360   18.0205 C.3       1 UNK         0.0000 
      4 C4          2.8689   51.5794   19.1302 C.3       1 UNK         0.0000 
      5 H5          3.9044   51.8051   18.8789 H         1 UNK         0.0000 
      6 C6          2.6961   50.0592   19.3313 C.3       1 UNK         0.0000 
      7 N7          2.5400   52.2688   20.3657 N.am      1 UNK         0.0000 
      8 C8          3.2462   52.3003   21.5114 C.2       1 UNK         0.0000 
      9 O9          4.3913   51.8589   21.6030 O.2       1 UNK         0.0000 
     10 C10         2.5603   52.9245   22.7603 C.3       1 UNK         0.0000 
     11 H11         2.6546   52.2276   23.5971 H         1 UNK         0.0000 
     12 C12         3.1473   54.2953   23.1560 C.3       1 UNK         0.0000 
     13 C13         4.4455   54.2541   23.9400 C.2       1 UNK         0.0000 
     14 C14         4.6536   54.2687   25.2671 C.2       1 UNK         0.0000 
     15 C15         3.7004   54.2149   26.3873 C.2       1 UNK         0.0000 
     16 C16         4.1312   54.2716   27.6620 C.2       1 UNK         0.0000 
     17 C17         5.5652   54.3886   27.8922 C.2       1 UNK         0.0000 
     18 C18         6.4596   54.4240   26.8705 C.2       1 UNK         0.0000 
     19 C19         6.0223   54.3683   25.5416 C.2       1 UNK         0.0000 
     20 N20         6.7110   54.4040   24.4230 N.pl3     1 UNK         0.0000 
     21 C21         5.8034   54.2992   23.2671 C.3       1 UNK         0.0000 
     22 N22         1.1043   53.1042   22.5040 N.pl3     1 UNK         0.0000 
     23 S23         0.0160   51.7117   22.4557 S.o2      1 UNK         0.0000 
     24 O24         0.7849   50.5069   22.1323 O.2       1 UNK         0.0000 
     25 O25        -1.1500   52.0979   21.6542 O.2       1 UNK         0.0000 
     26 C26        -0.5510   51.5732   24.1358 C.ar      1 UNK         0.0000 
     27 C27        -0.0366   50.5768   24.9619 C.ar      1 UNK         0.0000 
     28 C28        -0.4779   50.4900   26.2776 C.ar      1 UNK         0.0000 
     29 C29        -1.4210   51.3956   26.7620 C.ar      1 UNK         0.0000 
     30 C30        -1.9392   52.3867   25.9297 C.ar      1 UNK         0.0000 
     31 C31        -1.5022   52.4792   24.6132 C.ar      1 UNK         0.0000 
     32 Cl32       -1.9556   51.2975   28.3990 Cl        1 UNK         0.0000 
     33 H33         3.7295   51.8734   15.0034 H         1 UNK         0.0000 
     34 H34         3.4240   53.3664   15.8873 H         1 UNK         0.0000 
     35 H35         4.3986   52.0962   16.6116 H         1 UNK         0.0000 
     36 H36         2.3046   50.5764   16.5479 H         1 UNK         0.0000 
     37 H37         1.4090   51.9295   15.9418 H         1 UNK         0.0000 
     38 H38         0.9090   51.8813   18.2588 H         1 UNK         0.0000 
     39 H39         1.9767   53.2265   18.0294 H         1 UNK         0.0000 
     40 H40         3.0694   49.4926   18.4819 H         1 UNK         0.0000 
     41 H41         3.2281   49.6978   20.2143 H         1 UNK         0.0000 
     42 H42         1.6441   49.7900   19.4525 H         1 UNK         0.0000 
     43 H43         1.6613   52.7663   20.3682 H         1 UNK         0.0000 
     44 H44         3.2788   54.9232   22.2734 H         1 UNK         0.0000 
     45 H45         2.4325   54.8311   23.7846 H         1 UNK         0.0000 
     46 H46         2.6378   54.1000   26.2189 H         1 UNK         0.0000 
     47 H47         3.4389   54.2194   28.4899 H         1 UNK         0.0000 
     48 H48         5.9309   54.4439   28.9069 H         1 UNK         0.0000 
     49 H49         7.5051   54.4967   27.1241 H         1 UNK         0.0000 
     50 H50         6.0486   53.3818   22.7307 H         1 UNK         0.0000 
     51 H51         5.9706   55.1646   22.6229 H         1 UNK         0.0000 
     52 H52         0.7102   53.8686   23.0586 H         1 UNK         0.0000 
     53 H53         0.6949   49.8669   24.6015 H         1 UNK         0.0000 
     54 H54        -0.0932   49.6971   26.8979 H         1 UNK         0.0000 
     55 H55        -2.6796   53.0775   26.3066 H         1 UNK         0.0000 
     56 H56        -1.9014   53.2485   23.9676 H         1 UNK         0.0000 
     57 H57         7.7236   54.4855   24.3403 H         1 UNK         0.0000 
@<TRIPOS>BOND
     1    1    2 1    
     2    1   33 1    
     3    1   34 1    
     4    1   35 1    
     5    2    3 1    
     6    2   36 1    
     7    2   37 1    
     8    3    4 1    
     9    3   38 1    
    10    3   39 1    
    11    4    5 1    
    12    4    6 1    
    13    4    7 1    
    14    6   40 1    
    15    6   41 1    
    16    6   42 1    
    17    7    8 am   BACKBONE|DICT|INTERRES
    18    7   43 1    
    19    8    9 2    
    20    8   10 1    
    21   10   11 1    
    22   10   12 1    
    23   10   22 1    
    24   12   13 1    
    25   12   44 1    
    26   12   45 1    
    27   13   21 1    
    28   13   14 2    
    29   14   19 1    
    30   14   15 1    
    31   15   16 2    
    32   15   46 1    
    33   16   17 1    
    34   16   47 1    
    35   17   18 2    
    36   17   48 1    
    37   18   19 1    
    38   18   49 1    
    39   19   20 2    
    40   20   21 1    
    41   20   57 1    
    42   21   50 1    
    43   21   51 1    
    44   22   23 1    
    45   22   52 1    
    46   23   24 2    
    47   23   25 2    
    48   23   26 1    
    49   26   31 ar   
    50   26   27 ar   
    51   27   28 ar   
    52   27   53 1    
    53   28   29 ar   
    54   28   54 1    
    55   29   30 ar   
    56   29   32 1    
    57   30   31 ar   
    58   30   55 1    
    59   31   56 1    
@<TRIPOS>SUBSTRUCTURE
     1 UNK         1 GROUP             0       ****    0 ROOT    
