@<TRIPOS>MOLECULE
ZINC12714943_3132
65   68    1
SMALL
USER_CHARGES


@<TRIPOS>ATOM
      1 C1         -1.6310   53.0702   18.2027 C.3       1 UNK         0.0000 
      2 C2         -2.1685   52.0503   19.1737 C.2       1 UNK         0.0000 
      3 C3         -3.1047   51.0368   19.0762 C.2       1 UNK         0.0000 
      4 C4         -3.1822   50.4394   20.3326 C.2       1 UNK         0.0000 
      5 C5         -2.2931   51.1125   21.1583 C.2       1 UNK         0.0000 
      6 O6         -1.6834   52.0967   20.4433 O.3       1 UNK         0.0000 
      7 C7         -1.8990   50.9325   22.5879 C.3       1 UNK         0.0000 
      8 H8         -2.3561   50.0102   22.9378 H         1 UNK         0.0000 
      9 C9         -2.6094   52.0360   23.4071 C.2       1 UNK         0.0000 
     10 O10        -2.2884   53.2186   23.2880 O.2       1 UNK         0.0000 
     11 N11        -3.6260   51.6105   24.1723 N.am      1 UNK         0.0000 
     12 C12        -4.4295   52.4609   25.0488 C.3       1 UNK         0.0000 
     13 C13        -4.2038   52.1727   26.5467 C.3       1 UNK         0.0000 
     14 H14        -4.7865   52.8935   27.1211 H         1 UNK         0.0000 
     15 C15        -4.6477   50.7914   27.0259 C.3       1 UNK         0.0000 
     16 C16        -3.7866   50.5980   28.2500 C.3       1 UNK         0.0000 
     17 C17        -2.4575   51.2157   27.8168 C.3       1 UNK         0.0000 
     18 O18        -2.8152   52.2390   26.8815 O.3       1 UNK         0.0000 
     19 N19        -0.4171   50.7587   22.7834 N.am      1 UNK         0.0000 
     20 C20         0.3537   51.7027   23.5007 C.ar      1 UNK         0.0000 
     21 C21         1.2319   52.5763   22.8458 C.ar      1 UNK         0.0000 
     22 C22         2.0614   53.4209   23.5884 C.ar      1 UNK         0.0000 
     23 C23         1.9856   53.4168   24.9840 C.ar      1 UNK         0.0000 
     24 C24         1.1009   52.5588   25.6429 C.ar      1 UNK         0.0000 
     25 C25         0.2947   51.6969   24.8989 C.ar      1 UNK         0.0000 
     26 C26         1.0291   52.5355   27.1580 C.3       1 UNK         0.0000 
     27 C27         3.0500   54.3315   22.8871 C.3       1 UNK         0.0000 
     28 C28         0.2617   49.6920   22.2417 C.2       1 UNK         0.0000 
     29 O29         1.4902   49.6045   22.1551 O.2       1 UNK         0.0000 
     30 C30        -0.5224   48.5731   21.7921 C.2       1 UNK         0.0000 
     31 C31        -1.3355   47.7015   22.5111 C.2       1 UNK         0.0000 
     32 C32        -1.8931   46.7291   21.6561 C.2       1 UNK         0.0000 
     33 N33        -1.5303   46.7579   20.3868 N.2       1 UNK         0.0000 
     34 S34        -0.4381   48.0515   20.1431 S.3       1 UNK         0.0000 
     35 C35        -2.8064   45.6861   22.0380 C.2       1 UNK         0.0000 
     36 O36        -2.5341   44.4913   21.9340 O.2       1 UNK         0.0000 
     37 N37        -3.9731   46.1165   22.5221 N.am      1 UNK         0.0000 
     38 N38        -1.5381   47.7764   23.8696 N.pl3     1 UNK         0.0000 
     39 H39        -0.5459   53.1592   18.2703 H         1 UNK         0.0000 
     40 H40        -1.8682   52.8112   17.1713 H         1 UNK         0.0000 
     41 H41        -2.0540   54.0565   18.3920 H         1 UNK         0.0000 
     42 H42        -3.6611   50.7595   18.1930 H         1 UNK         0.0000 
     43 H43        -3.8083   49.6045   20.6105 H         1 UNK         0.0000 
     44 H44        -3.8468   50.6258   24.1811 H         1 UNK         0.0000 
     45 H45        -5.4809   52.3007   24.8058 H         1 UNK         0.0000 
     46 H46        -4.2645   53.5247   24.8628 H         1 UNK         0.0000 
     47 H47        -4.4308   50.0314   26.2738 H         1 UNK         0.0000 
     48 H48        -5.7231   50.7267   27.1971 H         1 UNK         0.0000 
     49 H49        -3.6887   49.5492   28.5357 H         1 UNK         0.0000 
     50 H50        -4.1983   51.1390   29.1036 H         1 UNK         0.0000 
     51 H51        -1.8493   50.4712   27.3037 H         1 UNK         0.0000 
     52 H52        -1.9162   51.6160   28.6745 H         1 UNK         0.0000 
     53 H53         1.2919   52.5699   21.7661 H         1 UNK         0.0000 
     54 H54         2.6257   54.0724   25.5567 H         1 UNK         0.0000 
     55 H55        -0.3721   51.0150   25.4072 H         1 UNK         0.0000 
     56 H56         1.8696   53.0591   27.6159 H         1 UNK         0.0000 
     57 H57         0.0959   52.9843   27.5002 H         1 UNK         0.0000 
     58 H58         1.0524   51.5055   27.5181 H         1 UNK         0.0000 
     59 H59         3.1015   55.2962   23.3907 H         1 UNK         0.0000 
     60 H60         4.0476   53.8918   22.8971 H         1 UNK         0.0000 
     61 H61         2.7556   54.5182   21.8545 H         1 UNK         0.0000 
     62 H62        -4.1583   47.1044   22.6067 H         1 UNK         0.0000 
     63 H63        -4.6876   45.4506   22.7728 H         1 UNK         0.0000 
     64 H64        -2.1206   47.1195   24.3682 H         1 UNK         0.0000 
     65 H65        -1.0252   48.4308   24.4467 H         1 UNK         0.0000 
@<TRIPOS>BOND
     1    1    2 1    
     2    1   39 1    
     3    1   40 1    
     4    1   41 1    
     5    2    6 1    
     6    2    3 2    
     7    3    4 1    
     8    3   42 1    
     9    4    5 2    
    10    4   43 1    
    11    5    6 1    
    12    5    7 1    
    13    7    8 1    
    14    7    9 1    
    15    7   19 1    
    16    9   10 2    
    17    9   11 am   BACKBONE|DICT|INTERRES
    18   11   12 1    
    19   11   44 1    
    20   12   13 1    
    21   12   45 1    
    22   12   46 1    
    23   13   14 1    
    24   13   18 1    
    25   13   15 1    
    26   15   16 1    
    27   15   47 1    
    28   15   48 1    
    29   16   17 1    
    30   16   49 1    
    31   16   50 1    
    32   17   18 1    
    33   17   51 1    
    34   17   52 1    
    35   19   20 1    
    36   19   28 am   BACKBONE|DICT|INTERRES
    37   20   25 ar   
    38   20   21 ar   
    39   21   22 ar   
    40   21   53 1    
    41   22   23 ar   
    42   22   27 1    
    43   23   24 ar   
    44   23   54 1    
    45   24   25 ar   
    46   24   26 1    
    47   25   55 1    
    48   26   56 1    
    49   26   57 1    
    50   26   58 1    
    51   27   59 1    
    52   27   60 1    
    53   27   61 1    
    54   28   29 2    
    55   28   30 1    
    56   30   34 1    
    57   30   31 2    
    58   31   32 1    
    59   31   38 1    
    60   32   33 2    
    61   32   35 1    
    62   33   34 1    
    63   35   36 2    
    64   35   37 am   BACKBONE|DICT|INTERRES
    65   37   62 1    
    66   37   63 1    
    67   38   64 1    
    68   38   65 1    
@<TRIPOS>SUBSTRUCTURE
     1 UNK         1 GROUP             0       ****    0 ROOT    
