@<TRIPOS>MOLECULE
ZINC32961942_5795
60   63    1
SMALL
USER_CHARGES


@<TRIPOS>ATOM
      1 C1         -0.4176   48.6203   25.6424 C.3       1 UNK         0.0000 
      2 C2         -0.5079   50.0620   25.1704 C.ar      1 UNK         0.0000 
      3 C3          0.1716   51.0366   25.9091 C.ar      1 UNK         0.0000 
      4 C4          0.1538   52.3719   25.5152 C.ar      1 UNK         0.0000 
      5 C5         -0.5681   52.7502   24.3863 C.ar      1 UNK         0.0000 
      6 C6         -1.2483   51.7913   23.6400 C.ar      1 UNK         0.0000 
      7 C7         -1.2216   50.4428   24.0157 C.ar      1 UNK         0.0000 
      8 S8         -2.0617   49.2630   22.9450 S.o2      1 UNK         0.0000 
      9 O9         -2.6972   48.2251   23.7667 O.2       1 UNK         0.0000 
     10 O10        -2.8482   50.0232   21.9654 O.2       1 UNK         0.0000 
     11 N11        -0.7518   48.4960   22.0499 N.pl3     1 UNK         0.0000 
     12 C12        -1.0187   47.6199   20.9864 C.ar      1 UNK         0.0000 
     13 C13        -1.6710   46.4066   21.2254 C.ar      1 UNK         0.0000 
     14 C14        -1.8437   45.4622   20.1993 C.ar      1 UNK         0.0000 
     15 C15        -1.4416   45.8051   18.9005 C.ar      1 UNK         0.0000 
     16 C16        -0.8087   47.0209   18.6504 C.ar      1 UNK         0.0000 
     17 C17        -0.5345   47.9040   19.6972 C.ar      1 UNK         0.0000 
     18 N18         0.2254   49.0351   19.4740 N.pl3     1 UNK         0.0000 
     19 C19        -0.3612   50.3384   19.1750 C.3       1 UNK         0.0000 
     20 C20         0.4833   51.5264   19.7215 C.3       1 UNK         0.0000 
     21 N21         1.8778   51.2159   20.0893 N.pl3     1 UNK         0.0000 
     22 C22         2.4607   50.2126   19.1911 C.3       1 UNK         0.0000 
     23 C23         1.6171   48.9305   19.0229 C.3       1 UNK         0.0000 
     24 C24         2.6625   52.0798   20.8423 C.ar      1 UNK         0.0000 
     25 C25         2.1985   52.5377   22.0763 C.ar      1 UNK         0.0000 
     26 C26         2.9923   53.3510   22.8800 C.ar      1 UNK         0.0000 
     27 C27         4.2686   53.7262   22.4624 C.ar      1 UNK         0.0000 
     28 C28         4.7211   53.3051   21.2040 C.ar      1 UNK         0.0000 
     29 C29         3.9302   52.4844   20.4061 C.ar      1 UNK         0.0000 
     30 O30         5.0057   54.4914   23.3420 O.3       1 UNK         0.0000 
     31 C31         6.3472   54.8319   23.0063 C.3       1 UNK         0.0000 
     32 C32        -2.3794   44.0970   20.4992 C.2       1 UNK         0.0000 
     33 O33        -2.2978   43.6962   21.6836 O.co2     1 UNK         0.0000 
     34 O34        -2.8160   43.4046   19.5503 O.co2     1 UNK         0.0000 
     35 H35        -0.1776   47.9502   24.8170 H         1 UNK         0.0000 
     36 H36         0.3646   48.4968   26.3916 H         1 UNK         0.0000 
     37 H37        -1.3632   48.2985   26.0811 H         1 UNK         0.0000 
     38 H38         0.7247   50.7580   26.7942 H         1 UNK         0.0000 
     39 H39         0.6968   53.1072   26.0881 H         1 UNK         0.0000 
     40 H40        -0.5824   53.7850   24.0806 H         1 UNK         0.0000 
     41 H41        -1.7785   52.1041   22.7529 H         1 UNK         0.0000 
     42 H42         0.0120   49.1262   21.8499 H         1 UNK         0.0000 
     43 H43        -1.9828   46.1716   22.2362 H         1 UNK         0.0000 
     44 H44        -1.5764   45.1116   18.0848 H         1 UNK         0.0000 
     45 H45        -0.4659   47.2463   17.6508 H         1 UNK         0.0000 
     46 H46        -0.3271   50.3779   18.0836 H         1 UNK         0.0000 
     47 H47        -1.4189   50.4132   19.4368 H         1 UNK         0.0000 
     48 H48         0.0070   51.7793   20.6677 H         1 UNK         0.0000 
     49 H49         0.4072   52.3801   19.0454 H         1 UNK         0.0000 
     50 H50         3.5045   49.9744   19.3963 H         1 UNK         0.0000 
     51 H51         2.4675   50.7224   18.2247 H         1 UNK         0.0000 
     52 H52         2.0536   48.2062   19.7123 H         1 UNK         0.0000 
     53 H53         1.7180   48.5566   18.0014 H         1 UNK         0.0000 
     54 H54         1.2323   52.2263   22.4356 H         1 UNK         0.0000 
     55 H55         2.6290   53.6689   23.8462 H         1 UNK         0.0000 
     56 H56         5.6898   53.5934   20.8285 H         1 UNK         0.0000 
     57 H57         4.3065   52.1617   19.4456 H         1 UNK         0.0000 
     58 H58         6.7794   55.4312   23.8080 H         1 UNK         0.0000 
     59 H59         6.9654   53.9395   22.8911 H         1 UNK         0.0000 
     60 H60         6.3934   55.4264   22.0921 H         1 UNK         0.0000 
@<TRIPOS>BOND
     1    1    2 1    
     2    1   35 1    
     3    1   36 1    
     4    1   37 1    
     5    2    7 ar   
     6    2    3 ar   
     7    3    4 ar   
     8    3   38 1    
     9    4    5 ar   
    10    4   39 1    
    11    5    6 ar   
    12    5   40 1    
    13    6    7 ar   
    14    6   41 1    
    15    7    8 1    
    16    8    9 2    
    17    8   10 2    
    18    8   11 1    
    19   11   12 1    
    20   11   42 1    
    21   12   17 ar   
    22   12   13 ar   
    23   13   14 ar   
    24   13   43 1    
    25   14   15 ar   
    26   14   32 1    
    27   15   16 ar   
    28   15   44 1    
    29   16   17 ar   
    30   16   45 1    
    31   17   18 1    
    32   18   23 1    
    33   18   19 1    
    34   19   20 1    
    35   19   46 1    
    36   19   47 1    
    37   20   21 1    
    38   20   48 1    
    39   20   49 1    
    40   21   22 1    
    41   21   24 1    
    42   22   23 1    
    43   22   50 1    
    44   22   51 1    
    45   23   52 1    
    46   23   53 1    
    47   24   29 ar   
    48   24   25 ar   
    49   25   26 ar   
    50   25   54 1    
    51   26   27 ar   
    52   26   55 1    
    53   27   28 ar   
    54   27   30 1    
    55   28   29 ar   
    56   28   56 1    
    57   29   57 1    
    58   30   31 1    
    59   31   58 1    
    60   31   59 1    
    61   31   60 1    
    62   32   33 2    
    63   32   34 1    
@<TRIPOS>SUBSTRUCTURE
     1 UNK         1 GROUP             0       ****    0 ROOT    
