@<TRIPOS>MOLECULE
ZINC05800172_1468
45   48    1
SMALL
USER_CHARGES


@<TRIPOS>ATOM
      1 C1          2.0855   54.4955   16.4362 C.ar      1 UNK         0.0000 
      2 C2          2.6083   55.6831   16.9452 C.ar      1 UNK         0.0000 
      3 C3          3.8412   55.6745   17.5927 C.ar      1 UNK         0.0000 
      4 C4          4.5695   54.4818   17.7119 C.ar      1 UNK         0.0000 
      5 C5          4.0286   53.2961   17.1977 C.ar      1 UNK         0.0000 
      6 C6          2.7901   53.3015   16.5637 C.ar      1 UNK         0.0000 
      7 C7          5.9438   54.4213   18.4043 C.3       1 UNK         0.0000 
      8 H8          5.9607   53.4630   18.9331 H         1 UNK         0.0000 
      9 N9          7.0540   54.3203   17.4445 N.pl3     1 UNK         0.0000 
     10 C10         7.4376   55.5523   16.8816 C.ar      1 UNK         0.0000 
     11 C11         7.9366   55.6027   15.5798 C.ar      1 UNK         0.0000 
     12 C12         8.2430   56.8326   14.9978 C.ar      1 UNK         0.0000 
     13 C13         8.0332   58.0163   15.7085 C.ar      1 UNK         0.0000 
     14 C14         7.5139   57.9762   17.0035 C.ar      1 UNK         0.0000 
     15 C15         7.1919   56.7438   17.5887 C.ar      1 UNK         0.0000 
     16 C16         6.6752   56.7238   19.0100 C.2       1 UNK         0.0000 
     17 O17         6.7044   57.6967   19.7693 O.2       1 UNK         0.0000 
     18 N18         6.2785   55.4719   19.4068 N.am      1 UNK         0.0000 
     19 N19         5.7329   55.2931   20.6862 N.am      1 UNK         0.0000 
     20 C20         6.5640   55.0896   21.7354 C.2       1 UNK         0.0000 
     21 O21         7.7779   55.2968   21.6816 O.2       1 UNK         0.0000 
     22 C22         5.9053   54.7176   23.0469 C.ar      1 UNK         0.0000 
     23 C23         6.5344   55.0596   24.2506 C.ar      1 UNK         0.0000 
     24 C24         5.9010   54.8390   25.4692 C.ar      1 UNK         0.0000 
     25 C25         4.6174   54.2813   25.5126 C.ar      1 UNK         0.0000 
     26 C26         3.9974   53.9115   24.3109 C.ar      1 UNK         0.0000 
     27 C27         4.6451   54.0992   23.0917 C.ar      1 UNK         0.0000 
     28 N28         3.9263   54.0837   26.8114 N.pl3     1 UNK         0.0000 
     29 O29         2.7588   53.7020   26.8002 O.co2     1 UNK         0.0000 
     30 O30         4.5409   54.3199   27.8479 O.co2     1 UNK         0.0000 
     31 H31         1.1283   54.5025   15.9352 H         1 UNK         0.0000 
     32 H32         2.0594   56.6069   16.8404 H         1 UNK         0.0000 
     33 H33         4.2181   56.6083   17.9785 H         1 UNK         0.0000 
     34 H34         4.5694   52.3653   17.2834 H         1 UNK         0.0000 
     35 H35         2.3808   52.3812   16.1717 H         1 UNK         0.0000 
     36 H36         6.9794   53.5296   16.8215 H         1 UNK         0.0000 
     37 H37         8.0912   54.6923   15.0188 H         1 UNK         0.0000 
     38 H38         8.6369   56.8705   13.9929 H         1 UNK         0.0000 
     39 H39         8.2669   58.9669   15.2525 H         1 UNK         0.0000 
     40 H40         7.3485   58.9073   17.5324 H         1 UNK         0.0000 
     41 H41         4.7885   54.9410   20.6559 H         1 UNK         0.0000 
     42 H42         7.5040   55.5361   24.2440 H         1 UNK         0.0000 
     43 H43         6.4041   55.1314   26.3788 H         1 UNK         0.0000 
     44 H44         3.0120   53.4646   24.3180 H         1 UNK         0.0000 
     45 H45         4.1298   53.8054   22.1880 H         1 UNK         0.0000 
@<TRIPOS>BOND
     1    1    6 ar   
     2    1    2 ar   
     3    1   31 1    
     4    2    3 ar   
     5    2   32 1    
     6    3    4 ar   
     7    3   33 1    
     8    4    5 ar   
     9    4    7 1    
    10    5    6 ar   
    11    5   34 1    
    12    6   35 1    
    13    7    8 1    
    14    7   18 1    
    15    7    9 1    
    16    9   10 1    
    17    9   36 1    
    18   10   15 ar   
    19   10   11 ar   
    20   11   12 ar   
    21   11   37 1    
    22   12   13 ar   
    23   12   38 1    
    24   13   14 ar   
    25   13   39 1    
    26   14   15 ar   
    27   14   40 1    
    28   15   16 1    
    29   16   17 2    
    30   16   18 am   BACKBONE|DICT|INTERRES
    31   18   19 1    
    32   19   20 am   BACKBONE|DICT|INTERRES
    33   19   41 1    
    34   20   21 2    
    35   20   22 1    
    36   22   27 ar   
    37   22   23 ar   
    38   23   24 ar   
    39   23   42 1    
    40   24   25 ar   
    41   24   43 1    
    42   25   26 ar   
    43   25   28 1    
    44   26   27 ar   
    45   26   44 1    
    46   27   45 1    
    47   28   29 2    
    48   28   30 1    
@<TRIPOS>SUBSTRUCTURE
     1 UNK         1 GROUP             0       ****    0 ROOT    
