@<TRIPOS>MOLECULE
ZINC39440542_2512
51   54    1
SMALL
USER_CHARGES


@<TRIPOS>ATOM
      1 C1          5.1780   54.7497   29.6224 C.3       1 UNK         0.0000 
      2 C2          5.3151   54.2075   28.2084 C.2       1 UNK         0.0000 
      3 O3          6.3691   53.6937   27.8356 O.2       1 UNK         0.0000 
      4 N4          4.2131   54.3009   27.4530 N.am      1 UNK         0.0000 
      5 C5          4.0249   53.7384   26.1139 C.3       1 UNK         0.0000 
      6 H6          4.4833   52.7622   26.2005 H         1 UNK         0.0000 
      7 C7          2.4984   53.5581   25.8345 C.3       1 UNK         0.0000 
      8 C8          1.6226   53.0298   26.9530 C.ar      1 UNK         0.0000 
      9 C9          1.2645   53.6638   28.2281 C.ar      1 UNK         0.0000 
     10 C10         1.5187   54.9244   28.8264 C.ar      1 UNK         0.0000 
     11 C11         1.1038   55.2106   30.1417 C.ar      1 UNK         0.0000 
     12 C12         0.3764   54.2561   30.8810 C.ar      1 UNK         0.0000 
     13 C13         0.0672   53.0101   30.3067 C.ar      1 UNK         0.0000 
     14 C14         0.5063   52.7297   29.0010 C.ar      1 UNK         0.0000 
     15 N15         0.3697   51.6349   28.1762 N.pl3     1 UNK         0.0000 
     16 C16         1.0236   51.8155   26.9761 C.ar      1 UNK         0.0000 
     17 C17         4.8067   54.4978   25.0052 C.2       1 UNK         0.0000 
     18 O18         5.5154   55.4621   25.3107 O.2       1 UNK         0.0000 
     19 N19         4.6743   54.0413   23.7378 N.am      1 UNK         0.0000 
     20 C20         5.4124   54.4728   22.6170 C.ar      1 UNK         0.0000 
     21 C21         6.7511   54.8862   22.7201 C.ar      1 UNK         0.0000 
     22 C22         7.4623   55.2992   21.5939 C.ar      1 UNK         0.0000 
     23 C23         6.8328   55.3103   20.3562 C.ar      1 UNK         0.0000 
     24 C24         5.5044   54.9213   20.2396 C.ar      1 UNK         0.0000 
     25 C25         4.7933   54.4779   21.3595 C.ar      1 UNK         0.0000 
     26 S26         4.9310   55.1075   18.5872 S.3       1 UNK         0.0000 
     27 C27         6.4443   56.0153   18.1360 C.3       1 UNK         0.0000 
     28 H28         6.7634   55.6938   17.1437 H         1 UNK         0.0000 
     29 N29         7.4179   55.6316   19.1360 N.pl3     1 UNK         0.0000 
     30 S30         6.3054   57.8235   18.1257 S.3       1 UNK         0.0000 
     31 C31         5.2189   58.0997   16.7023 C.3       1 UNK         0.0000 
     32 H32         4.6213   55.6832   29.6722 H         1 UNK         0.0000 
     33 H33         4.6772   54.0091   30.2352 H         1 UNK         0.0000 
     34 H34         6.1619   54.8971   30.0593 H         1 UNK         0.0000 
     35 H35         3.3844   54.7040   27.8595 H         1 UNK         0.0000 
     36 H36         2.0619   54.4965   25.5132 H         1 UNK         0.0000 
     37 H37         2.3721   52.8946   24.9776 H         1 UNK         0.0000 
     38 H38         2.0471   55.6862   28.2734 H         1 UNK         0.0000 
     39 H39         1.3240   56.1743   30.5791 H         1 UNK         0.0000 
     40 H40         0.0504   54.4788   31.8871 H         1 UNK         0.0000 
     41 H41        -0.4962   52.2763   30.8681 H         1 UNK         0.0000 
     42 H42         1.0685   51.0928   26.1744 H         1 UNK         0.0000 
     43 H43        -0.1409   50.7865   28.3952 H         1 UNK         0.0000 
     44 H44         3.9893   53.3214   23.5685 H         1 UNK         0.0000 
     45 H45         7.2610   54.8703   23.6714 H         1 UNK         0.0000 
     46 H46         8.4985   55.5924   21.6820 H         1 UNK         0.0000 
     47 H47         3.7599   54.1775   21.2578 H         1 UNK         0.0000 
     48 H48         8.3638   55.9669   19.0189 H         1 UNK         0.0000 
     49 H49         5.0750   59.1704   16.5474 H         1 UNK         0.0000 
     50 H50         4.2435   57.6445   16.8719 H         1 UNK         0.0000 
     51 H51         5.6535   57.6738   15.7984 H         1 UNK         0.0000 
@<TRIPOS>BOND
     1    1    2 1    
     2    1   32 1    
     3    1   33 1    
     4    1   34 1    
     5    2    3 2    
     6    2    4 am   BACKBONE|DICT|INTERRES
     7    4    5 1    
     8    4   35 1    
     9    5    6 1    
    10    5    7 1    
    11    5   17 1    
    12    7   36 1    
    13    7   37 1    
    14    7    8 1    
    15    8    9 ar   
    16    8   16 ar   
    17    9   10 ar   
    18    9   14 ar   
    19   10   11 ar   
    20   10   38 1    
    21   11   12 ar   
    22   11   39 1    
    23   12   13 ar   
    24   12   40 1    
    25   13   14 ar   
    26   13   41 1    
    27   14   15 ar   
    28   15   43 1    
    29   15   16 ar   
    30   16   42 1    
    31   17   18 2    
    32   17   19 am   BACKBONE|DICT|INTERRES
    33   19   20 1    
    34   19   44 1    
    35   20   25 ar   
    36   20   21 ar   
    37   21   22 ar   
    38   21   45 1    
    39   22   23 ar   
    40   22   46 1    
    41   23   29 1    
    42   23   24 ar   
    43   24   25 ar   
    44   24   26 1    
    45   25   47 1    
    46   26   27 1    
    47   27   28 1    
    48   27   29 1    
    49   27   30 1    
    50   29   48 1    
    51   30   31 1    
    52   31   49 1    
    53   31   50 1    
    54   31   51 1    
@<TRIPOS>SUBSTRUCTURE
     1 UNK         1 GROUP             0       ****    0 ROOT    
