@<TRIPOS>MOLECULE
ZINC46659270_38
57   60    1
SMALL
USER_CHARGES


@<TRIPOS>ATOM
      1 C1          6.8074   53.7098   25.6915 C.3       1 UNK         0.0000 
      2 C2          5.7934   54.7480   25.1779 C.3       1 UNK         0.0000 
      3 C3          4.9789   55.2095   26.4019 C.3       1 UNK         0.0000 
      4 C4          6.5708   55.9742   24.6533 C.3       1 UNK         0.0000 
      5 C5          4.9028   54.1351   24.0644 C.ar      1 UNK         0.0000 
      6 C6          5.4848   53.6939   22.8683 C.ar      1 UNK         0.0000 
      7 C7          4.7192   53.0654   21.8857 C.ar      1 UNK         0.0000 
      8 C8          3.3439   52.8634   22.0780 C.ar      1 UNK         0.0000 
      9 C9          2.7513   53.3594   23.2453 C.ar      1 UNK         0.0000 
     10 C10         3.5164   53.9848   24.2219 C.ar      1 UNK         0.0000 
     11 C11         2.4828   52.1228   21.0747 C.2       1 UNK         0.0000 
     12 O12         1.2541   52.1305   21.1902 O.2       1 UNK         0.0000 
     13 N13         3.1043   51.4519   20.0813 N.am      1 UNK         0.0000 
     14 C14         2.3819   50.7388   19.0156 C.3       1 UNK         0.0000 
     15 C15         1.7179   51.7035   18.0090 C.2       1 UNK         0.0000 
     16 O16         0.7355   51.3153   17.3750 O.2       1 UNK         0.0000 
     17 N17         2.2682   52.9292   17.8569 N.am      1 UNK         0.0000 
     18 C18         1.6967   54.0627   17.2606 C.ar      1 UNK         0.0000 
     19 C19         2.5624   55.0286   16.7341 C.ar      1 UNK         0.0000 
     20 C20         2.0566   56.2181   16.2037 C.ar      1 UNK         0.0000 
     21 C21         0.6854   56.4568   16.2198 C.ar      1 UNK         0.0000 
     22 C22        -0.1797   55.5044   16.7684 C.ar      1 UNK         0.0000 
     23 C23         0.3141   54.3033   17.2817 C.ar      1 UNK         0.0000 
     24 C24        -1.6536   55.8281   16.8358 C.ar      1 UNK         0.0000 
     25 O25        -2.4927   55.1220   17.3961 O.2       1 UNK         0.0000 
     26 N26        -1.9629   57.0160   16.2289 N.pl3     1 UNK         0.0000 
     27 C27        -1.0505   57.8990   15.6949 C.ar      1 UNK         0.0000 
     28 N28         0.2084   57.6626   15.6841 N.2       1 UNK         0.0000 
     29 C29        -1.7682   59.1276   15.1928 C.3       1 UNK         0.0000 
     30 C30        -3.2219   58.6755   15.1075 C.3       1 UNK         0.0000 
     31 C31        -3.3425   57.4616   16.0248 C.3       1 UNK         0.0000 
     32 H32         6.2959   52.8978   26.2029 H         1 UNK         0.0000 
     33 H33         7.4081   53.2963   24.8817 H         1 UNK         0.0000 
     34 H34         7.4973   54.1405   26.4193 H         1 UNK         0.0000 
     35 H35         5.6149   55.6723   27.1577 H         1 UNK         0.0000 
     36 H36         4.2306   55.9315   26.0817 H         1 UNK         0.0000 
     37 H37         4.4603   54.3819   26.8884 H         1 UNK         0.0000 
     38 H38         7.1101   55.7724   23.7279 H         1 UNK         0.0000 
     39 H39         5.9045   56.8161   24.4817 H         1 UNK         0.0000 
     40 H40         7.3064   56.3148   25.3802 H         1 UNK         0.0000 
     41 H41         6.5465   53.8057   22.7078 H         1 UNK         0.0000 
     42 H42         5.2181   52.7239   20.9907 H         1 UNK         0.0000 
     43 H43         1.6912   53.2398   23.4221 H         1 UNK         0.0000 
     44 H44         3.0025   54.3133   25.1110 H         1 UNK         0.0000 
     45 H45         4.1102   51.4528   20.0069 H         1 UNK         0.0000 
     46 H46         3.0906   50.1079   18.4817 H         1 UNK         0.0000 
     47 H47         1.6333   50.0681   19.4399 H         1 UNK         0.0000 
     48 H48         3.1651   53.0723   18.2939 H         1 UNK         0.0000 
     49 H49         3.6303   54.8631   16.7343 H         1 UNK         0.0000 
     50 H50         2.7239   56.9615   15.7937 H         1 UNK         0.0000 
     51 H51        -0.3582   53.5835   17.7292 H         1 UNK         0.0000 
     52 H52        -1.6374   59.9419   15.9060 H         1 UNK         0.0000 
     53 H53        -1.3751   59.4500   14.2282 H         1 UNK         0.0000 
     54 H54        -3.9275   59.4617   15.3790 H         1 UNK         0.0000 
     55 H55        -3.4497   58.3827   14.0799 H         1 UNK         0.0000 
     56 H56        -3.9527   56.6706   15.5846 H         1 UNK         0.0000 
     57 H57        -3.8180   57.6964   16.9757 H         1 UNK         0.0000 
@<TRIPOS>BOND
     1    1    2 1    
     2    1   32 1    
     3    1   33 1    
     4    1   34 1    
     5    2    3 1    
     6    2    4 1    
     7    2    5 1    
     8    3   35 1    
     9    3   36 1    
    10    3   37 1    
    11    4   38 1    
    12    4   39 1    
    13    4   40 1    
    14    5   10 ar   
    15    5    6 ar   
    16    6    7 ar   
    17    6   41 1    
    18    7    8 ar   
    19    7   42 1    
    20    8    9 ar   
    21    8   11 1    
    22    9   10 ar   
    23    9   43 1    
    24   10   44 1    
    25   11   12 2    
    26   11   13 am   BACKBONE|DICT|INTERRES
    27   13   14 1    
    28   13   45 1    
    29   14   15 1    
    30   14   46 1    
    31   14   47 1    
    32   15   16 2    
    33   15   17 am   BACKBONE|DICT|INTERRES
    34   17   18 1    
    35   17   48 1    
    36   18   23 ar   
    37   18   19 ar   
    38   19   20 ar   
    39   19   49 1    
    40   20   21 ar   
    41   20   50 1    
    42   21   28 ar   
    43   21   22 ar   
    44   22   23 ar   
    45   22   24 ar   
    46   23   51 1    
    47   24   25 2    
    48   24   26 ar   
    49   26   31 1    
    50   26   27 ar   
    51   27   28 ar   
    52   27   29 1    
    53   29   30 1    
    54   29   52 1    
    55   29   53 1    
    56   30   31 1    
    57   30   54 1    
    58   30   55 1    
    59   31   56 1    
    60   31   57 1    
@<TRIPOS>SUBSTRUCTURE
     1 UNK         1 GROUP             0       ****    0 ROOT    
