ZINC09242496_3635
                    3D
 Schrodinger Suite 2024-2.
 48 51  0  0  1  0            999 V2000
    6.7041   54.7716   23.1386 C   0  0  0  0  0  0
    6.7455   55.5088   24.4874 C   0  0  0  0  0  0
    6.0433   54.7620   25.6188 C   0  0  0  0  0  0
    4.7150   54.5705   25.1732 O   0  0  0  0  0  0
    3.7843   54.0199   26.0131 C   0  0  0  0  0  0
    2.5436   53.7982   25.4391 C   0  0  0  0  0  0
    1.5051   53.2982   26.2031 C   0  0  0  0  0  0
    1.6862   52.9751   27.5465 C   0  0  0  0  0  0
    2.9541   53.1714   28.1164 C   0  0  0  0  0  0
    3.9995   53.6956   27.3589 C   0  0  0  0  0  0
    0.5311   52.4471   28.3511 C   0  0  0  0  0  0
   -0.7659   52.0303   27.9179 C   0  0  0  0  0  0
   -1.3442   51.6042   29.0916 C   0  0  0  0  0  0
   -0.4964   51.8556   30.1177 N   0  0  0  0  0  0
   -0.6978   51.6889   31.0990 H   0  0  0  0  0  0
    0.6526   52.3588   29.6710 N   0  0  0  0  0  0
   -2.5766   51.0359   29.2814 O   0  0  0  0  0  0
   -3.3064   50.8974   28.1439 C   0  0  0  0  0  0
   -2.9345   51.2803   26.8980 C   0  0  0  0  0  0
   -1.5603   51.9098   26.5960 C   0  0  2  0  0  0
   -1.7376   52.9293   26.2535 H   0  0  0  0  0  0
   -0.8375   51.1955   25.4536 C   0  0  0  0  0  0
   -0.1443   50.0044   25.6801 C   0  0  0  0  0  0
    0.5712   49.4149   24.6439 C   0  0  0  0  0  0
    0.6128   50.0248   23.3896 C   0  0  0  0  0  0
   -0.1124   51.1872   23.1465 C   0  0  0  0  0  0
   -0.8506   51.7634   24.1733 C   0  0  0  0  0  0
    1.6882   49.2969   21.9991 Br  0  0  0  0  0  0
   -3.8392   51.1099   25.8063 C   0  0  0  0  0  0
   -4.5761   51.0041   24.9195 N   0  0  0  0  0  0
   -4.4829   50.2992   28.4996 N   0  0  0  0  0  0
    7.2666   55.3166   22.3809 H   0  0  0  0  0  0
    7.1463   53.7787   23.2204 H   0  0  0  0  0  0
    5.6831   54.6545   22.7724 H   0  0  0  0  0  0
    6.3039   56.4966   24.3751 H   0  0  0  0  0  0
    7.7786   55.6853   24.7747 H   0  0  0  0  0  0
    6.0766   55.3605   26.5313 H   0  0  0  0  0  0
    6.5279   53.8036   25.8163 H   0  0  0  0  0  0
    2.3733   54.0575   24.4052 H   0  0  0  0  0  0
    0.5455   53.2292   25.7364 H   0  0  0  0  0  0
    3.1376   52.9291   29.1531 H   0  0  0  0  0  0
    4.9594   53.8458   27.8275 H   0  0  0  0  0  0
   -0.1508   49.5435   26.6603 H   0  0  0  0  0  0
    1.1043   48.4963   24.8276 H   0  0  0  0  0  0
   -0.0858   51.6482   22.1703 H   0  0  0  0  0  0
   -1.3952   52.6754   23.9819 H   0  0  0  0  0  0
   -5.1696   50.0860   27.7915 H   0  0  0  0  0  0
   -4.4775   49.7059   29.3170 H   0  0  0  0  0  0
  1  2  1  0  0  0
  1 32  1  0  0  0
  1 33  1  0  0  0
  1 34  1  0  0  0
  2  3  1  0  0  0
  2 35  1  0  0  0
  2 36  1  0  0  0
  3  4  1  0  0  0
  3 37  1  0  0  0
  3 38  1  0  0  0
  4  5  1  0  0  0
  5 10  2  0  0  0
  5  6  1  0  0  0
  6  7  2  0  0  0
  6 39  1  0  0  0
  7  8  1  0  0  0
  7 40  1  0  0  0
  8  9  2  0  0  0
  8 11  1  0  0  0
  9 10  1  0  0  0
  9 41  1  0  0  0
 10 42  1  0  0  0
 11 16  2  0  0  0
 11 12  1  0  0  0
 12 20  1  0  0  0
 12 13  2  0  0  0
 13 14  1  0  0  0
 13 17  1  0  0  0
 14 15  1  0  0  0
 14 16  1  0  0  0
 17 18  1  0  0  0
 18 19  2  0  0  0
 18 31  1  0  0  0
 19 20  1  0  0  0
 19 29  1  0  0  0
 20 21  1  0  0  0
 20 22  1  0  0  0
 22 27  2  0  0  0
 22 23  1  0  0  0
 23 24  2  0  0  0
 23 43  1  0  0  0
 24 25  1  0  0  0
 24 44  1  0  0  0
 25 26  2  0  0  0
 25 28  1  0  0  0
 26 27  1  0  0  0
 26 45  1  0  0  0
 27 46  1  0  0  0
 29 30  3  0  0  0
 31 47  1  0  0  0
 31 48  1  0  0  0
M  END
> <i_i_glide_confnum>
8

> <i_i_glide_lignum>
3636

> <i_i_glide_posenum>
217

> <i_i_glide_rotatable_bonds>
6

> <i_m_Source_File_Index>
2891

> <b_m_subgroup_collapsed>
0

> <r_i_docking_score>
-4.62571

> <r_i_glide_ecoul>
-2.04109

> <r_i_glide_eff_state_penalty>
0

> <r_i_glide_einternal>
2.21076

> <r_i_glide_emodel>
-51.6864

> <r_i_glide_energy>
-40.2435

> <r_i_glide_erotb>
0.393863

> <r_i_glide_esite>
-0.143586

> <r_i_glide_evdw>
-38.2024

> <r_i_glide_gscore>
-4.62571

> <r_i_glide_hbond>
-0.0911046

> <r_i_glide_ligand_efficiency>
-0.159507

> <r_i_glide_ligand_efficiency_ln>
-1.05917

> <r_i_glide_ligand_efficiency_sa>
-0.490057

> <r_i_glide_lipo>
-2.23674

> <r_i_glide_metal>
0

> <r_i_glide_rewards>
-0.331857

> <s_i_glide_gridfile>
wee1_glide-grid

> <s_m_Source_File>
wee1_decoys_glide_SP.sdf

> <s_m_Source_Path>
/Users/zhangxujun/Desktop

> <s_m_entry_id>
3166

> <s_m_entry_name>
wee1_decoys_glide_SP.2891

> <s_m_subgroup_title>
wee1_decoys_glide_SP

> <s_m_subgroupid>
wee1_decoys_glide_SP


$$$$
