@<TRIPOS>MOLECULE
ZINC20719743_2360
55   60    1
SMALL
USER_CHARGES


@<TRIPOS>ATOM
      1 C1          2.7019   58.0954   16.3447 C.ar      1 UNK         0.0000 
      2 C2          4.0205   58.1332   16.7852 C.ar      1 UNK         0.0000 
      3 C3          4.6149   56.9743   17.2778 C.ar      1 UNK         0.0000 
      4 C4          3.8857   55.7830   17.3386 C.ar      1 UNK         0.0000 
      5 C5          2.5667   55.7503   16.8844 C.ar      1 UNK         0.0000 
      6 C6          1.9705   56.9103   16.3926 C.ar      1 UNK         0.0000 
      7 N7          4.4866   54.5825   17.7288 N.pl3     1 UNK         0.0000 
      8 S8          5.5268   54.3776   19.1526 S.o2      1 UNK         0.0000 
      9 O9          6.1938   55.6498   19.4544 O.2       1 UNK         0.0000 
     10 O10         6.3044   53.1712   18.8808 O.2       1 UNK         0.0000 
     11 C11         4.4974   53.9604   20.5456 C.ar      1 UNK         0.0000 
     12 C12         4.7868   54.4964   21.7975 C.ar      1 UNK         0.0000 
     13 C13         4.0486   54.0971   22.9071 C.ar      1 UNK         0.0000 
     14 C14         3.0245   53.1619   22.7714 C.ar      1 UNK         0.0000 
     15 C15         2.7009   52.6238   21.5111 C.ar      1 UNK         0.0000 
     16 C16         3.4716   53.0251   20.4103 C.ar      1 UNK         0.0000 
     17 C17         1.5605   51.6159   21.3532 C.3       1 UNK         0.0000 
     18 H18         0.7747   52.0934   20.7646 H         1 UNK         0.0000 
     19 C19         2.0295   50.3147   20.7279 C.2       1 UNK         0.0000 
     20 C20         2.1555   49.3430   21.6470 C.2       1 UNK         0.0000 
     21 C21         1.7155   49.8194   23.0113 C.3       1 UNK         0.0000 
     22 C22         0.9909   51.1369   22.7006 C.3       1 UNK         0.0000 
     23 H23        -0.0554   50.8766   22.5240 H         1 UNK         0.0000 
     24 C24         0.9794   52.2181   23.8248 C.3       1 UNK         0.0000 
     25 H25         0.3152   53.0206   23.4978 H         1 UNK         0.0000 
     26 N26         2.2985   52.8343   23.9292 N.pl3     1 UNK         0.0000 
     27 C27         0.4565   51.7239   25.1835 C.ar      1 UNK         0.0000 
     28 C28        -0.4068   50.6595   25.4157 C.ar      1 UNK         0.0000 
     29 N29        -0.6435   50.4970   26.7564 N.pl3     1 UNK         0.0000 
     30 H30        -1.2057   49.7413   27.1445 H         1 UNK         0.0000 
     31 C31         0.0209   51.4670   27.4631 C.ar      1 UNK         0.0000 
     32 C32         0.7303   52.2609   26.5066 C.ar      1 UNK         0.0000 
     33 C33         1.5050   53.3314   26.9942 C.ar      1 UNK         0.0000 
     34 C34         1.5507   53.5795   28.3652 C.ar      1 UNK         0.0000 
     35 C35         0.8446   52.7858   29.2643 C.ar      1 UNK         0.0000 
     36 C36         0.0646   51.7140   28.8390 C.ar      1 UNK         0.0000 
     37 H37         2.2447   58.9999   15.9707 H         1 UNK         0.0000 
     38 H38         4.5785   59.0586   16.7395 H         1 UNK         0.0000 
     39 H39         5.6516   57.0132   17.5765 H         1 UNK         0.0000 
     40 H40         1.9989   54.8312   16.9073 H         1 UNK         0.0000 
     41 H41         0.9490   56.8952   16.0418 H         1 UNK         0.0000 
     42 H42         4.1299   53.7236   17.3387 H         1 UNK         0.0000 
     43 H43         5.5961   55.2025   21.9174 H         1 UNK         0.0000 
     44 H44         4.2832   54.5135   23.8749 H         1 UNK         0.0000 
     45 H45         3.2666   52.6024   19.4361 H         1 UNK         0.0000 
     46 H46         2.2871   50.2346   19.6816 H         1 UNK         0.0000 
     47 H47         2.5245   48.3439   21.4725 H         1 UNK         0.0000 
     48 H48         2.5647   49.9578   23.6806 H         1 UNK         0.0000 
     49 H49         1.0478   49.1017   23.4875 H         1 UNK         0.0000 
     50 H50         2.4843   53.3043   24.8014 H         1 UNK         0.0000 
     51 H51        -0.8684   49.9747   24.7190 H         1 UNK         0.0000 
     52 H52         2.0501   53.9763   26.3253 H         1 UNK         0.0000 
     53 H53         2.1402   54.4069   28.7372 H         1 UNK         0.0000 
     54 H54         0.9008   53.0080   30.3205 H         1 UNK         0.0000 
     55 H55        -0.4802   51.1023   29.5447 H         1 UNK         0.0000 
@<TRIPOS>BOND
     1    1    6 ar   
     2    1    2 ar   
     3    1   37 1    
     4    2    3 ar   
     5    2   38 1    
     6    3    4 ar   
     7    3   39 1    
     8    4    5 ar   
     9    4    7 1    
    10    5    6 ar   
    11    5   40 1    
    12    6   41 1    
    13    7    8 1    
    14    7   42 1    
    15    8    9 2    
    16    8   10 2    
    17    8   11 1    
    18   11   16 ar   
    19   11   12 ar   
    20   12   13 ar   
    21   12   43 1    
    22   13   14 ar   
    23   13   44 1    
    24   14   26 1    
    25   14   15 ar   
    26   15   16 ar   
    27   15   17 1    
    28   16   45 1    
    29   17   18 1    
    30   17   22 1    
    31   17   19 1    
    32   19   20 2    
    33   19   46 1    
    34   20   21 1    
    35   20   47 1    
    36   21   22 1    
    37   21   48 1    
    38   21   49 1    
    39   22   23 1    
    40   22   24 1    
    41   24   25 1    
    42   24   26 1    
    43   24   27 1    
    44   26   50 1    
    45   27   32 ar   
    46   27   28 ar   
    47   28   29 ar   
    48   28   51 1    
    49   29   30 1    
    50   29   31 ar   
    51   31   36 ar   
    52   31   32 ar   
    53   32   33 ar   
    54   33   34 ar   
    55   33   52 1    
    56   34   35 ar   
    57   34   53 1    
    58   35   36 ar   
    59   35   54 1    
    60   36   55 1    
@<TRIPOS>SUBSTRUCTURE
     1 UNK         1 GROUP             0       ****    0 ROOT    
