@<TRIPOS>MOLECULE
ZINC39549111_2559
54   57    1
SMALL
USER_CHARGES


@<TRIPOS>ATOM
      1 C1          3.2036   54.2018   26.7911 C.ar      1 UNK         0.0000 
      2 C2          2.9447   53.9106   25.4552 C.ar      1 UNK         0.0000 
      3 C3          1.7626   53.2507   25.0809 C.ar      1 UNK         0.0000 
      4 C4          0.8587   52.8850   26.0815 C.ar      1 UNK         0.0000 
      5 C5          1.1064   53.1877   27.4137 C.ar      1 UNK         0.0000 
      6 C6          2.2763   53.8568   27.7769 C.ar      1 UNK         0.0000 
      7 C7          2.5528   54.2351   29.2318 C.3       1 UNK         0.0000 
      8 S8          3.0399   52.8163   30.2494 S.3       1 UNK         0.0000 
      9 C9          1.3533   52.3959   30.7483 C.3       1 UNK         0.0000 
     10 C10         0.5715   53.6737   31.0632 C.3       1 UNK         0.0000 
     11 S11         1.1487   55.0620   30.0481 S.3       1 UNK         0.0000 
     12 C12         1.4488   52.9026   23.6413 C.2       1 UNK         0.0000 
     13 O13         0.3067   52.5836   23.3027 O.2       1 UNK         0.0000 
     14 N14         2.5024   52.9348   22.8059 N.am      1 UNK         0.0000 
     15 C15         2.6458   52.4945   21.4761 C.ar      1 UNK         0.0000 
     16 C16         1.7579   51.5648   20.9005 C.ar      1 UNK         0.0000 
     17 C17         1.9176   51.1293   19.5790 C.ar      1 UNK         0.0000 
     18 C18         2.9372   51.6970   18.8155 C.ar      1 UNK         0.0000 
     19 C19         3.8238   52.6040   19.3754 C.ar      1 UNK         0.0000 
     20 C20         3.7203   53.0150   20.7139 C.ar      1 UNK         0.0000 
     21 N21         4.6925   53.8689   21.2571 N.pl3     1 UNK         0.0000 
     22 C22         5.5039   53.3878   22.4022 C.3       1 UNK         0.0000 
     23 C23         6.2962   54.4918   23.1246 C.3       1 UNK         0.0000 
     24 C24         7.1596   55.2969   22.1582 C.3       1 UNK         0.0000 
     25 C25         6.3210   55.8106   20.9906 C.3       1 UNK         0.0000 
     26 C26         5.5228   54.6781   20.3348 C.3       1 UNK         0.0000 
     27 C27         1.0248   50.0508   19.0088 C.2       1 UNK         0.0000 
     28 O28        -0.0839   49.8123   19.4810 O.2       1 UNK         0.0000 
     29 N29         1.5042   49.3461   17.9802 N.am      1 UNK         0.0000 
     30 H30         4.1188   54.7120   27.0519 H         1 UNK         0.0000 
     31 H31         3.6755   54.2176   24.7256 H         1 UNK         0.0000 
     32 H32        -0.0630   52.3710   25.8341 H         1 UNK         0.0000 
     33 H33         0.3652   52.9249   28.1523 H         1 UNK         0.0000 
     34 H34         3.3834   54.9444   29.2599 H         1 UNK         0.0000 
     35 H35         0.8905   51.8373   29.9359 H         1 UNK         0.0000 
     36 H36         1.3807   51.7358   31.6118 H         1 UNK         0.0000 
     37 H37         0.7037   53.9561   32.1078 H         1 UNK         0.0000 
     38 H38        -0.4958   53.5247   30.9104 H         1 UNK         0.0000 
     39 H39         3.3219   53.4110   23.1513 H         1 UNK         0.0000 
     40 H40         0.9635   51.1333   21.4918 H         1 UNK         0.0000 
     41 H41         3.1026   51.4011   17.7875 H         1 UNK         0.0000 
     42 H42         4.6244   52.9463   18.7390 H         1 UNK         0.0000 
     43 H43         6.1647   52.5882   22.0818 H         1 UNK         0.0000 
     44 H44         4.8821   52.9126   23.1534 H         1 UNK         0.0000 
     45 H45         6.9379   54.0328   23.8790 H         1 UNK         0.0000 
     46 H46         5.6178   55.1371   23.6829 H         1 UNK         0.0000 
     47 H47         7.6434   56.1122   22.6851 H         1 UNK         0.0000 
     48 H48         7.9681   54.6720   21.7799 H         1 UNK         0.0000 
     49 H49         5.6552   56.6219   21.2783 H         1 UNK         0.0000 
     50 H50         6.9842   56.2514   20.2436 H         1 UNK         0.0000 
     51 H51         6.2033   54.0236   19.7906 H         1 UNK         0.0000 
     52 H52         4.8621   55.1299   19.5914 H         1 UNK         0.0000 
     53 H53         2.4582   49.4732   17.6493 H         1 UNK         0.0000 
     54 H54         0.9373   48.6201   17.5745 H         1 UNK         0.0000 
@<TRIPOS>BOND
     1    1    6 ar   
     2    1    2 ar   
     3    1   30 1    
     4    2    3 ar   
     5    2   31 1    
     6    3    4 ar   
     7    3   12 1    
     8    4    5 ar   
     9    4   32 1    
    10    5    6 ar   
    11    5   33 1    
    12    6    7 1    
    13    7   11 1    
    14    7    8 1    
    15    7   34 1    
    16    8    9 1    
    17    9   10 1    
    18    9   35 1    
    19    9   36 1    
    20   10   11 1    
    21   10   37 1    
    22   10   38 1    
    23   12   13 2    
    24   12   14 am   BACKBONE|DICT|INTERRES
    25   14   15 1    
    26   14   39 1    
    27   15   20 ar   
    28   15   16 ar   
    29   16   17 ar   
    30   16   40 1    
    31   17   18 ar   
    32   17   27 1    
    33   18   19 ar   
    34   18   41 1    
    35   19   20 ar   
    36   19   42 1    
    37   20   21 1    
    38   21   26 1    
    39   21   22 1    
    40   22   23 1    
    41   22   43 1    
    42   22   44 1    
    43   23   24 1    
    44   23   45 1    
    45   23   46 1    
    46   24   25 1    
    47   24   47 1    
    48   24   48 1    
    49   25   26 1    
    50   25   49 1    
    51   25   50 1    
    52   26   51 1    
    53   26   52 1    
    54   27   28 2    
    55   27   29 am   BACKBONE|DICT|INTERRES
    56   29   53 1    
    57   29   54 1    
@<TRIPOS>SUBSTRUCTURE
     1 UNK         1 GROUP             0       ****    0 ROOT    
