ZINC63617069_5724
                    3D
 Schrodinger Suite 2024-2.
 69 73  0  0  1  0            999 V2000
   -7.4581   51.4194   26.7128 C   0  0  0  0  0  0
   -6.8107   52.5601   26.1599 O   0  0  0  0  0  0
   -5.5613   52.4132   25.5894 C   0  0  0  0  0  0
   -4.9848   53.5660   25.0608 C   0  0  0  0  0  0
   -3.7226   53.5239   24.4794 C   0  0  0  0  0  0
   -3.0123   52.3224   24.4187 C   0  0  0  0  0  0
   -3.5970   51.1566   24.9318 C   0  0  0  0  0  0
   -4.8594   51.2011   25.5175 C   0  0  0  0  0  0
   -1.6088   52.3079   23.8076 C   0  0  2  0  0  0
   -1.3097   53.3473   23.6675 H   0  0  0  0  0  0
   -1.6870   51.6965   22.3621 C   0  0  0  0  0  0
   -2.6954   51.0907   21.9912 O   0  0  0  0  0  0
   -0.6160   51.8984   21.5652 N   0  0  0  0  0  0
   -0.4352   51.4302   20.2527 C   0  0  0  0  0  0
   -1.4522   51.4764   19.2913 C   0  0  0  0  0  0
   -1.1968   51.0404   17.9931 C   0  0  0  0  0  0
    0.0655   50.5656   17.6361 C   0  0  0  0  0  0
    1.0808   50.5198   18.6035 C   0  0  0  0  0  0
    0.8277   50.9476   19.9037 C   0  0  0  0  0  0
    0.2234   50.1660   16.3240 O   0  0  0  0  0  0
    1.5045   49.7193   15.8875 C   0  0  0  0  0  0
   -0.5586   51.7250   24.7483 N   0  0  0  0  0  0
    0.7368   51.3068   24.1467 C   0  0  0  0  0  0
    1.6686   52.4804   23.8602 C   0  0  0  0  0  0
    2.2581   53.0045   22.7150 C   0  0  0  0  0  0
    3.0293   54.0967   23.1064 C   0  0  0  0  0  0
    2.8859   54.1983   24.4758 C   0  0  0  0  0  0
    2.0523   53.2300   24.9291 O   0  0  0  0  0  0
   -0.5879   51.9002   26.1193 C   0  0  0  0  0  0
   -1.4845   52.5134   26.6922 O   0  0  0  0  0  0
    0.5242   51.2945   27.0118 C   0  0  0  0  0  0
    0.5637   51.7208   28.4806 C   0  0  0  0  0  0
    1.6257   52.0084   29.2516 C   0  0  0  0  0  0
    3.0558   52.0964   28.9253 C   0  0  0  0  0  0
    3.9824   52.1400   29.9015 C   0  0  0  0  0  0
    3.5225   52.0967   31.2811 C   0  0  0  0  0  0
    2.1993   52.0968   31.5901 C   0  0  0  0  0  0
    1.2308   52.1002   30.5880 C   0  0  0  0  0  0
   -0.0747   52.0966   30.7032 N   0  3  0  0  0  0
   -0.6492   51.7949   29.3878 C   0  0  0  0  0  0
   -8.4233   51.7177   27.1219 H   0  0  0  0  0  0
   -7.6413   50.6560   25.9548 H   0  0  0  0  0  0
   -6.8758   50.9850   27.5274 H   0  0  0  0  0  0
   -5.5274   54.4967   25.1014 H   0  0  0  0  0  0
   -3.2970   54.4323   24.0800 H   0  0  0  0  0  0
   -3.0622   50.2186   24.8912 H   0  0  0  0  0  0
   -5.2690   50.2866   25.9163 H   0  0  0  0  0  0
    0.1839   52.3501   21.9834 H   0  0  0  0  0  0
   -2.4350   51.8503   19.5376 H   0  0  0  0  0  0
   -1.9820   51.0747   17.2523 H   0  0  0  0  0  0
    2.0708   50.1570   18.3632 H   0  0  0  0  0  0
    1.6232   50.8828   20.6294 H   0  0  0  0  0  0
    1.4578   49.4631   14.8294 H   0  0  0  0  0  0
    2.2612   50.4975   16.0017 H   0  0  0  0  0  0
    1.8251   48.8274   16.4293 H   0  0  0  0  0  0
    1.2570   50.5892   24.7772 H   0  0  0  0  0  0
    0.5653   50.6768   23.2764 H   0  0  0  0  0  0
    2.1613   52.6526   21.7006 H   0  0  0  0  0  0
    3.6182   54.7362   22.4634 H   0  0  0  0  0  0
    3.2809   54.8768   25.2172 H   0  0  0  0  0  0
    1.5043   51.5284   26.6149 H   0  0  0  0  0  0
    0.4074   50.2099   26.9839 H   0  0  0  0  0  0
    3.4039   52.1342   27.9026 H   0  0  0  0  0  0
    5.0347   52.2118   29.6643 H   0  0  0  0  0  0
    4.2518   52.0751   32.0806 H   0  0  0  0  0  0
    1.8908   52.0614   32.6190 H   0  0  0  0  0  0
   -1.2511   50.8967   29.4622 H   0  0  0  0  0  0
   -1.2955   52.6036   29.1365 H   0  0  0  0  0  0
   -0.6094   52.0966   31.5800 H   0  0  0  0  0  0
  1  2  1  0  0  0
  1 41  1  0  0  0
  1 42  1  0  0  0
  1 43  1  0  0  0
  2  3  1  0  0  0
  3  8  2  0  0  0
  3  4  1  0  0  0
  4  5  2  0  0  0
  4 44  1  0  0  0
  5  6  1  0  0  0
  5 45  1  0  0  0
  6  7  2  0  0  0
  6  9  1  0  0  0
  7  8  1  0  0  0
  7 46  1  0  0  0
  8 47  1  0  0  0
  9 10  1  0  0  0
  9 11  1  0  0  0
  9 22  1  0  0  0
 11 12  2  0  0  0
 11 13  1  0  0  0
 13 14  1  0  0  0
 13 48  1  0  0  0
 14 19  2  0  0  0
 14 15  1  0  0  0
 15 16  2  0  0  0
 15 49  1  0  0  0
 16 17  1  0  0  0
 16 50  1  0  0  0
 17 18  2  0  0  0
 17 20  1  0  0  0
 18 19  1  0  0  0
 18 51  1  0  0  0
 19 52  1  0  0  0
 20 21  1  0  0  0
 21 53  1  0  0  0
 21 54  1  0  0  0
 21 55  1  0  0  0
 22 23  1  0  0  0
 22 29  1  0  0  0
 23 24  1  0  0  0
 23 56  1  0  0  0
 23 57  1  0  0  0
 24 28  1  0  0  0
 24 25  2  0  0  0
 25 26  1  0  0  0
 25 58  1  0  0  0
 26 27  2  0  0  0
 26 59  1  0  0  0
 27 28  1  0  0  0
 27 60  1  0  0  0
 29 30  2  0  0  0
 29 31  1  0  0  0
 31 32  1  0  0  0
 31 61  1  0  0  0
 31 62  1  0  0  0
 32 40  1  0  0  0
 32 33  2  0  0  0
 33 38  1  0  0  0
 33 34  1  0  0  0
 34 35  2  0  0  0
 34 63  1  0  0  0
 35 36  1  0  0  0
 35 64  1  0  0  0
 36 37  2  0  0  0
 36 65  1  0  0  0
 37 38  1  0  0  0
 37 66  1  0  0  0
 38 39  2  0  0  0
 39 40  1  0  0  0
 39 69  1  0  0  0
 40 67  1  0  0  0
 40 68  1  0  0  0
M  CHG  1  39   1
M  END
> <i_i_glide_confnum>
86

> <i_i_glide_lignum>
5725

> <i_i_glide_posenum>
307

> <i_i_glide_rotatable_bonds>
12

> <i_m_Source_File_Index>
534

> <b_m_subgroup_collapsed>
0

> <r_i_docking_score>
-4.08087

> <r_i_glide_ecoul>
-5.32495

> <r_i_glide_eff_state_penalty>
0

> <r_i_glide_einternal>
10.6571

> <r_i_glide_emodel>
-47.9868

> <r_i_glide_energy>
-40.1139

> <r_i_glide_erotb>
0.598199

> <r_i_glide_esite>
-0.125469

> <r_i_glide_evdw>
-34.789

> <r_i_glide_gscore>
-4.08087

> <r_i_glide_hbond>
-0.2

> <r_i_glide_ligand_efficiency>
-0.104638

> <r_i_glide_ligand_efficiency_ln>
-0.875054

> <r_i_glide_ligand_efficiency_sa>
-0.354848

> <r_i_glide_lipo>
-2.02806

> <r_i_glide_metal>
0

> <r_i_glide_rewards>
0.212654

> <s_i_glide_gridfile>
wee1_glide-grid

> <s_m_Source_File>
wee1_decoys_glide_SP.sdf

> <s_m_Source_Path>
/Users/zhangxujun/Desktop

> <s_m_entry_id>
809

> <s_m_entry_name>
wee1_decoys_glide_SP.534

> <s_m_subgroup_title>
wee1_decoys_glide_SP

> <s_m_subgroupid>
wee1_decoys_glide_SP


$$$$
