@<TRIPOS>MOLECULE
ZINC01112723_1497
43   46    1
SMALL
USER_CHARGES


@<TRIPOS>ATOM
      1 C1         -0.4964   52.0938   30.8818 C.3       1 UNK         0.0000 
      2 O2         -0.0071   52.2581   29.5716 O.3       1 UNK         0.0000 
      3 C3          1.0611   53.0402   29.3175 C.2       1 UNK         0.0000 
      4 O4          1.6668   53.6912   30.1752 O.2       1 UNK         0.0000 
      5 C5          1.4139   53.0480   27.8664 C.ar      1 UNK         0.0000 
      6 C6          0.7645   52.2050   26.9543 C.ar      1 UNK         0.0000 
      7 C7          1.1043   52.2314   25.6105 C.ar      1 UNK         0.0000 
      8 C8          2.0939   53.0964   25.1350 C.ar      1 UNK         0.0000 
      9 C9          2.7562   53.9201   26.0578 C.ar      1 UNK         0.0000 
     10 C10         2.4210   53.9006   27.4064 C.ar      1 UNK         0.0000 
     11 C11         2.4849   53.1335   23.6797 C.ar      1 UNK         0.0000 
     12 C12         2.1624   52.2373   22.6153 C.ar      1 UNK         0.0000 
     13 C13         2.8940   52.7497   21.5624 C.ar      1 UNK         0.0000 
     14 N14         3.5289   53.8704   21.9747 N.pl3     1 UNK         0.0000 
     15 H15         4.1133   54.4589   21.4001 H         1 UNK         0.0000 
     16 N16         3.2786   54.1117   23.2574 N.2       1 UNK         0.0000 
     17 O17         3.0387   52.2597   20.2961 O.3       1 UNK         0.0000 
     18 C18         2.3774   51.0915   20.0911 C.2       1 UNK         0.0000 
     19 C19         1.5784   50.4398   20.9746 C.2       1 UNK         0.0000 
     20 C20         1.2868   50.9790   22.3980 C.3       1 UNK         0.0000 
     21 H21         1.6095   50.2165   23.1102 H         1 UNK         0.0000 
     22 C22        -0.2149   51.1445   22.6896 C.ar      1 UNK         0.0000 
     23 C23        -0.8012   52.3980   22.9212 C.ar      1 UNK         0.0000 
     24 C24        -2.1521   52.4924   23.2589 C.ar      1 UNK         0.0000 
     25 C25        -2.8971   51.3165   23.3431 C.ar      1 UNK         0.0000 
     26 N26        -2.3625   50.0892   23.1231 N.ar      1 UNK         0.0000 
     27 C27        -1.0433   50.0192   22.8114 C.ar      1 UNK         0.0000 
     28 C28         0.9925   49.2013   20.5679 C.1       1 UNK         0.0000 
     29 N29         0.5170   48.2149   20.1922 N.1       1 UNK         0.0000 
     30 N30         2.7042   50.6719   18.8355 N.pl3     1 UNK         0.0000 
     31 H31        -1.2978   51.3547   30.8817 H         1 UNK         0.0000 
     32 H32         0.2842   51.7333   31.5547 H         1 UNK         0.0000 
     33 H33        -0.8875   53.0286   31.2815 H         1 UNK         0.0000 
     34 H34        -0.0021   51.5079   27.2659 H         1 UNK         0.0000 
     35 H35         0.6036   51.5334   24.9704 H         1 UNK         0.0000 
     36 H36         3.5407   54.5903   25.7402 H         1 UNK         0.0000 
     37 H37         2.9523   54.5562   28.0833 H         1 UNK         0.0000 
     38 H38        -0.2047   53.2966   22.8831 H         1 UNK         0.0000 
     39 H39        -2.6072   53.4516   23.4571 H         1 UNK         0.0000 
     40 H40        -3.9454   51.3422   23.6031 H         1 UNK         0.0000 
     41 H41        -0.6507   49.0218   22.6781 H         1 UNK         0.0000 
     42 H42         2.2519   49.8669   18.4271 H         1 UNK         0.0000 
     43 H43         3.6377   50.8674   18.4767 H         1 UNK         0.0000 
@<TRIPOS>BOND
     1    1    2 1    
     2    1   31 1    
     3    1   32 1    
     4    1   33 1    
     5    2    3 1    
     6    3    4 2    
     7    3    5 1    
     8    5   10 ar   
     9    5    6 ar   
    10    6    7 ar   
    11    6   34 1    
    12    7    8 ar   
    13    7   35 1    
    14    8    9 ar   
    15    8   11 1    
    16    9   10 ar   
    17    9   36 1    
    18   10   37 1    
    19   11   16 ar   
    20   11   12 ar   
    21   12   20 1    
    22   12   13 ar   
    23   13   14 ar   
    24   13   17 1    
    25   14   15 1    
    26   14   16 ar   
    27   17   18 1    
    28   18   19 2    
    29   18   30 1    
    30   19   20 1    
    31   19   28 1    
    32   20   21 1    
    33   20   22 1    
    34   22   27 ar   
    35   22   23 ar   
    36   23   24 ar   
    37   23   38 1    
    38   24   25 ar   
    39   24   39 1    
    40   25   26 ar   
    41   25   40 1    
    42   26   27 ar   
    43   27   41 1    
    44   28   29 3    
    45   30   42 1    
    46   30   43 1    
@<TRIPOS>SUBSTRUCTURE
     1 UNK         1 GROUP             0       ****    0 ROOT    
