@<TRIPOS>MOLECULE
ZINC41006307_4503
71   74    1
SMALL
USER_CHARGES


@<TRIPOS>ATOM
      1 C1          6.1156   54.2884   28.0754 C.3       1 UNK         0.0000 
      2 C2          4.7703   53.9436   27.4714 C.ar      1 UNK         0.0000 
      3 C3          3.8046   53.2975   28.2413 C.ar      1 UNK         0.0000 
      4 C4          2.5759   52.9569   27.6812 C.ar      1 UNK         0.0000 
      5 C5          2.2997   53.2445   26.3337 C.ar      1 UNK         0.0000 
      6 C6          3.2664   53.9192   25.5636 C.ar      1 UNK         0.0000 
      7 C7          4.4960   54.2569   26.1391 C.ar      1 UNK         0.0000 
      8 C8          3.0189   54.2802   24.1024 C.3       1 UNK         0.0000 
      9 N9          1.0805   52.8968   25.7181 N.am      1 UNK         0.0000 
     10 C10         0.1793   51.9544   26.0697 C.2       1 UNK         0.0000 
     11 O11         0.3688   51.1258   26.9615 O.2       1 UNK         0.0000 
     12 C12        -1.1341   51.9326   25.2396 C.3       1 UNK         0.0000 
     13 H13        -1.1981   52.9247   24.7884 H         1 UNK         0.0000 
     14 C14        -1.1356   50.8642   24.0932 C.3       1 UNK         0.0000 
     15 H15        -1.9575   51.1442   23.4300 H         1 UNK         0.0000 
     16 C16        -1.4888   49.4191   24.6034 C.3       1 UNK         0.0000 
     17 H17        -0.6643   49.0991   25.2444 H         1 UNK         0.0000 
     18 C18        -2.7863   49.3588   25.4810 C.3       1 UNK         0.0000 
     19 C19        -2.6882   50.3853   26.6312 C.3       1 UNK         0.0000 
     20 C20        -2.3717   51.8096   26.1526 C.2       1 UNK         0.0000 
     21 O21        -3.0711   52.7747   26.4504 O.2       1 UNK         0.0000 
     22 C22        -4.1131   49.5562   24.7030 C.3       1 UNK         0.0000 
     23 O23        -2.8957   48.0817   26.0817 O.3       1 UNK         0.0000 
     24 C24        -1.4990   48.3508   23.4790 C.2       1 UNK         0.0000 
     25 O25        -0.8968   47.2967   23.6664 O.2       1 UNK         0.0000 
     26 N26        -2.1778   48.6267   22.3455 N.am      1 UNK         0.0000 
     27 C27        -2.2800   47.7470   21.2626 C.ar      1 UNK         0.0000 
     28 C28        -3.4364   46.9676   21.1635 C.ar      1 UNK         0.0000 
     29 C29        -3.5868   46.0650   20.1117 C.ar      1 UNK         0.0000 
     30 C30        -2.5885   45.9441   19.1430 C.ar      1 UNK         0.0000 
     31 C31        -1.4371   46.7306   19.2344 C.ar      1 UNK         0.0000 
     32 C32        -1.2758   47.6441   20.2825 C.ar      1 UNK         0.0000 
     33 C33        -0.0321   48.5207   20.3106 C.3       1 UNK         0.0000 
     34 C34        -2.7458   44.9570   18.0009 C.3       1 UNK         0.0000 
     35 C35         0.1024   50.9777   23.1784 C.ar      1 UNK         0.0000 
     36 C36         1.2009   50.1219   23.3319 C.ar      1 UNK         0.0000 
     37 C37         2.2928   50.2284   22.4816 C.ar      1 UNK         0.0000 
     38 C38         2.3200   51.2169   21.5035 C.ar      1 UNK         0.0000 
     39 C39         1.2468   52.0917   21.3565 C.ar      1 UNK         0.0000 
     40 C40         0.1369   51.9663   22.1894 C.ar      1 UNK         0.0000 
     41 F41         3.3976   51.3297   20.6969 F         1 UNK         0.0000 
     42 H42         6.3840   53.5959   28.8744 H         1 UNK         0.0000 
     43 H43         6.0828   55.2966   28.4817 H         1 UNK         0.0000 
     44 H44         6.9093   54.2321   27.3296 H         1 UNK         0.0000 
     45 H45         4.0048   53.0535   29.2737 H         1 UNK         0.0000 
     46 H46         1.8516   52.4657   28.3121 H         1 UNK         0.0000 
     47 H47         5.2481   54.7600   25.5476 H         1 UNK         0.0000 
     48 H48         2.1245   54.8965   24.0084 H         1 UNK         0.0000 
     49 H49         3.8528   54.8289   23.6620 H         1 UNK         0.0000 
     50 H50         2.8589   53.3754   23.5161 H         1 UNK         0.0000 
     51 H51         0.9012   53.3871   24.8561 H         1 UNK         0.0000 
     52 H52        -1.8873   50.0967   27.3092 H         1 UNK         0.0000 
     53 H53        -3.6047   50.4032   27.2207 H         1 UNK         0.0000 
     54 H54        -4.1215   50.4868   24.1371 H         1 UNK         0.0000 
     55 H55        -4.3101   48.7407   24.0070 H         1 UNK         0.0000 
     56 H56        -4.9655   49.5862   25.3822 H         1 UNK         0.0000 
     57 H57        -2.4151   48.0967   26.9352 H         1 UNK         0.0000 
     58 H58        -2.7213   49.4743   22.3004 H         1 UNK         0.0000 
     59 H59        -4.2146   47.0484   21.9085 H         1 UNK         0.0000 
     60 H60        -4.4829   45.4648   20.0520 H         1 UNK         0.0000 
     61 H61        -0.6713   46.6421   18.4770 H         1 UNK         0.0000 
     62 H62         0.6834   48.2597   19.5293 H         1 UNK         0.0000 
     63 H63        -0.3094   49.5684   20.1926 H         1 UNK         0.0000 
     64 H64         0.4778   48.4286   21.2663 H         1 UNK         0.0000 
     65 H65        -1.7940   44.4727   17.7816 H         1 UNK         0.0000 
     66 H66        -3.4561   44.1673   18.2489 H         1 UNK         0.0000 
     67 H67        -3.0823   45.4690   17.0992 H         1 UNK         0.0000 
     68 H68         1.2190   49.3557   24.0929 H         1 UNK         0.0000 
     69 H69         3.1044   49.5309   22.5876 H         1 UNK         0.0000 
     70 H70         1.2776   52.8597   20.5963 H         1 UNK         0.0000 
     71 H71        -0.6989   52.6367   22.0627 H         1 UNK         0.0000 
@<TRIPOS>BOND
     1    1    2 1    
     2    1   42 1    
     3    1   43 1    
     4    1   44 1    
     5    2    7 ar   
     6    2    3 ar   
     7    3    4 ar   
     8    3   45 1    
     9    4    5 ar   
    10    4   46 1    
    11    5    6 ar   
    12    5    9 1    
    13    6    7 ar   
    14    6    8 1    
    15    7   47 1    
    16    8   48 1    
    17    8   49 1    
    18    8   50 1    
    19    9   10 am   BACKBONE|DICT|INTERRES
    20    9   51 1    
    21   10   11 2    
    22   10   12 1    
    23   12   13 1    
    24   12   20 1    
    25   12   14 1    
    26   14   15 1    
    27   14   16 1    
    28   14   35 1    
    29   16   17 1    
    30   16   18 1    
    31   16   24 1    
    32   18   19 1    
    33   18   22 1    
    34   18   23 1    
    35   19   20 1    
    36   19   52 1    
    37   19   53 1    
    38   20   21 2    
    39   22   54 1    
    40   22   55 1    
    41   22   56 1    
    42   23   57 1    
    43   24   25 2    
    44   24   26 am   BACKBONE|DICT|INTERRES
    45   26   27 1    
    46   26   58 1    
    47   27   32 ar   
    48   27   28 ar   
    49   28   29 ar   
    50   28   59 1    
    51   29   30 ar   
    52   29   60 1    
    53   30   31 ar   
    54   30   34 1    
    55   31   32 ar   
    56   31   61 1    
    57   32   33 1    
    58   33   62 1    
    59   33   63 1    
    60   33   64 1    
    61   34   65 1    
    62   34   66 1    
    63   34   67 1    
    64   35   40 ar   
    65   35   36 ar   
    66   36   37 ar   
    67   36   68 1    
    68   37   38 ar   
    69   37   69 1    
    70   38   39 ar   
    71   38   41 1    
    72   39   40 ar   
    73   39   70 1    
    74   40   71 1    
@<TRIPOS>SUBSTRUCTURE
     1 UNK         1 GROUP             0       ****    0 ROOT    
