ZINC10075313_5824
                    3D
 Schrodinger Suite 2024-2.
 62 66  0  0  1  0            999 V2000
   -8.2397   50.9148   33.4530 C   0  0  0  0  0  0
   -6.8857   50.5961   33.1517 O   0  0  0  0  0  0
   -6.4348   50.7212   31.8514 C   0  0  0  0  0  0
   -7.2288   51.1494   30.7795 C   0  0  0  0  0  0
   -6.6914   51.2428   29.4994 C   0  0  0  0  0  0
   -5.3504   50.9092   29.2565 C   0  0  0  0  0  0
   -4.5596   50.4900   30.3338 C   0  0  0  0  0  0
   -5.0999   50.3999   31.6144 C   0  0  0  0  0  0
   -4.7277   51.0082   27.8479 C   0  0  1  0  0  0
   -3.9362   51.7528   27.9614 H   0  0  0  0  0  0
   -4.0858   49.6717   27.3937 C   0  0  0  0  0  0
   -3.5167   49.7716   25.9765 C   0  0  0  0  0  0
   -4.0084   50.6430   25.0570 C   0  0  0  0  0  0
   -3.3914   50.6389   23.6450 C   0  0  2  0  0  0
   -4.1039   50.9442   22.8757 H   0  0  0  0  0  0
   -2.9471   49.1672   23.3082 C   0  0  0  0  0  0
   -2.1522   48.4719   24.4466 C   0  0  0  0  0  0
   -1.2917   47.6191   24.2476 O   0  0  0  0  0  0
   -2.5620   48.8372   25.6818 N   0  0  0  0  0  0
   -2.2614   51.6979   23.4896 C   0  0  0  0  0  0
   -2.5690   52.8901   23.5485 O   0  0  0  0  0  0
   -1.0015   51.2626   23.2643 N   0  0  0  0  0  0
    0.1876   52.0040   23.1667 C   0  0  0  0  0  0
    1.2699   51.3689   22.5558 C   0  0  0  0  0  0
    2.5007   52.0128   22.4783 C   0  0  0  0  0  0
    2.6667   53.2790   23.0360 C   0  0  0  0  0  0
    1.5754   53.9377   23.6039 C   0  0  0  0  0  0
    0.3456   53.2948   23.6894 C   0  0  0  0  0  0
    3.9142   53.8554   22.9969 O   0  0  0  0  0  0
    4.6207   54.1617   24.1464 C   0  0  0  0  0  0
    5.9246   54.6193   23.9596 C   0  0  0  0  0  0
    6.7035   54.9937   25.0482 C   0  0  0  0  0  0
    6.1924   54.8936   26.3388 C   0  0  0  0  0  0
    4.8966   54.4306   26.5450 C   0  0  0  0  0  0
    4.1113   54.0688   25.4537 C   0  0  0  0  0  0
   -5.1206   51.5658   25.3529 C   0  0  0  0  0  0
   -5.6441   52.2568   24.4828 O   0  0  0  0  0  0
   -5.7052   51.5430   26.7706 C   0  0  0  0  0  0
   -8.4250   50.7414   34.5123 H   0  0  0  0  0  0
   -8.4575   51.9640   33.2485 H   0  0  0  0  0  0
   -8.9349   50.2885   32.8920 H   0  0  0  0  0  0
   -8.2669   51.4095   30.9191 H   0  0  0  0  0  0
   -7.3439   51.5740   28.7070 H   0  0  0  0  0  0
   -3.5183   50.2321   30.1933 H   0  0  0  0  0  0
   -4.4695   50.0957   32.4379 H   0  0  0  0  0  0
   -4.7978   48.8455   27.3934 H   0  0  0  0  0  0
   -3.2964   49.4154   28.1001 H   0  0  0  0  0  0
   -3.8440   48.5558   23.1973 H   0  0  0  0  0  0
   -2.4078   49.0923   22.3629 H   0  0  0  0  0  0
   -2.1203   48.3315   26.4430 H   0  0  0  0  0  0
   -0.8856   50.2689   23.1401 H   0  0  0  0  0  0
    1.1714   50.3732   22.1473 H   0  0  0  0  0  0
    3.3394   51.5152   22.0141 H   0  0  0  0  0  0
    1.6950   54.9295   24.0124 H   0  0  0  0  0  0
   -0.4635   53.8102   24.1797 H   0  0  0  0  0  0
    6.3277   54.6993   22.9606 H   0  0  0  0  0  0
    7.7039   55.3582   24.8807 H   0  0  0  0  0  0
    6.7980   55.1764   27.1883 H   0  0  0  0  0  0
    4.5029   54.3493   27.5475 H   0  0  0  0  0  0
    3.1163   53.7010   25.6463 H   0  0  0  0  0  0
   -6.5713   50.8833   26.7266 H   0  0  0  0  0  0
   -6.0601   52.5478   26.9994 H   0  0  0  0  0  0
  1  2  1  0  0  0
  1 39  1  0  0  0
  1 40  1  0  0  0
  1 41  1  0  0  0
  2  3  1  0  0  0
  3  8  2  0  0  0
  3  4  1  0  0  0
  4  5  2  0  0  0
  4 42  1  0  0  0
  5  6  1  0  0  0
  5 43  1  0  0  0
  6  7  2  0  0  0
  6  9  1  0  0  0
  7  8  1  0  0  0
  7 44  1  0  0  0
  8 45  1  0  0  0
  9 10  1  0  0  0
  9 38  1  0  0  0
  9 11  1  0  0  0
 11 12  1  0  0  0
 11 46  1  0  0  0
 11 47  1  0  0  0
 12 19  1  0  0  0
 12 13  2  0  0  0
 13 14  1  0  0  0
 13 36  1  0  0  0
 14 15  1  0  0  0
 14 16  1  0  0  0
 14 20  1  0  0  0
 16 17  1  0  0  0
 16 48  1  0  0  0
 16 49  1  0  0  0
 17 18  2  0  0  0
 17 19  1  0  0  0
 19 50  1  0  0  0
 20 21  2  0  0  0
 20 22  1  0  0  0
 22 23  1  0  0  0
 22 51  1  0  0  0
 23 28  2  0  0  0
 23 24  1  0  0  0
 24 25  2  0  0  0
 24 52  1  0  0  0
 25 26  1  0  0  0
 25 53  1  0  0  0
 26 27  2  0  0  0
 26 29  1  0  0  0
 27 28  1  0  0  0
 27 54  1  0  0  0
 28 55  1  0  0  0
 29 30  1  0  0  0
 30 35  2  0  0  0
 30 31  1  0  0  0
 31 32  2  0  0  0
 31 56  1  0  0  0
 32 33  1  0  0  0
 32 57  1  0  0  0
 33 34  2  0  0  0
 33 58  1  0  0  0
 34 35  1  0  0  0
 34 59  1  0  0  0
 35 60  1  0  0  0
 36 37  2  0  0  0
 36 38  1  0  0  0
 38 61  1  0  0  0
 38 62  1  0  0  0
M  END
> <i_i_glide_confnum>
86

> <i_i_glide_lignum>
5825

> <i_i_glide_posenum>
338

> <i_i_glide_rotatable_bonds>
7

> <i_m_Source_File_Index>
2034

> <b_m_subgroup_collapsed>
0

> <r_i_docking_score>
-5.25555

> <r_i_glide_ecoul>
-4.06967

> <r_i_glide_eff_state_penalty>
0

> <r_i_glide_einternal>
11.9676

> <r_i_glide_emodel>
-54.2805

> <r_i_glide_energy>
-45.0473

> <r_i_glide_erotb>
0.522973

> <r_i_glide_esite>
-0.131788

> <r_i_glide_evdw>
-40.9776

> <r_i_glide_gscore>
-5.25555

> <r_i_glide_hbond>
-0.154235

> <r_i_glide_ligand_efficiency>
-0.145988

> <r_i_glide_ligand_efficiency_ln>
-1.14662

> <r_i_glide_ligand_efficiency_sa>
-0.48204

> <r_i_glide_lipo>
-2.58385

> <r_i_glide_metal>
0

> <r_i_glide_rewards>
-0.249317

> <s_i_glide_gridfile>
wee1_glide-grid

> <s_m_Source_File>
wee1_decoys_glide_SP.sdf

> <s_m_Source_Path>
/Users/zhangxujun/Desktop

> <s_m_entry_id>
2309

> <s_m_entry_name>
wee1_decoys_glide_SP.2034

> <s_m_subgroup_title>
wee1_decoys_glide_SP

> <s_m_subgroupid>
wee1_decoys_glide_SP


$$$$
