ZINC45829555_3746
                    3D
 Schrodinger Suite 2024-2.
 56 60  0  0  1  0            999 V2000
    0.6218   49.2482   19.8568 C   0  0  0  0  0  0
    1.6919   49.4509   18.7577 C   0  0  2  0  0  0
    2.4946   48.7283   18.9208 H   0  0  0  0  0  0
    2.3087   50.8889   18.6789 C   0  0  1  0  0  0
    3.1030   50.9047   17.9294 H   0  0  0  0  0  0
    1.2931   51.8559   18.3632 O   0  0  0  0  0  0
    0.5108   51.4818   17.2918 C   0  0  0  0  0  0
   -0.2154   52.4792   16.6421 C   0  0  0  0  0  0
   -1.0578   52.1395   15.5813 C   0  0  0  0  0  0
   -1.1775   50.8068   15.1767 C   0  0  0  0  0  0
   -0.4557   49.8052   15.8312 C   0  0  0  0  0  0
    0.3805   50.1399   16.8953 C   0  0  0  0  0  0
    1.1019   49.1202   17.4899 O   0  0  0  0  0  0
    2.9833   51.3389   19.9957 C   0  0  0  0  0  0
    3.4777   50.4965   20.7520 O   0  0  0  0  0  0
    3.0152   52.6651   20.2483 N   0  0  0  0  0  0
    3.4220   53.0668   21.5141 N   0  0  0  0  0  0
    4.5668   53.7682   21.6377 C   0  0  0  0  0  0
    5.2897   54.1005   20.6933 O   0  0  0  0  0  0
    4.9626   54.0967   23.0570 C   0  0  0  0  0  0
    4.0085   54.1892   24.0827 C   0  0  0  0  0  0
    4.4030   54.4763   25.3842 C   0  0  0  0  0  0
    5.7545   54.6553   25.6848 C   0  0  0  0  0  0
    6.7046   54.5881   24.6673 C   0  0  0  0  0  0
    6.3106   54.3192   23.3613 C   0  0  0  0  0  0
    6.1964   54.8778   27.1212 C   0  0  0  0  0  0
    6.0540   53.3424   28.0822 S   0  0  0  0  0  0
    4.4800   53.5123   28.8680 C   0  0  0  0  0  0
    3.6521   54.6077   28.7639 N   0  0  0  0  0  0
    3.8817   55.4268   28.2236 H   0  0  0  0  0  0
    2.5206   54.3579   29.4966 C   0  0  0  0  0  0
    1.3567   55.0860   29.7584 C   0  0  0  0  0  0
    0.4213   54.4767   30.6010 C   0  0  0  0  0  0
    0.6394   53.2163   31.1558 C   0  0  0  0  0  0
    1.8013   52.4967   30.8854 C   0  0  0  0  0  0
    2.7566   53.0711   30.0385 C   0  0  0  0  0  0
    3.9684   52.5783   29.6349 N   0  0  0  0  0  0
    1.0366   49.3801   20.8560 H   0  0  0  0  0  0
   -0.2041   49.9506   19.7450 H   0  0  0  0  0  0
    0.2081   48.2409   19.8095 H   0  0  0  0  0  0
   -0.1229   53.5074   16.9593 H   0  0  0  0  0  0
   -1.6181   52.9094   15.0709 H   0  0  0  0  0  0
   -1.8267   50.5504   14.3528 H   0  0  0  0  0  0
   -0.5391   48.7764   15.5143 H   0  0  0  0  0  0
    2.4542   53.3506   19.7585 H   0  0  0  0  0  0
    2.6479   53.1700   22.1519 H   0  0  0  0  0  0
    2.9555   54.0424   23.8912 H   0  0  0  0  0  0
    3.6514   54.5229   26.1557 H   0  0  0  0  0  0
    7.7530   54.7239   24.8817 H   0  0  0  0  0  0
    7.0698   54.2655   22.5933 H   0  0  0  0  0  0
    7.2383   55.1915   27.1673 H   0  0  0  0  0  0
    5.6488   55.6956   27.5774 H   0  0  0  0  0  0
    1.1859   56.0691   29.3447 H   0  0  0  0  0  0
   -0.4948   54.9929   30.8482 H   0  0  0  0  0  0
   -0.0958   52.7900   31.8231 H   0  0  0  0  0  0
    1.9583   51.5381   31.3499 H   0  0  0  0  0  0
  1  2  1  0  0  0
  1 38  1  0  0  0
  1 39  1  0  0  0
  1 40  1  0  0  0
  2  3  1  0  0  0
  2 13  1  0  0  0
  2  4  1  0  0  0
  4  5  1  0  0  0
  4  6  1  0  0  0
  4 14  1  0  0  0
  6  7  1  0  0  0
  7 12  2  0  0  0
  7  8  1  0  0  0
  8  9  2  0  0  0
  8 41  1  0  0  0
  9 10  1  0  0  0
  9 42  1  0  0  0
 10 11  2  0  0  0
 10 43  1  0  0  0
 11 12  1  0  0  0
 11 44  1  0  0  0
 12 13  1  0  0  0
 14 15  2  0  0  0
 14 16  1  0  0  0
 16 17  1  0  0  0
 16 45  1  0  0  0
 17 18  1  0  0  0
 17 46  1  0  0  0
 18 19  2  0  0  0
 18 20  1  0  0  0
 20 25  2  0  0  0
 20 21  1  0  0  0
 21 22  2  0  0  0
 21 47  1  0  0  0
 22 23  1  0  0  0
 22 48  1  0  0  0
 23 24  2  0  0  0
 23 26  1  0  0  0
 24 25  1  0  0  0
 24 49  1  0  0  0
 25 50  1  0  0  0
 26 27  1  0  0  0
 26 51  1  0  0  0
 26 52  1  0  0  0
 27 28  1  0  0  0
 28 37  2  0  0  0
 28 29  1  0  0  0
 29 30  1  0  0  0
 29 31  1  0  0  0
 31 36  2  0  0  0
 31 32  1  0  0  0
 32 33  2  0  0  0
 32 53  1  0  0  0
 33 34  1  0  0  0
 33 54  1  0  0  0
 34 35  2  0  0  0
 34 55  1  0  0  0
 35 36  1  0  0  0
 35 56  1  0  0  0
 36 37  1  0  0  0
M  END
> <i_i_glide_confnum>
19

> <i_i_glide_lignum>
3747

> <i_i_glide_posenum>
355

> <i_i_glide_rotatable_bonds>
8

> <i_m_Source_File_Index>
4104

> <b_m_subgroup_collapsed>
0

> <r_i_docking_score>
-6.17292

> <r_i_glide_ecoul>
-2.17521

> <r_i_glide_eff_state_penalty>
0

> <r_i_glide_einternal>
4.62692

> <r_i_glide_emodel>
-69.5702

> <r_i_glide_energy>
-50.9129

> <r_i_glide_erotb>
0.718911

> <r_i_glide_esite>
-0.0660093

> <r_i_glide_evdw>
-48.7377

> <r_i_glide_gscore>
-6.17292

> <r_i_glide_hbond>
-0.191862

> <r_i_glide_ligand_efficiency>
-0.181556

> <r_i_glide_ligand_efficiency_ln>
-1.36377

> <r_i_glide_ligand_efficiency_sa>
-0.588172

> <r_i_glide_lipo>
-3.04443

> <r_i_glide_metal>
0

> <r_i_glide_rewards>
-0.826366

> <s_i_glide_gridfile>
wee1_glide-grid

> <s_m_Source_File>
wee1_decoys_glide_SP.sdf

> <s_m_Source_Path>
/Users/zhangxujun/Desktop

> <s_m_entry_id>
4379

> <s_m_entry_name>
wee1_decoys_glide_SP.4104

> <s_m_subgroup_title>
wee1_decoys_glide_SP

> <s_m_subgroupid>
wee1_decoys_glide_SP


$$$$
