@<TRIPOS>MOLECULE
ZINC02250282_5974
57   61    1
SMALL
USER_CHARGES


@<TRIPOS>ATOM
      1 C1         -0.2861   45.8197   19.3149 C.3       1 UNK         0.0000 
      2 O2         -0.6994   46.2599   18.0270 O.3       1 UNK         0.0000 
      3 C3          0.2228   46.0570   17.0286 C.ar      1 UNK         0.0000 
      4 C4         -0.0378   45.0273   16.1231 C.ar      1 UNK         0.0000 
      5 C5          0.8582   44.7441   15.0987 C.ar      1 UNK         0.0000 
      6 C6          2.0256   45.4927   14.9774 C.ar      1 UNK         0.0000 
      7 C7          2.2999   46.5261   15.8753 C.ar      1 UNK         0.0000 
      8 C8          1.3937   46.8364   16.8945 C.ar      1 UNK         0.0000 
      9 C9          1.6836   48.0060   17.7517 C.2       1 UNK         0.0000 
     10 C10         0.7300   48.8614   18.1810 C.2       1 UNK         0.0000 
     11 C11         0.8891   49.9456   19.1195 C.2       1 UNK         0.0000 
     12 O12        -0.1247   50.4326   19.6263 O.2       1 UNK         0.0000 
     13 N13         2.1531   50.3251   19.4472 N.am      1 UNK         0.0000 
     14 C14         2.4595   51.1942   20.4933 C.ar      1 UNK         0.0000 
     15 N15         1.7048   51.3187   21.5875 N.2       1 UNK         0.0000 
     16 C16         2.3631   52.1737   22.3137 C.ar      1 UNK         0.0000 
     17 N17         3.4993   52.5674   21.6498 N.pl3     1 UNK         0.0000 
     18 N18         3.5799   51.8944   20.4891 N.2       1 UNK         0.0000 
     19 C19         4.4977   53.4727   22.2598 C.3       1 UNK         0.0000 
     20 H20         5.2162   52.8495   22.7946 H         1 UNK         0.0000 
     21 C21         3.7445   54.3194   23.3418 C.3       1 UNK         0.0000 
     22 C22         2.7623   53.4678   24.1964 C.2       1 UNK         0.0000 
     23 N23         2.0711   52.5774   23.5826 N.2       1 UNK         0.0000 
     24 C24         2.5969   53.6983   25.6566 C.ar      1 UNK         0.0000 
     25 C25         1.5211   53.0992   26.3316 C.ar      1 UNK         0.0000 
     26 C26         1.3291   53.2943   27.6942 C.ar      1 UNK         0.0000 
     27 C27         2.2183   54.0932   28.4040 C.ar      1 UNK         0.0000 
     28 C28         3.3090   54.6747   27.7679 C.ar      1 UNK         0.0000 
     29 C29         3.5030   54.4778   26.4017 C.ar      1 UNK         0.0000 
     30 Cl30        1.9641   54.3717   30.0830 Cl        1 UNK         0.0000 
     31 C31         5.3253   54.3737   21.3328 C.ar      1 UNK         0.0000 
     32 C32         4.9099   54.6993   20.0329 C.ar      1 UNK         0.0000 
     33 C33         5.6997   55.5234   19.2355 C.ar      1 UNK         0.0000 
     34 C34         6.9023   56.0200   19.7294 C.ar      1 UNK         0.0000 
     35 C35         7.3236   55.7083   21.0199 C.ar      1 UNK         0.0000 
     36 C36         6.5246   54.9074   21.8259 C.ar      1 UNK         0.0000 
     37 F37         7.6653   56.8250   18.9586 F         1 UNK         0.0000 
     38 H38        -0.0481   44.7548   19.3119 H         1 UNK         0.0000 
     39 H39         0.5849   46.3671   19.6792 H         1 UNK         0.0000 
     40 H40        -1.0925   45.9795   20.0280 H         1 UNK         0.0000 
     41 H41        -0.9427   44.4455   16.2237 H         1 UNK         0.0000 
     42 H42         0.6471   43.9477   14.3979 H         1 UNK         0.0000 
     43 H43         2.7052   45.2786   14.1710 H         1 UNK         0.0000 
     44 H44         3.2002   47.1150   15.7474 H         1 UNK         0.0000 
     45 H45         2.7142   48.1201   18.0528 H         1 UNK         0.0000 
     46 H46        -0.2884   48.7270   17.8491 H         1 UNK         0.0000 
     47 H47         2.9134   50.0641   18.8324 H         1 UNK         0.0000 
     48 H48         4.4704   54.8610   23.9388 H         1 UNK         0.0000 
     49 H49         3.1623   55.0786   22.8206 H         1 UNK         0.0000 
     50 H50         0.8096   52.4763   25.8066 H         1 UNK         0.0000 
     51 H51         0.4884   52.8369   28.1920 H         1 UNK         0.0000 
     52 H52         3.9962   55.2962   28.3247 H         1 UNK         0.0000 
     53 H53         4.3682   54.9501   25.9663 H         1 UNK         0.0000 
     54 H54         3.9701   54.3354   19.6424 H         1 UNK         0.0000 
     55 H55         5.3774   55.7820   18.2368 H         1 UNK         0.0000 
     56 H56         8.2632   56.0917   21.3945 H         1 UNK         0.0000 
     57 H57         6.8566   54.6758   22.8277 H         1 UNK         0.0000 
@<TRIPOS>BOND
     1    1    2 1    
     2    1   38 1    
     3    1   39 1    
     4    1   40 1    
     5    2    3 1    
     6    3    8 ar   
     7    3    4 ar   
     8    4    5 ar   
     9    4   41 1    
    10    5    6 ar   
    11    5   42 1    
    12    6    7 ar   
    13    6   43 1    
    14    7    8 ar   
    15    7   44 1    
    16    8    9 1    
    17    9   10 2    
    18    9   45 1    
    19   10   11 1    
    20   10   46 1    
    21   11   12 2    
    22   11   13 am   BACKBONE|DICT|INTERRES
    23   13   14 1    
    24   13   47 1    
    25   14   18 ar   
    26   14   15 ar   
    27   15   16 ar   
    28   16   17 ar   
    29   16   23 1    
    30   17   18 ar   
    31   17   19 1    
    32   19   20 1    
    33   19   31 1    
    34   19   21 1    
    35   21   22 1    
    36   21   48 1    
    37   21   49 1    
    38   22   23 2    
    39   22   24 1    
    40   24   29 ar   
    41   24   25 ar   
    42   25   26 ar   
    43   25   50 1    
    44   26   27 ar   
    45   26   51 1    
    46   27   28 ar   
    47   27   30 1    
    48   28   29 ar   
    49   28   52 1    
    50   29   53 1    
    51   31   36 ar   
    52   31   32 ar   
    53   32   33 ar   
    54   32   54 1    
    55   33   34 ar   
    56   33   55 1    
    57   34   35 ar   
    58   34   37 1    
    59   35   36 ar   
    60   35   56 1    
    61   36   57 1    
@<TRIPOS>SUBSTRUCTURE
     1 UNK         1 GROUP             0       ****    0 ROOT    
