@<TRIPOS>MOLECULE
ZINC19818672_364
64   67    1
SMALL
USER_CHARGES


@<TRIPOS>ATOM
      1 C1          6.5611   55.5210   18.4560 C.ar      1 UNK         0.0000 
      2 C2          7.0170   54.6560   17.4584 C.ar      1 UNK         0.0000 
      3 C3          6.6107   53.3208   17.4777 C.ar      1 UNK         0.0000 
      4 N4          5.7877   52.8970   18.4570 N.pl3     1 UNK         0.0000 
      5 C5          5.3114   53.6876   19.4457 C.ar      1 UNK         0.0000 
      6 C6          5.7102   55.0352   19.4539 C.ar      1 UNK         0.0000 
      7 N7          4.4644   53.1239   20.4597 N.pl3     1 UNK         0.0000 
      8 C8          3.7077   53.9611   21.4112 C.3       1 UNK         0.0000 
      9 C9          2.3859   53.2966   21.8577 C.3       1 UNK         0.0000 
     10 N10         2.6612   51.9878   22.4659 N.3       1 UNK         0.0000 
     11 C11         3.2922   51.1292   21.4505 C.3       1 UNK         0.0000 
     12 C12         4.6119   51.7247   20.9155 C.3       1 UNK         0.0000 
     13 C13         1.4878   51.2785   23.0236 C.3       1 UNK         0.0000 
     14 C14         0.8565   51.9261   24.2926 C.2       1 UNK         0.0000 
     15 O15         1.1053   53.0991   24.5811 O.2       1 UNK         0.0000 
     16 N16         0.0430   51.1745   25.0897 N.am      1 UNK         0.0000 
     17 C17        -0.3828   49.8043   24.7586 C.3       1 UNK         0.0000 
     18 C18        -1.8493   49.8902   24.2884 C.3       1 UNK         0.0000 
     19 N19        -2.6832   50.6195   25.2556 N.am      1 UNK         0.0000 
     20 C20        -2.2458   51.5124   26.1677 C.2       1 UNK         0.0000 
     21 O21        -3.0607   52.0974   26.8747 O.2       1 UNK         0.0000 
     22 C22        -0.7065   51.7759   26.2273 C.3       1 UNK         0.0000 
     23 H23        -0.6788   52.8648   26.1632 H         1 UNK         0.0000 
     24 C24        -0.1958   51.3854   27.6520 C.3       1 UNK         0.0000 
     25 C25         1.1274   51.9994   28.1507 C.2       1 UNK         0.0000 
     26 O26         1.5101   51.6966   29.2810 O.2       1 UNK         0.0000 
     27 N27         1.8165   52.8201   27.3287 N.am      1 UNK         0.0000 
     28 C28         3.0407   53.4666   27.5805 C.ar      1 UNK         0.0000 
     29 C29         3.4662   53.8530   28.8605 C.ar      1 UNK         0.0000 
     30 C30         4.7026   54.4720   29.0310 C.ar      1 UNK         0.0000 
     31 C31         5.5222   54.7073   27.9308 C.ar      1 UNK         0.0000 
     32 C32         5.0983   54.3715   26.6421 C.ar      1 UNK         0.0000 
     33 C33         3.8523   53.7515   26.4770 C.ar      1 UNK         0.0000 
     34 C34         5.9772   54.7001   25.4376 C.3       1 UNK         0.0000 
     35 F35         6.8140   53.6967   25.2043 F         1 UNK         0.0000 
     36 F36         6.7039   55.7961   25.6501 F         1 UNK         0.0000 
     37 F37         5.2443   54.8966   24.3455 F         1 UNK         0.0000 
     38 H38         6.8682   56.5574   18.4580 H         1 UNK         0.0000 
     39 H39         7.6773   55.0174   16.6826 H         1 UNK         0.0000 
     40 H40         6.9060   52.5736   16.7536 H         1 UNK         0.0000 
     41 H41         5.3849   55.7084   20.2315 H         1 UNK         0.0000 
     42 H42         4.3392   54.2101   22.2613 H         1 UNK         0.0000 
     43 H43         3.4787   54.8966   20.9134 H         1 UNK         0.0000 
     44 H44         1.7294   53.1544   20.9972 H         1 UNK         0.0000 
     45 H45         1.8875   53.9807   22.5407 H         1 UNK         0.0000 
     46 H46         3.5039   50.1403   21.8589 H         1 UNK         0.0000 
     47 H47         2.5984   51.0107   20.6147 H         1 UNK         0.0000 
     48 H48         5.3972   51.6824   21.6712 H         1 UNK         0.0000 
     49 H49         4.9498   51.1122   20.0826 H         1 UNK         0.0000 
     50 H50         1.8456   50.2930   23.3234 H         1 UNK         0.0000 
     51 H51         0.7141   51.1429   22.2659 H         1 UNK         0.0000 
     52 H52        -0.3449   49.2246   25.6838 H         1 UNK         0.0000 
     53 H53         0.2566   49.2625   24.0651 H         1 UNK         0.0000 
     54 H54        -2.2520   48.8821   24.1833 H         1 UNK         0.0000 
     55 H55        -1.9212   50.3890   23.3204 H         1 UNK         0.0000 
     56 H56        -3.6795   50.4589   25.2485 H         1 UNK         0.0000 
     57 H57        -0.0925   50.3013   27.6943 H         1 UNK         0.0000 
     58 H58        -0.9318   51.6413   28.4171 H         1 UNK         0.0000 
     59 H59         1.4806   52.9021   26.3755 H         1 UNK         0.0000 
     60 H60         2.8467   53.6839   29.7275 H         1 UNK         0.0000 
     61 H61         5.0313   54.7709   30.0150 H         1 UNK         0.0000 
     62 H62         6.4801   55.1828   28.0816 H         1 UNK         0.0000 
     63 H63         3.5275   53.4710   25.4845 H         1 UNK         0.0000 
     64 H64         5.5048   51.9090   18.4409 H         1 UNK         0.0000 
@<TRIPOS>BOND
     1    1    6 ar   
     2    1    2 ar   
     3    1   38 1    
     4    2    3 ar   
     5    2   39 1    
     6    3    4 ar   
     7    3   40 1    
     8    4    5 ar   
     9    4   64 1    
    10    5    6 ar   
    11    5    7 1    
    12    6   41 1    
    13    7   12 1    
    14    7    8 1    
    15    8    9 1    
    16    8   42 1    
    17    8   43 1    
    18    9   10 1    
    19    9   44 1    
    20    9   45 1    
    21   10   11 1    
    22   10   13 1    
    23   11   12 1    
    24   11   46 1    
    25   11   47 1    
    26   12   48 1    
    27   12   49 1    
    28   13   14 1    
    29   13   50 1    
    30   13   51 1    
    31   14   15 2    
    32   14   16 am   BACKBONE|DICT|INTERRES
    33   16   22 1    
    34   16   17 1    
    35   17   18 1    
    36   17   52 1    
    37   17   53 1    
    38   18   19 1    
    39   18   54 1    
    40   18   55 1    
    41   19   20 am   BACKBONE|DICT|INTERRES
    42   19   56 1    
    43   20   21 2    
    44   20   22 1    
    45   22   23 1    
    46   22   24 1    
    47   24   25 1    
    48   24   57 1    
    49   24   58 1    
    50   25   26 2    
    51   25   27 am   BACKBONE|DICT|INTERRES
    52   27   28 1    
    53   27   59 1    
    54   28   33 ar   
    55   28   29 ar   
    56   29   30 ar   
    57   29   60 1    
    58   30   31 ar   
    59   30   61 1    
    60   31   32 ar   
    61   31   62 1    
    62   32   33 ar   
    63   32   34 1    
    64   33   63 1    
    65   34   35 1    
    66   34   36 1    
    67   34   37 1    
@<TRIPOS>SUBSTRUCTURE
     1 UNK         1 GROUP             0       ****    0 ROOT    
