@<TRIPOS>MOLECULE
ZINC38547528_5099
65   68    1
SMALL
USER_CHARGES


@<TRIPOS>ATOM
      1 C1         -0.3385   50.1364   16.3463 C.3       1 UNK         0.0000 
      2 C2          0.5829   49.5466   17.3970 C.ar      1 UNK         0.0000 
      3 C3          1.1494   48.2826   17.2231 C.ar      1 UNK         0.0000 
      4 C4          2.0370   47.7985   18.1850 C.ar      1 UNK         0.0000 
      5 N5          2.3046   48.5380   19.2819 N.pl3     1 UNK         0.0000 
      6 C6          1.7585   49.7472   19.5179 C.ar      1 UNK         0.0000 
      7 C7          0.9011   50.2808   18.5434 C.ar      1 UNK         0.0000 
      8 N8          2.0642   50.4050   20.7505 N.pl3     1 UNK         0.0000 
      9 C9          1.2899   51.5512   21.2693 C.3       1 UNK         0.0000 
     10 H10         1.1484   52.2048   20.4093 H         1 UNK         0.0000 
     11 C11         2.0903   52.4515   22.2457 C.ar      1 UNK         0.0000 
     12 C12         1.5557   52.8340   23.4879 C.ar      1 UNK         0.0000 
     13 C13         2.2711   53.6426   24.3632 C.ar      1 UNK         0.0000 
     14 C14         3.5387   54.0941   24.0175 C.ar      1 UNK         0.0000 
     15 C15         4.0989   53.7576   22.7761 C.ar      1 UNK         0.0000 
     16 C16         3.3595   52.9525   21.8850 C.ar      1 UNK         0.0000 
     17 O17         3.8531   52.6890   20.6279 O.3       1 UNK         0.0000 
     18 C18         4.9993   51.8469   20.5674 C.3       1 UNK         0.0000 
     19 O19         5.3533   54.1901   22.3773 O.3       1 UNK         0.0000 
     20 C20         6.2738   54.6709   23.3547 C.3       1 UNK         0.0000 
     21 C21        -0.0698   51.0515   21.7910 C.2       1 UNK         0.0000 
     22 C22        -0.2467   50.1287   22.8610 C.2       1 UNK         0.0000 
     23 C23        -1.5941   49.8988   23.1712 C.2       1 UNK         0.0000 
     24 S24        -2.6391   50.7084   22.0541 S.3       1 UNK         0.0000 
     25 C25        -1.2873   51.3563   21.1813 C.2       1 UNK         0.0000 
     26 N26        -1.4196   52.0967   20.0149 N.am      1 UNK         0.0000 
     27 C27        -2.4282   52.0902   19.1155 C.2       1 UNK         0.0000 
     28 O28        -3.4685   51.4453   19.2519 O.2       1 UNK         0.0000 
     29 C29        -2.2268   52.9663   17.8915 C.ar      1 UNK         0.0000 
     30 C30        -3.2464   53.0537   16.9291 C.ar      1 UNK         0.0000 
     31 C31        -3.0934   53.8528   15.8001 C.ar      1 UNK         0.0000 
     32 C32        -1.9181   54.5741   15.6178 C.ar      1 UNK         0.0000 
     33 C33        -0.8917   54.4997   16.5539 C.ar      1 UNK         0.0000 
     34 C34        -1.0410   53.6968   17.6812 C.ar      1 UNK         0.0000 
     35 C35        -2.1937   49.0689   24.2850 C.3       1 UNK         0.0000 
     36 C36         0.8872   49.5204   23.6713 C.3       1 UNK         0.0000 
     37 H37        -0.2715   49.6016   15.4009 H         1 UNK         0.0000 
     38 H38        -1.3721   50.1231   16.6949 H         1 UNK         0.0000 
     39 H39        -0.0701   51.1752   16.1465 H         1 UNK         0.0000 
     40 H40         0.9502   47.7050   16.3316 H         1 UNK         0.0000 
     41 H41         2.5888   46.8797   18.0812 H         1 UNK         0.0000 
     42 H42         0.4991   51.2705   18.6423 H         1 UNK         0.0000 
     43 H43         2.7544   50.0011   21.3673 H         1 UNK         0.0000 
     44 H44         0.5741   52.5121   23.8000 H         1 UNK         0.0000 
     45 H45         1.8425   53.9168   25.3171 H         1 UNK         0.0000 
     46 H46         4.0671   54.7171   24.7230 H         1 UNK         0.0000 
     47 H47         5.5830   52.0998   19.6828 H         1 UNK         0.0000 
     48 H48         5.6529   51.9291   21.4359 H         1 UNK         0.0000 
     49 H49         4.7021   50.8036   20.4817 H         1 UNK         0.0000 
     50 H50         7.2319   54.8710   22.8777 H         1 UNK         0.0000 
     51 H51         5.9439   55.5990   23.8212 H         1 UNK         0.0000 
     52 H52         6.4482   53.9286   24.1343 H         1 UNK         0.0000 
     53 H53        -0.5863   52.5874   19.7336 H         1 UNK         0.0000 
     54 H54        -4.1693   52.5004   17.0457 H         1 UNK         0.0000 
     55 H55        -3.8848   53.9147   15.0668 H         1 UNK         0.0000 
     56 H56        -1.8004   55.1965   14.7430 H         1 UNK         0.0000 
     57 H57         0.0195   55.0607   16.4069 H         1 UNK         0.0000 
     58 H58        -0.2122   53.6691   18.3738 H         1 UNK         0.0000 
     59 H59        -1.4708   48.3967   24.7478 H         1 UNK         0.0000 
     60 H60        -2.5946   49.6950   25.0840 H         1 UNK         0.0000 
     61 H61        -3.0130   48.4438   23.9268 H         1 UNK         0.0000 
     62 H62         1.8219   50.0775   23.6168 H         1 UNK         0.0000 
     63 H63         0.6464   49.4736   24.7339 H         1 UNK         0.0000 
     64 H64         1.0979   48.4975   23.3558 H         1 UNK         0.0000 
     65 H65         2.9797   48.1831   19.9441 H         1 UNK         0.0000 
@<TRIPOS>BOND
     1    1    2 1    
     2    1   37 1    
     3    1   38 1    
     4    1   39 1    
     5    2    7 ar   
     6    2    3 ar   
     7    3    4 ar   
     8    3   40 1    
     9    4    5 ar   
    10    4   41 1    
    11    5    6 ar   
    12    5   65 1    
    13    6    7 ar   
    14    6    8 1    
    15    7   42 1    
    16    8    9 1    
    17    8   43 1    
    18    9   10 1    
    19    9   11 1    
    20    9   21 1    
    21   11   16 ar   
    22   11   12 ar   
    23   12   13 ar   
    24   12   44 1    
    25   13   14 ar   
    26   13   45 1    
    27   14   15 ar   
    28   14   46 1    
    29   15   16 ar   
    30   15   19 1    
    31   16   17 1    
    32   17   18 1    
    33   18   47 1    
    34   18   48 1    
    35   18   49 1    
    36   19   20 1    
    37   20   50 1    
    38   20   51 1    
    39   20   52 1    
    40   21   25 2    
    41   21   22 1    
    42   22   23 2    
    43   22   36 1    
    44   23   24 1    
    45   23   35 1    
    46   24   25 1    
    47   25   26 am   BACKBONE|DICT|INTERRES
    48   26   27 am   BACKBONE|DICT|INTERRES
    49   26   53 1    
    50   27   28 2    
    51   27   29 1    
    52   29   34 ar   
    53   29   30 ar   
    54   30   31 ar   
    55   30   54 1    
    56   31   32 ar   
    57   31   55 1    
    58   32   33 ar   
    59   32   56 1    
    60   33   34 ar   
    61   33   57 1    
    62   34   58 1    
    63   35   59 1    
    64   35   60 1    
    65   35   61 1    
    66   36   62 1    
    67   36   63 1    
    68   36   64 1    
@<TRIPOS>SUBSTRUCTURE
     1 UNK         1 GROUP             0       ****    0 ROOT    
