ZINC36618847_4962
                    3D
 Schrodinger Suite 2024-2.
 60 64  0  0  1  0            999 V2000
    3.2751   52.3671   30.1681 C   0  0  0  0  0  0
    1.7430   52.2824   30.0025 C   0  0  0  0  0  0
    1.0409   52.3370   31.3739 C   0  0  0  0  0  0
    1.1736   53.3796   29.0689 C   0  0  0  0  0  0
    1.6060   53.2969   27.6072 C   0  0  0  0  0  0
    0.7383   52.7659   26.6515 C   0  0  0  0  0  0
    1.0766   52.8010   25.2997 C   0  0  0  0  0  0
    2.3173   53.2960   24.8873 C   0  0  0  0  0  0
    3.1965   53.7980   25.8610 C   0  0  0  0  0  0
    2.8377   53.8147   27.2061 C   0  0  0  0  0  0
    2.7237   53.2962   23.4615 C   0  0  0  0  0  0
    3.7068   53.9753   23.0118 N   0  0  0  0  0  0
    3.9232   53.7725   21.7802 N   0  0  0  0  0  0
    3.0862   52.9431   21.3461 C   0  0  0  0  0  0
    2.0228   52.5353   22.3318 C   0  0  1  0  0  0
    1.0966   53.0424   22.0642 H   0  0  0  0  0  0
    1.8421   50.9615   22.2676 C   0  0  2  0  0  0
    2.7056   50.5090   22.7580 H   0  0  0  0  0  0
    1.9270   50.4537   20.8122 C   0  0  0  0  0  0
    2.5492   51.2059   19.8757 C   0  0  0  0  0  0
    3.1537   52.4032   20.0888 O   0  0  0  0  0  0
    2.7044   50.8956   18.5548 N   0  0  0  0  0  0
    1.3667   49.1916   20.4422 C   0  0  0  0  0  0
    0.9175   48.1874   20.0822 N   0  0  0  0  0  0
    0.6086   50.4581   23.0372 C   0  0  0  0  0  0
    0.8116   49.6949   24.1934 C   0  0  0  0  0  0
   -0.2568   49.2939   24.9903 C   0  0  0  0  0  0
   -1.5514   49.6587   24.6396 C   0  0  0  0  0  0
   -1.7758   50.3908   23.4753 C   0  0  0  0  0  0
   -0.7091   50.7678   22.6372 C   0  0  0  0  0  0
   -0.8983   51.4564   21.4476 O   0  0  0  0  0  0
   -1.8899   51.1328   20.5558 C   0  0  0  0  0  0
   -2.8415   50.3740   20.7531 O   0  0  0  0  0  0
   -1.6907   51.8302   19.2921 C   0  0  0  0  0  0
   -0.6014   52.4968   18.7429 C   0  0  0  0  0  0
   -1.0022   52.9662   17.4909 C   0  0  0  0  0  0
   -2.3151   52.5595   17.3238 C   0  0  0  0  0  0
   -2.7333   51.8705   18.4174 O   0  0  0  0  0  0
    3.5919   53.3681   30.4611 H   0  0  0  0  0  0
    3.6419   51.6809   30.9311 H   0  0  0  0  0  0
    3.7889   52.1151   29.2400 H   0  0  0  0  0  0
    1.5080   51.3111   29.5617 H   0  0  0  0  0  0
    1.1045   53.3254   31.8270 H   0  0  0  0  0  0
   -0.0196   52.0971   31.2819 H   0  0  0  0  0  0
    1.4685   51.6259   32.0808 H   0  0  0  0  0  0
    0.0825   53.3549   29.1007 H   0  0  0  0  0  0
    1.4344   54.3681   29.4509 H   0  0  0  0  0  0
   -0.2246   52.3726   26.9453 H   0  0  0  0  0  0
    0.3499   52.4523   24.5859 H   0  0  0  0  0  0
    4.1651   54.1917   25.5858 H   0  0  0  0  0  0
    3.5183   54.2346   27.9325 H   0  0  0  0  0  0
    2.2495   50.0749   18.1825 H   0  0  0  0  0  0
    3.6010   51.0955   18.1176 H   0  0  0  0  0  0
    1.8114   49.4111   24.4839 H   0  0  0  0  0  0
   -0.0832   48.7129   25.8863 H   0  0  0  0  0  0
   -2.3796   49.3647   25.2683 H   0  0  0  0  0  0
   -2.7916   50.6558   23.2248 H   0  0  0  0  0  0
    0.3669   52.6428   19.2000 H   0  0  0  0  0  0
   -0.4032   53.5315   16.7911 H   0  0  0  0  0  0
   -3.0354   52.6760   16.5262 H   0  0  0  0  0  0
  1  2  1  0  0  0
  1 39  1  0  0  0
  1 40  1  0  0  0
  1 41  1  0  0  0
  2  3  1  0  0  0
  2  4  1  0  0  0
  2 42  1  0  0  0
  3 43  1  0  0  0
  3 44  1  0  0  0
  3 45  1  0  0  0
  4  5  1  0  0  0
  4 46  1  0  0  0
  4 47  1  0  0  0
  5 10  2  0  0  0
  5  6  1  0  0  0
  6  7  2  0  0  0
  6 48  1  0  0  0
  7  8  1  0  0  0
  7 49  1  0  0  0
  8  9  2  0  0  0
  8 11  1  0  0  0
  9 10  1  0  0  0
  9 50  1  0  0  0
 10 51  1  0  0  0
 11 15  1  0  0  0
 11 12  2  0  0  0
 12 13  1  0  0  0
 13 14  2  0  0  0
 14 21  1  0  0  0
 14 15  1  0  0  0
 15 16  1  0  0  0
 15 17  1  0  0  0
 17 18  1  0  0  0
 17 19  1  0  0  0
 17 25  1  0  0  0
 19 20  2  0  0  0
 19 23  1  0  0  0
 20 21  1  0  0  0
 20 22  1  0  0  0
 22 52  1  0  0  0
 22 53  1  0  0  0
 23 24  3  0  0  0
 25 30  2  0  0  0
 25 26  1  0  0  0
 26 27  2  0  0  0
 26 54  1  0  0  0
 27 28  1  0  0  0
 27 55  1  0  0  0
 28 29  2  0  0  0
 28 56  1  0  0  0
 29 30  1  0  0  0
 29 57  1  0  0  0
 30 31  1  0  0  0
 31 32  1  0  0  0
 32 33  2  0  0  0
 32 34  1  0  0  0
 34 38  1  0  0  0
 34 35  2  0  0  0
 35 36  1  0  0  0
 35 58  1  0  0  0
 36 37  2  0  0  0
 36 59  1  0  0  0
 37 38  1  0  0  0
 37 60  1  0  0  0
M  END
> <i_i_glide_confnum>
143

> <i_i_glide_lignum>
4963

> <i_i_glide_posenum>
381

> <i_i_glide_rotatable_bonds>
8

> <i_m_Source_File_Index>
4181

> <b_m_subgroup_collapsed>
0

> <r_i_docking_score>
-4.53285

> <r_i_glide_ecoul>
-5.7763

> <r_i_glide_eff_state_penalty>
0

> <r_i_glide_einternal>
9.91973

> <r_i_glide_emodel>
-51.6576

> <r_i_glide_energy>
-44.8235

> <r_i_glide_erotb>
0.526984

> <r_i_glide_esite>
-0.113356

> <r_i_glide_evdw>
-39.0472

> <r_i_glide_gscore>
-4.53285

> <r_i_glide_hbond>
-0.118241

> <r_i_glide_ligand_efficiency>
-0.125913

> <r_i_glide_ligand_efficiency_ln>
-0.988946

> <r_i_glide_ligand_efficiency_sa>
-0.415754

> <r_i_glide_lipo>
-1.61433

> <r_i_glide_metal>
0

> <r_i_glide_rewards>
-0.395106

> <s_i_glide_gridfile>
wee1_glide-grid

> <s_m_Source_File>
wee1_decoys_glide_SP.sdf

> <s_m_Source_Path>
/Users/zhangxujun/Desktop

> <s_m_entry_id>
4456

> <s_m_entry_name>
wee1_decoys_glide_SP.4181

> <s_m_subgroup_title>
wee1_decoys_glide_SP

> <s_m_subgroupid>
wee1_decoys_glide_SP


$$$$
