@<TRIPOS>MOLECULE
ZINC08926601_6086
49   51    1
SMALL
USER_CHARGES


@<TRIPOS>ATOM
      1 C1         -0.4941   54.0823   28.2664 C.3       1 UNK         0.0000 
      2 C2         -0.2515   52.6855   27.7925 C.2       1 UNK         0.0000 
      3 C3         -1.1694   51.8287   27.0822 C.2       1 UNK         0.0000 
      4 C4         -0.4995   50.6600   26.7249 C.2       1 UNK         0.0000 
      5 S5          1.1026   50.5694   27.2817 S.3       1 UNK         0.0000 
      6 C6          0.9943   52.0989   27.9972 C.2       1 UNK         0.0000 
      7 C7          2.1542   52.6288   28.6547 C.2       1 UNK         0.0000 
      8 O8          2.3024   52.4253   29.8572 O.2       1 UNK         0.0000 
      9 N9          3.0421   53.3962   27.9807 N.am      1 UNK         0.0000 
     10 C10         3.2643   53.6672   26.6087 C.ar      1 UNK         0.0000 
     11 C11         2.3978   53.2974   25.5644 C.ar      1 UNK         0.0000 
     12 C12         2.7544   53.4756   24.2251 C.ar      1 UNK         0.0000 
     13 C13         3.9675   54.0961   23.9173 C.ar      1 UNK         0.0000 
     14 C14         4.8232   54.5003   24.9377 C.ar      1 UNK         0.0000 
     15 C15         4.4857   54.2839   26.2741 C.ar      1 UNK         0.0000 
     16 Cl16        5.6287   54.7700   27.4849 Cl        1 UNK         0.0000 
     17 C17         1.8505   52.9142   23.1325 C.3       1 UNK         0.0000 
     18 F18         1.9047   51.5840   23.1794 F         1 UNK         0.0000 
     19 F19         2.2304   53.2966   21.9151 F         1 UNK         0.0000 
     20 F20         0.5908   53.2968   23.3319 F         1 UNK         0.0000 
     21 N21        -0.9728   49.5661   26.0439 N.am      1 UNK         0.0000 
     22 C22        -1.1129   49.5428   24.7051 C.2       1 UNK         0.0000 
     23 O23        -0.7224   50.4478   23.9620 O.2       1 UNK         0.0000 
     24 C24        -1.7677   48.3116   24.1295 C.ar      1 UNK         0.0000 
     25 C25        -2.7054   47.5798   24.8749 C.ar      1 UNK         0.0000 
     26 C26        -3.3432   46.4821   24.3086 C.ar      1 UNK         0.0000 
     27 C27        -3.0370   46.0964   23.0061 C.ar      1 UNK         0.0000 
     28 C28        -2.1070   46.8089   22.2580 C.ar      1 UNK         0.0000 
     29 C29        -1.4789   47.9179   22.8154 C.ar      1 UNK         0.0000 
     30 F30        -3.6369   45.0085   22.4669 F         1 UNK         0.0000 
     31 C31        -2.5961   52.0232   26.7380 C.2       1 UNK         0.0000 
     32 O32        -3.4078   51.0975   26.6480 O.2       1 UNK         0.0000 
     33 O33        -2.9001   53.2964   26.4818 O.3       1 UNK         0.0000 
     34 C34        -4.2070   53.6760   26.0695 C.3       1 UNK         0.0000 
     35 H35        -1.2959   54.4975   27.6826 H         1 UNK         0.0000 
     36 H36        -0.7362   54.0972   29.3287 H         1 UNK         0.0000 
     37 H37         0.3588   54.7446   28.1088 H         1 UNK         0.0000 
     38 H38         3.7758   53.7557   28.5724 H         1 UNK         0.0000 
     39 H39         1.4496   52.8269   25.7353 H         1 UNK         0.0000 
     40 H40         4.2665   54.2414   22.8895 H         1 UNK         0.0000 
     41 H41         5.7644   54.9675   24.6871 H         1 UNK         0.0000 
     42 H42        -1.2933   48.8035   26.6380 H         1 UNK         0.0000 
     43 H43        -2.9613   47.8633   25.8873 H         1 UNK         0.0000 
     44 H44        -4.0763   45.9360   24.8845 H         1 UNK         0.0000 
     45 H45        -1.8805   46.5057   21.2464 H         1 UNK         0.0000 
     46 H46        -0.7659   48.4711   22.2202 H         1 UNK         0.0000 
     47 H47        -4.2422   54.7531   25.9029 H         1 UNK         0.0000 
     48 H48        -4.4825   53.1780   25.1376 H         1 UNK         0.0000 
     49 H49        -4.9493   53.4243   26.8292 H         1 UNK         0.0000 
@<TRIPOS>BOND
     1    1    2 1    
     2    1   35 1    
     3    1   36 1    
     4    1   37 1    
     5    2    6 2    
     6    2    3 1    
     7    3    4 2    
     8    3   31 1    
     9    4    5 1    
    10    4   21 am   BACKBONE|DICT|INTERRES
    11    5    6 1    
    12    6    7 1    
    13    7    8 2    
    14    7    9 am   BACKBONE|DICT|INTERRES
    15    9   10 1    
    16    9   38 1    
    17   10   15 ar   
    18   10   11 ar   
    19   11   12 ar   
    20   11   39 1    
    21   12   13 ar   
    22   12   17 1    
    23   13   14 ar   
    24   13   40 1    
    25   14   15 ar   
    26   14   41 1    
    27   15   16 1    
    28   17   18 1    
    29   17   19 1    
    30   17   20 1    
    31   21   22 am   BACKBONE|DICT|INTERRES
    32   21   42 1    
    33   22   23 2    
    34   22   24 1    
    35   24   29 ar   
    36   24   25 ar   
    37   25   26 ar   
    38   25   43 1    
    39   26   27 ar   
    40   26   44 1    
    41   27   28 ar   
    42   27   30 1    
    43   28   29 ar   
    44   28   45 1    
    45   29   46 1    
    46   31   32 2    
    47   31   33 1    
    48   33   34 1    
    49   34   47 1    
    50   34   48 1    
    51   34   49 1    
@<TRIPOS>SUBSTRUCTURE
     1 UNK         1 GROUP             0       ****    0 ROOT    
