ZINC02050335_912
                    3D
 Schrodinger Suite 2024-2.
 48 50  0  0  1  0            999 V2000
   -0.2684   55.5915   16.2746 C   0  0  0  0  0  0
   -0.9417   54.3954   16.9228 C   0  0  0  0  0  0
   -2.2845   54.1128   16.6620 C   0  0  0  0  0  0
   -2.8989   53.0177   17.2678 C   0  0  0  0  0  0
   -2.1832   52.2138   18.1545 C   0  0  0  0  0  0
   -0.8404   52.4929   18.4438 C   0  0  0  0  0  0
   -0.2224   53.5804   17.7996 C   0  0  0  0  0  0
   -0.0790   51.6196   19.4091 C   0  0  0  0  0  0
   -0.3111   50.4126   19.4622 O   0  0  0  0  0  0
    0.8390   52.2618   20.1605 N   0  0  0  0  0  0
    1.8080   51.7841   21.1680 C   0  0  0  0  0  0
    1.4414   50.3894   21.8399 C   0  0  0  0  0  0
    2.1993   50.1290   22.9066 F   0  0  0  0  0  0
    0.1705   50.3227   22.2360 F   0  0  0  0  0  0
    1.6212   49.3378   21.0380 F   0  0  0  0  0  0
    3.1842   51.5967   20.4472 C   0  0  0  0  0  0
    4.1541   51.2116   21.2776 F   0  0  0  0  0  0
    3.1044   50.7026   19.4634 F   0  0  0  0  0  0
    3.5987   52.7383   19.8863 F   0  0  0  0  0  0
    1.9102   52.8969   22.1336 N   0  0  0  0  0  0
    1.7855   52.9776   23.5000 C   0  0  0  0  0  0
    2.6387   53.6578   24.2091 N   0  0  0  0  0  0
    2.3830   53.5439   25.5391 C   0  0  0  0  0  0
    3.1740   54.0967   26.5530 C   0  0  0  0  0  0
    2.8038   53.8757   27.8795 C   0  0  0  0  0  0
    1.6720   53.1242   28.2060 C   0  0  0  0  0  0
    0.8645   52.5662   27.2087 C   0  0  0  0  0  0
    1.2305   52.7888   25.8742 C   0  0  0  0  0  0
    0.4569   52.2549   24.3898 S   0  0  0  0  0  0
    1.3098   52.8998   29.9468 S   0  0  0  0  0  0
    2.4107   52.0980   30.4903 O   0  0  0  0  0  0
    1.0415   54.2383   30.4813 O   0  0  0  0  0  0
   -0.2797   51.8938   30.0526 C   0  0  0  0  0  0
    0.3918   56.0878   16.9882 H   0  0  0  0  0  0
    0.3298   55.2753   15.4189 H   0  0  0  0  0  0
   -0.9950   56.3361   15.9476 H   0  0  0  0  0  0
   -2.8498   54.7306   15.9799 H   0  0  0  0  0  0
   -3.9330   52.7932   17.0495 H   0  0  0  0  0  0
   -2.6792   51.3687   18.6138 H   0  0  0  0  0  0
    0.8183   53.8086   17.9896 H   0  0  0  0  0  0
    0.6126   53.2366   20.2883 H   0  0  0  0  0  0
    2.3812   53.6740   21.6916 H   0  0  0  0  0  0
    4.0548   54.6702   26.3104 H   0  0  0  0  0  0
    3.4111   54.2931   28.6708 H   0  0  0  0  0  0
   -0.0128   51.9795   27.4374 H   0  0  0  0  0  0
   -0.4952   51.7044   31.1044 H   0  0  0  0  0  0
   -1.0914   52.4621   29.6090 H   0  0  0  0  0  0
   -0.1479   50.9465   29.5322 H   0  0  0  0  0  0
  1  2  1  0  0  0
  1 34  1  0  0  0
  1 35  1  0  0  0
  1 36  1  0  0  0
  2  7  2  0  0  0
  2  3  1  0  0  0
  3  4  2  0  0  0
  3 37  1  0  0  0
  4  5  1  0  0  0
  4 38  1  0  0  0
  5  6  2  0  0  0
  5 39  1  0  0  0
  6  7  1  0  0  0
  6  8  1  0  0  0
  7 40  1  0  0  0
  8  9  2  0  0  0
  8 10  1  0  0  0
 10 11  1  0  0  0
 10 41  1  0  0  0
 11 12  1  0  0  0
 11 16  1  0  0  0
 11 20  1  0  0  0
 12 13  1  0  0  0
 12 14  1  0  0  0
 12 15  1  0  0  0
 16 17  1  0  0  0
 16 18  1  0  0  0
 16 19  1  0  0  0
 20 21  1  0  0  0
 20 42  1  0  0  0
 21 29  1  0  0  0
 21 22  2  0  0  0
 22 23  1  0  0  0
 23 28  2  0  0  0
 23 24  1  0  0  0
 24 25  2  0  0  0
 24 43  1  0  0  0
 25 26  1  0  0  0
 25 44  1  0  0  0
 26 27  2  0  0  0
 26 30  1  0  0  0
 27 28  1  0  0  0
 27 45  1  0  0  0
 28 29  1  0  0  0
 30 31  2  0  0  0
 30 32  2  0  0  0
 30 33  1  0  0  0
 33 46  1  0  0  0
 33 47  1  0  0  0
 33 48  1  0  0  0
M  END
> <i_i_glide_confnum>
69

> <i_i_glide_lignum>
913

> <i_i_glide_posenum>
235

> <i_i_glide_rotatable_bonds>
8

> <i_m_Source_File_Index>
4100

> <b_m_subgroup_collapsed>
0

> <r_i_docking_score>
-4.68184

> <r_i_glide_ecoul>
-7.21604

> <r_i_glide_eff_state_penalty>
0

> <r_i_glide_einternal>
13.5413

> <r_i_glide_emodel>
-50.3418

> <r_i_glide_energy>
-43.9807

> <r_i_glide_erotb>
0.391698

> <r_i_glide_esite>
-0.201251

> <r_i_glide_evdw>
-36.7647

> <r_i_glide_gscore>
-4.68184

> <r_i_glide_hbond>
-0.221737

> <r_i_glide_ligand_efficiency>
-0.141874

> <r_i_glide_ligand_efficiency_ln>
-1.04122

> <r_i_glide_ligand_efficiency_sa>
-0.455066

> <r_i_glide_lipo>
-1.39552

> <r_i_glide_metal>
0

> <r_i_glide_rewards>
-0.334386

> <s_i_glide_gridfile>
wee1_glide-grid

> <s_m_Source_File>
wee1_decoys_glide_SP.sdf

> <s_m_Source_Path>
/Users/zhangxujun/Desktop

> <s_m_entry_id>
4375

> <s_m_entry_name>
wee1_decoys_glide_SP.4100

> <s_m_subgroup_title>
wee1_decoys_glide_SP

> <s_m_subgroupid>
wee1_decoys_glide_SP


$$$$
