ZINC38740694_543
                    3D
 Schrodinger Suite 2024-2.
 50 53  0  0  1  0            999 V2000
    7.3933   55.3410   22.3358 C   0  0  0  0  0  0
    6.1742   54.7790   23.0599 C   0  0  0  0  0  0
    5.1251   54.1724   22.3495 C   0  0  0  0  0  0
    3.9886   53.7601   22.9579 N   0  0  0  0  0  0
    3.8835   53.9350   24.3038 C   0  0  0  0  0  0
    4.8554   54.4915   25.0800 N   0  0  0  0  0  0
    5.9865   54.8997   24.4527 C   0  0  0  0  0  0
    6.8424   55.4299   25.2301 O   0  5  0  0  0  0
    2.7046   53.4261   24.9424 N   0  0  0  0  0  0
    1.6787   52.6518   24.4136 C   0  0  0  0  0  0
    0.8116   52.4074   25.4659 C   0  0  0  0  0  0
    1.3889   53.0182   26.5846 C   0  0  0  0  0  0
    2.4903   53.6568   26.2561 N   0  0  0  0  0  0
    0.8939   53.0106   27.9520 C   0  0  0  0  0  0
    1.1178   53.9464   28.9627 C   0  0  0  0  0  0
    0.4979   53.6192   30.1732 C   0  0  0  0  0  0
   -0.1985   52.4233   30.1025 C   0  0  0  0  0  0
   -0.0960   51.7005   28.5321 S   0  0  0  0  0  0
    1.6812   52.2114   23.1026 N   0  0  0  0  0  0
    0.6333   51.7709   22.3816 C   0  0  0  0  0  0
   -0.5359   51.7713   22.7693 O   0  0  0  0  0  0
    1.0063   51.3026   20.9909 C   0  0  0  0  0  0
    1.8909   52.0964   20.2367 C   0  0  0  0  0  0
    2.3040   51.7161   18.9642 C   0  0  0  0  0  0
    1.8278   50.5375   18.4078 C   0  0  0  0  0  0
    0.9367   49.7441   19.1220 C   0  0  0  0  0  0
    0.5187   50.1004   20.4131 C   0  0  0  0  0  0
   -0.5575   48.9080   21.2578 S   0  0  0  0  0  0
   -0.5088   47.6537   20.4943 O   0  0  0  0  0  0
   -0.2055   48.8967   22.6820 O   0  0  0  0  0  0
   -2.2951   49.6388   21.0569 C   0  0  0  0  0  0
   -2.5196   49.8386   19.7580 F   0  0  0  0  0  0
   -3.1727   48.7666   21.5533 F   0  0  0  0  0  0
    5.1355   53.9394   20.8454 C   0  0  0  0  0  0
    7.0996   55.8467   21.4163 H   0  0  0  0  0  0
    7.9037   56.0967   22.9277 H   0  0  0  0  0  0
    8.0910   54.5441   22.0816 H   0  0  0  0  0  0
   -0.0951   51.8193   25.4384 H   0  0  0  0  0  0
    1.7102   54.8380   28.8198 H   0  0  0  0  0  0
    0.5554   54.2268   31.0647 H   0  0  0  0  0  0
   -0.7651   51.9353   30.8853 H   0  0  0  0  0  0
    2.5504   52.3687   22.6099 H   0  0  0  0  0  0
    2.2741   53.0298   20.6272 H   0  0  0  0  0  0
    3.0024   52.3281   18.4117 H   0  0  0  0  0  0
    2.1662   50.2303   17.4276 H   0  0  0  0  0  0
    0.5957   48.8282   18.6619 H   0  0  0  0  0  0
   -2.3743   50.5808   21.5936 H   0  0  0  0  0  0
    6.1088   54.1063   20.3883 H   0  0  0  0  0  0
    4.8536   52.9106   20.6198 H   0  0  0  0  0  0
    4.4180   54.6004   20.3594 H   0  0  0  0  0  0
  1  2  1  0  0  0
  1 35  1  0  0  0
  1 36  1  0  0  0
  1 37  1  0  0  0
  2  7  2  0  0  0
  2  3  1  0  0  0
  3  4  2  0  0  0
  3 34  1  0  0  0
  4  5  1  0  0  0
  5  6  2  0  0  0
  5  9  1  0  0  0
  6  7  1  0  0  0
  7  8  1  0  0  0
  9 13  1  0  0  0
  9 10  1  0  0  0
 10 11  2  0  0  0
 10 19  1  0  0  0
 11 12  1  0  0  0
 11 38  1  0  0  0
 12 13  2  0  0  0
 12 14  1  0  0  0
 14 18  1  0  0  0
 14 15  2  0  0  0
 15 16  1  0  0  0
 15 39  1  0  0  0
 16 17  2  0  0  0
 16 40  1  0  0  0
 17 18  1  0  0  0
 17 41  1  0  0  0
 19 20  1  0  0  0
 19 42  1  0  0  0
 20 21  2  0  0  0
 20 22  1  0  0  0
 22 27  2  0  0  0
 22 23  1  0  0  0
 23 24  2  0  0  0
 23 43  1  0  0  0
 24 25  1  0  0  0
 24 44  1  0  0  0
 25 26  2  0  0  0
 25 45  1  0  0  0
 26 27  1  0  0  0
 26 46  1  0  0  0
 27 28  1  0  0  0
 28 29  2  0  0  0
 28 30  2  0  0  0
 28 31  1  0  0  0
 31 32  1  0  0  0
 31 33  1  0  0  0
 31 47  1  0  0  0
 34 48  1  0  0  0
 34 49  1  0  0  0
 34 50  1  0  0  0
M  CHG  1   8  -1
M  END
> <i_i_glide_confnum>
134

> <i_i_glide_lignum>
544

> <i_i_glide_posenum>
394

> <i_i_glide_rotatable_bonds>
7

> <i_m_Source_File_Index>
690

> <b_m_subgroup_collapsed>
0

> <r_i_docking_score>
-4.92077

> <r_i_glide_ecoul>
-4.25187

> <r_i_glide_eff_state_penalty>
0

> <r_i_glide_einternal>
4.56338

> <r_i_glide_emodel>
-61.4557

> <r_i_glide_energy>
-45.9243

> <r_i_glide_erotb>
0.481994

> <r_i_glide_esite>
0

> <r_i_glide_evdw>
-41.6724

> <r_i_glide_gscore>
-4.92077

> <r_i_glide_hbond>
-0.156595

> <r_i_glide_ligand_efficiency>
-0.144728

> <r_i_glide_ligand_efficiency_ln>
-1.08714

> <r_i_glide_ligand_efficiency_sa>
-0.468864

> <r_i_glide_lipo>
-1.82289

> <r_i_glide_metal>
0

> <r_i_glide_rewards>
-0.701868

> <s_i_glide_gridfile>
wee1_glide-grid

> <s_m_Source_File>
wee1_decoys_glide_SP.sdf

> <s_m_Source_Path>
/Users/zhangxujun/Desktop

> <s_m_entry_id>
965

> <s_m_entry_name>
wee1_decoys_glide_SP.690

> <s_m_subgroup_title>
wee1_decoys_glide_SP

> <s_m_subgroupid>
wee1_decoys_glide_SP


$$$$
