@<TRIPOS>MOLECULE
ZINC39665956_3070
69   72    1
SMALL
USER_CHARGES


@<TRIPOS>ATOM
      1 C1         10.2339   50.0435   15.1137 C.3       1 UNK         0.0000 
      2 C2          9.0805   51.0167   15.2904 C.ar      1 UNK         0.0000 
      3 C3          8.3348   51.4203   14.1831 C.ar      1 UNK         0.0000 
      4 C4          7.2506   52.2813   14.3514 C.ar      1 UNK         0.0000 
      5 C5          6.8917   52.7446   15.6182 C.ar      1 UNK         0.0000 
      6 C6          7.6419   52.3250   16.7277 C.ar      1 UNK         0.0000 
      7 C7          8.7315   51.4719   16.5617 C.ar      1 UNK         0.0000 
      8 O8          5.7932   53.5890   15.6684 O.3       1 UNK         0.0000 
      9 C9          5.3575   54.1995   16.8902 C.3       1 UNK         0.0000 
     10 H10         6.1461   54.2672   17.6389 H         1 UNK         0.0000 
     11 C11         4.9997   55.6530   16.5354 C.3       1 UNK         0.0000 
     12 C12         4.1354   53.4219   17.4501 C.3       1 UNK         0.0000 
     13 N13         3.7349   53.7861   18.8195 N.am      1 UNK         0.0000 
     14 C14         4.4182   53.4326   19.9208 C.2       1 UNK         0.0000 
     15 O15         5.5039   52.8581   19.8599 O.2       1 UNK         0.0000 
     16 C16         3.8185   53.8482   21.2881 C.3       1 UNK         0.0000 
     17 H17         3.2252   54.7529   21.1714 H         1 UNK         0.0000 
     18 C18         4.9718   54.1554   22.2647 C.3       1 UNK         0.0000 
     19 N19         4.3723   53.9655   23.5846 N.am      1 UNK         0.0000 
     20 C20         3.1040   53.2306   23.4811 C.3       1 UNK         0.0000 
     21 C21         2.9774   52.7517   22.0103 C.3       1 UNK         0.0000 
     22 C22         3.5040   51.2953   21.7812 C.3       1 UNK         0.0000 
     23 C23         2.7030   50.2146   22.5576 C.3       1 UNK         0.0000 
     24 N24         1.2178   50.3131   22.1571 N.4       1 UNK         0.0000 
     25 C25         0.6385   51.7330   22.3364 C.3       1 UNK         0.0000 
     26 C26         1.5110   52.7083   21.5235 C.3       1 UNK         0.0000 
     27 C27         5.0095   54.3823   24.7177 C.2       1 UNK         0.0000 
     28 O28         6.0999   54.9582   24.6672 O.2       1 UNK         0.0000 
     29 C29         4.4314   54.0578   26.0848 C.ar      1 UNK         0.0000 
     30 C30         3.0561   54.0963   26.3551 C.ar      1 UNK         0.0000 
     31 C31         2.5630   53.7068   27.5944 C.ar      1 UNK         0.0000 
     32 C32         3.4368   53.2784   28.5943 C.ar      1 UNK         0.0000 
     33 C33         4.8147   53.2989   28.3587 C.ar      1 UNK         0.0000 
     34 C34         5.3061   53.6967   27.1195 C.ar      1 UNK         0.0000 
     35 C35         2.8682   52.7759   29.9179 C.3       1 UNK         0.0000 
     36 F36         2.1266   51.6986   29.6854 F         1 UNK         0.0000 
     37 F37         3.8172   52.4501   30.7981 F         1 UNK         0.0000 
     38 F38         2.0842   53.7052   30.4617 F         1 UNK         0.0000 
     39 H39        10.4451   49.4993   16.0350 H         1 UNK         0.0000 
     40 H40        11.1355   50.5635   14.7882 H         1 UNK         0.0000 
     41 H41         9.9851   49.2910   14.3634 H         1 UNK         0.0000 
     42 H42         8.5886   51.0606   13.1967 H         1 UNK         0.0000 
     43 H43         6.6754   52.5892   13.4918 H         1 UNK         0.0000 
     44 H44         7.3852   52.6176   17.7306 H         1 UNK         0.0000 
     45 H45         9.2876   51.1489   17.4299 H         1 UNK         0.0000 
     46 H46         4.6535   56.2046   17.4106 H         1 UNK         0.0000 
     47 H47         5.8704   56.1779   16.1400 H         1 UNK         0.0000 
     48 H48         4.2163   55.6978   15.7777 H         1 UNK         0.0000 
     49 H49         3.2803   53.5740   16.7895 H         1 UNK         0.0000 
     50 H50         4.3163   52.3459   17.4042 H         1 UNK         0.0000 
     51 H51         2.8737   54.3035   18.9326 H         1 UNK         0.0000 
     52 H52         5.7610   53.4021   22.2027 H         1 UNK         0.0000 
     53 H53         5.3970   55.1461   22.1012 H         1 UNK         0.0000 
     54 H54         2.3233   53.9830   23.5985 H         1 UNK         0.0000 
     55 H55         2.9215   52.4556   24.2220 H         1 UNK         0.0000 
     56 H56         3.5102   51.0375   20.7213 H         1 UNK         0.0000 
     57 H57         4.5521   51.2493   22.0724 H         1 UNK         0.0000 
     58 H58         3.0108   49.1986   22.3043 H         1 UNK         0.0000 
     59 H59         2.7000   50.3196   23.6418 H         1 UNK         0.0000 
     60 H60         1.1289   50.0362   21.1881 H         1 UNK         0.0000 
     61 H61        -0.3898   51.6939   21.9742 H         1 UNK         0.0000 
     62 H62         0.6330   51.9411   23.4085 H         1 UNK         0.0000 
     63 H63         1.0925   53.6976   21.6769 H         1 UNK         0.0000 
     64 H64         1.4466   52.5163   20.4501 H         1 UNK         0.0000 
     65 H65         2.3461   54.4338   25.6174 H         1 UNK         0.0000 
     66 H66         1.4956   53.7196   27.7725 H         1 UNK         0.0000 
     67 H67         5.5117   52.9794   29.1178 H         1 UNK         0.0000 
     68 H68         6.3750   53.6681   26.9547 H         1 UNK         0.0000 
     69 H69         0.6795   49.6514   22.7017 H         1 UNK         0.0000 
@<TRIPOS>BOND
     1    1    2 1    
     2    1   39 1    
     3    1   40 1    
     4    1   41 1    
     5    2    7 ar   
     6    2    3 ar   
     7    3    4 ar   
     8    3   42 1    
     9    4    5 ar   
    10    4   43 1    
    11    5    6 ar   
    12    5    8 1    
    13    6    7 ar   
    14    6   44 1    
    15    7   45 1    
    16    8    9 1    
    17    9   10 1    
    18    9   11 1    
    19    9   12 1    
    20   11   46 1    
    21   11   47 1    
    22   11   48 1    
    23   12   13 1    
    24   12   49 1    
    25   12   50 1    
    26   13   14 am   BACKBONE|DICT|INTERRES
    27   13   51 1    
    28   14   15 2    
    29   14   16 1    
    30   16   17 1    
    31   16   21 1    
    32   16   18 1    
    33   18   19 1    
    34   18   52 1    
    35   18   53 1    
    36   19   20 1    
    37   19   27 am   BACKBONE|DICT|INTERRES
    38   20   21 1    
    39   20   54 1    
    40   20   55 1    
    41   21   26 1    
    42   21   22 1    
    43   22   23 1    
    44   22   56 1    
    45   22   57 1    
    46   23   24 1    
    47   23   58 1    
    48   23   59 1    
    49   24   25 1    
    50   24   60 1    
    51   24   69 1    
    52   25   26 1    
    53   25   61 1    
    54   25   62 1    
    55   26   63 1    
    56   26   64 1    
    57   27   28 2    
    58   27   29 1    
    59   29   34 ar   
    60   29   30 ar   
    61   30   31 ar   
    62   30   65 1    
    63   31   32 ar   
    64   31   66 1    
    65   32   33 ar   
    66   32   35 1    
    67   33   34 ar   
    68   33   67 1    
    69   34   68 1    
    70   35   36 1    
    71   35   37 1    
    72   35   38 1    
@<TRIPOS>SUBSTRUCTURE
     1 UNK         1 GROUP             0       ****    0 ROOT    
