@<TRIPOS>MOLECULE
ZINC32986196_3270
57   61    1
SMALL
USER_CHARGES


@<TRIPOS>ATOM
      1 C1          6.4919   55.1856   24.7276 C.ar      1 UNK         0.0000 
      2 C2          5.5552   54.8162   25.6819 C.ar      1 UNK         0.0000 
      3 C3          4.4236   54.0969   25.3043 C.ar      1 UNK         0.0000 
      4 C4          4.1830   53.7362   23.9642 C.ar      1 UNK         0.0000 
      5 C5          5.1728   54.0915   23.0055 C.ar      1 UNK         0.0000 
      6 C6          6.3045   54.8126   23.4041 C.ar      1 UNK         0.0000 
      7 C7          5.0409   53.6761   21.5532 C.3       1 UNK         0.0000 
      8 C8          3.5716   53.5644   21.2019 C.3       1 UNK         0.0000 
      9 C9          2.8916   52.5919   22.1672 C.3       1 UNK         0.0000 
     10 N10         2.9917   53.0241   23.5766 N.pl3     1 UNK         0.0000 
     11 S11         1.4100   53.1755   24.4228 S.o2      1 UNK         0.0000 
     12 O12         0.7044   54.2173   23.6817 O.2       1 UNK         0.0000 
     13 O13         1.6140   53.2982   25.8694 O.2       1 UNK         0.0000 
     14 C14         0.4818   51.6442   24.1841 C.ar      1 UNK         0.0000 
     15 C15         0.5192   50.6241   25.1405 C.ar      1 UNK         0.0000 
     16 C16        -0.2010   49.4439   24.9481 C.ar      1 UNK         0.0000 
     17 C17        -1.0067   49.2995   23.8122 C.ar      1 UNK         0.0000 
     18 C18        -1.0638   50.3345   22.8714 C.ar      1 UNK         0.0000 
     19 C19        -0.3260   51.4997   23.0554 C.ar      1 UNK         0.0000 
     20 C20        -1.7677   48.0276   23.5199 C.2       1 UNK         0.0000 
     21 O21        -1.2956   47.2963   22.6503 O.2       1 UNK         0.0000 
     22 N22        -2.9955   47.8300   24.0984 N.am      1 UNK         0.0000 
     23 C23        -3.2321   48.4119   25.4427 C.3       1 UNK         0.0000 
     24 C24        -4.2584   47.5386   26.2242 C.3       1 UNK         0.0000 
     25 H25        -4.5189   48.0266   27.1646 H         1 UNK         0.0000 
     26 O26        -5.4582   47.3624   25.4557 O.3       1 UNK         0.0000 
     27 C27        -5.2821   46.9560   24.1480 C.ar      1 UNK         0.0000 
     28 C28        -4.0835   47.1658   23.4338 C.ar      1 UNK         0.0000 
     29 C29        -4.0734   46.7543   22.0813 C.ar      1 UNK         0.0000 
     30 C30        -5.1794   46.1351   21.4983 C.ar      1 UNK         0.0000 
     31 C31        -6.3365   45.9238   22.2412 C.ar      1 UNK         0.0000 
     32 C32        -6.3903   46.3426   23.5662 C.ar      1 UNK         0.0000 
     33 C33        -3.7125   46.1419   26.6518 C.2       1 UNK         0.0000 
     34 O34        -4.0412   45.1010   26.0816 O.2       1 UNK         0.0000 
     35 N35        -2.8956   46.0967   27.7001 N.am      1 UNK         0.0000 
     36 H36         7.3706   55.7478   25.0028 H         1 UNK         0.0000 
     37 H37         5.7054   55.0795   26.7189 H         1 UNK         0.0000 
     38 H38         3.7701   53.8142   26.1064 H         1 UNK         0.0000 
     39 H39         7.0565   55.0837   22.6768 H         1 UNK         0.0000 
     40 H40         5.5057   52.7008   21.4120 H         1 UNK         0.0000 
     41 H41         5.5446   54.3767   20.8852 H         1 UNK         0.0000 
     42 H42         3.4372   53.2379   20.1697 H         1 UNK         0.0000 
     43 H43         3.1045   54.5450   21.2815 H         1 UNK         0.0000 
     44 H44         3.4142   51.6353   22.1243 H         1 UNK         0.0000 
     45 H45         1.8727   52.3771   21.8528 H         1 UNK         0.0000 
     46 H46         1.1044   50.7402   26.0396 H         1 UNK         0.0000 
     47 H47        -0.1249   48.6541   25.6852 H         1 UNK         0.0000 
     48 H48        -1.6699   50.2344   21.9815 H         1 UNK         0.0000 
     49 H49        -0.3849   52.2874   22.3181 H         1 UNK         0.0000 
     50 H50        -3.6526   49.4102   25.3174 H         1 UNK         0.0000 
     51 H51        -2.3261   48.5076   26.0426 H         1 UNK         0.0000 
     52 H52        -3.2271   46.9149   21.4343 H         1 UNK         0.0000 
     53 H53        -5.1423   45.8303   20.4627 H         1 UNK         0.0000 
     54 H54        -7.1948   45.4498   21.7880 H         1 UNK         0.0000 
     55 H55        -7.2904   46.1960   24.1450 H         1 UNK         0.0000 
     56 H56        -2.6380   45.1863   28.0809 H         1 UNK         0.0000 
     57 H57        -2.4955   46.9609   28.0829 H         1 UNK         0.0000 
@<TRIPOS>BOND
     1    1    6 ar   
     2    1    2 ar   
     3    1   36 1    
     4    2    3 ar   
     5    2   37 1    
     6    3    4 ar   
     7    3   38 1    
     8    4   10 1    
     9    4    5 ar   
    10    5    6 ar   
    11    5    7 1    
    12    6   39 1    
    13    7    8 1    
    14    7   40 1    
    15    7   41 1    
    16    8    9 1    
    17    8   42 1    
    18    8   43 1    
    19    9   10 1    
    20    9   44 1    
    21    9   45 1    
    22   10   11 1    
    23   11   12 2    
    24   11   13 2    
    25   11   14 1    
    26   14   19 ar   
    27   14   15 ar   
    28   15   16 ar   
    29   15   46 1    
    30   16   17 ar   
    31   16   47 1    
    32   17   18 ar   
    33   17   20 1    
    34   18   19 ar   
    35   18   48 1    
    36   19   49 1    
    37   20   21 2    
    38   20   22 am   BACKBONE|DICT|INTERRES
    39   22   28 1    
    40   22   23 1    
    41   23   24 1    
    42   23   50 1    
    43   23   51 1    
    44   24   25 1    
    45   24   26 1    
    46   24   33 1    
    47   26   27 1    
    48   27   32 ar   
    49   27   28 ar   
    50   28   29 ar   
    51   29   30 ar   
    52   29   52 1    
    53   30   31 ar   
    54   30   53 1    
    55   31   32 ar   
    56   31   54 1    
    57   32   55 1    
    58   33   34 2    
    59   33   35 am   BACKBONE|DICT|INTERRES
    60   35   56 1    
    61   35   57 1    
@<TRIPOS>SUBSTRUCTURE
     1 UNK         1 GROUP             0       ****    0 ROOT    
