ZINC36899622_3879
                    3D
 Schrodinger Suite 2024-2.
 27 29  0  0  1  0            999 V2000
    3.5969   54.0955   23.0381 C   0  0  0  0  0  0
    3.1267   54.0983   24.3532 C   0  0  0  0  0  0
    4.0843   54.2122   25.3745 C   0  0  0  0  0  0
    5.4677   54.3641   25.0749 C   0  0  0  0  0  0
    5.9070   54.3574   23.7445 C   0  0  0  0  0  0
    4.9535   54.2103   22.7373 C   0  0  0  0  0  0
    5.5038   54.2192   20.9181 Br  0  0  0  0  0  0
    6.2132   54.5041   26.2084 N   0  0  0  0  0  0
    5.3450   54.3986   27.1755 C   0  0  0  0  0  0
    4.0232   54.2278   26.7658 N   0  0  0  0  0  0
    2.8724   54.0772   27.5962 C   0  0  0  0  0  0
    2.6993   54.9303   28.6969 C   0  0  0  0  0  0
    1.5853   54.8103   29.5267 C   0  0  0  0  0  0
    0.6259   53.8358   29.2646 C   0  0  0  0  0  0
    0.7643   52.9995   28.1595 C   0  0  0  0  0  0
    1.8755   53.1212   27.3225 C   0  0  0  0  0  0
    1.9743   52.2815   26.2684 F   0  0  0  0  0  0
   -0.1824   52.0666   27.8983 F   0  0  0  0  0  0
   -0.4401   53.7028   30.0828 F   0  0  0  0  0  0
    5.7299   54.4414   28.4821 N   0  0  0  0  0  0
    2.8905   54.0097   22.2241 H   0  0  0  0  0  0
    2.0697   54.0149   24.5575 H   0  0  0  0  0  0
    6.9553   54.4632   23.5054 H   0  0  0  0  0  0
    3.4247   55.6966   28.9199 H   0  0  0  0  0  0
    1.4628   55.4722   30.3717 H   0  0  0  0  0  0
    6.6360   54.8093   28.7533 H   0  0  0  0  0  0
    5.1096   54.1573   29.2254 H   0  0  0  0  0  0
  1  6  2  0  0  0
  1  2  1  0  0  0
  1 21  1  0  0  0
  2  3  2  0  0  0
  2 22  1  0  0  0
  3 10  1  0  0  0
  3  4  1  0  0  0
  4  5  2  0  0  0
  4  8  1  0  0  0
  5  6  1  0  0  0
  5 23  1  0  0  0
  6  7  1  0  0  0
  8  9  2  0  0  0
  9 10  1  0  0  0
  9 20  1  0  0  0
 10 11  1  0  0  0
 11 16  2  0  0  0
 11 12  1  0  0  0
 12 13  2  0  0  0
 12 24  1  0  0  0
 13 14  1  0  0  0
 13 25  1  0  0  0
 14 15  2  0  0  0
 14 19  1  0  0  0
 15 16  1  0  0  0
 15 18  1  0  0  0
 16 17  1  0  0  0
 20 26  1  0  0  0
 20 27  1  0  0  0
M  END
> <i_i_glide_confnum>
1

> <i_i_glide_lignum>
3880

> <i_i_glide_posenum>
183

> <i_i_glide_rotatable_bonds>
1

> <i_m_Source_File_Index>
4485

> <b_m_subgroup_collapsed>
0

> <r_i_docking_score>
-6.98029

> <r_i_glide_ecoul>
-2.2934

> <r_i_glide_eff_state_penalty>
0

> <r_i_glide_einternal>
0.4495

> <r_i_glide_emodel>
-49.7964

> <r_i_glide_energy>
-35.4213

> <r_i_glide_erotb>
0.16198

> <r_i_glide_esite>
-0.0323004

> <r_i_glide_evdw>
-33.1279

> <r_i_glide_gscore>
-6.98029

> <r_i_glide_hbond>
-0.32

> <r_i_glide_ligand_efficiency>
-0.349015

> <r_i_glide_ligand_efficiency_ln>
-1.74694

> <r_i_glide_ligand_efficiency_sa>
-0.947372

> <r_i_glide_lipo>
-2.87896

> <r_i_glide_metal>
0

> <r_i_glide_rewards>
-1.91061

> <s_i_glide_gridfile>
wee1_glide-grid

> <s_m_Source_File>
wee1_decoys_glide_SP.sdf

> <s_m_Source_Path>
/Users/zhangxujun/Desktop

> <s_m_entry_id>
4760

> <s_m_entry_name>
wee1_decoys_glide_SP.4485

> <s_m_subgroup_title>
wee1_decoys_glide_SP

> <s_m_subgroupid>
wee1_decoys_glide_SP


$$$$
