ZINC32957704_3126
                    3D
 Schrodinger Suite 2024-2.
 82 84  0  0  1  0            999 V2000
   13.4518   60.0941   19.5281 C   0  0  0  0  0  0
   13.3625   58.8251   18.6646 C   0  0  0  0  0  0
   12.0320   58.6683   17.9067 C   0  0  0  0  0  0
   10.8071   58.4929   18.8264 C   0  0  0  0  0  0
    9.5522   58.2347   18.0799 N   0  0  0  0  0  0
    9.0793   56.9772   17.7329 C   0  0  0  0  0  0
    7.8694   56.7834   17.1395 C   0  0  0  0  0  0
    7.0218   57.9362   16.8328 C   0  0  0  0  0  0
    5.9099   57.8918   16.3124 O   0  0  0  0  0  0
    7.5823   59.1107   17.2182 N   0  0  0  0  0  0
    7.0072   59.9352   17.0745 H   0  0  0  0  0  0
    8.7843   59.3531   17.8194 C   0  0  0  0  0  0
    9.1051   60.5093   18.0828 O   0  0  0  0  0  0
    7.4086   55.5037   16.9098 N   0  0  0  0  0  0
    8.0266   54.7586   15.7918 C   0  0  0  0  0  0
    7.0594   54.2224   14.7046 C   0  0  0  0  0  0
    6.1520   55.3151   14.1081 C   0  0  0  0  0  0
    7.8464   53.5010   13.5963 C   0  0  0  0  0  0
    6.5700   54.8842   17.7905 C   0  0  0  0  0  0
    6.3977   53.6651   17.7660 O   0  0  0  0  0  0
    5.8534   55.7469   18.8717 C   0  0  0  0  0  0
    5.3485   54.9621   20.0140 N   0  0  0  0  0  0
    4.3049   54.1124   19.9362 C   0  0  0  0  0  0
    3.5435   53.9447   18.9809 O   0  0  0  0  0  0
    4.3271   53.3211   21.2407 C   0  0  2  0  0  0
    4.6954   51.8559   20.8942 C   0  0  0  0  0  0
    3.5206   51.0761   20.2889 C   0  0  0  0  0  0
    2.3160   51.0176   21.2567 C   0  0  1  0  0  0
    1.8437   52.4865   21.4442 C   0  0  0  0  0  0
    2.9647   53.4016   21.9991 C   0  0  0  0  0  0
    1.1857   50.0075   20.8132 C   0  0  0  0  0  0
    0.5495   50.4261   19.4618 C   0  0  0  0  0  0
    1.7799   48.5854   20.6168 C   0  0  0  0  0  0
    0.0365   49.9230   21.8684 C   0  0  0  0  0  0
    0.4327   49.4876   23.2936 C   0  0  0  0  0  0
    5.3943   53.9995   21.9224 N   0  0  0  0  0  0
    5.9670   54.9766   21.2179 C   0  0  0  0  0  0
    6.7298   55.8329   21.6606 O   0  0  0  0  0  0
    9.9117   55.9350   18.0818 N   0  0  0  0  0  0
   14.4344   60.1765   19.9926 H   0  0  0  0  0  0
   13.3001   60.9910   18.9258 H   0  0  0  0  0  0
   12.7096   60.0970   20.3264 H   0  0  0  0  0  0
   13.5342   57.9420   19.2817 H   0  0  0  0  0  0
   14.1781   58.8386   17.9389 H   0  0  0  0  0  0
   12.1121   57.8015   17.2488 H   0  0  0  0  0  0
   11.8841   59.5328   17.2571 H   0  0  0  0  0  0
   10.7177   59.3764   19.4605 H   0  0  0  0  0  0
   10.9876   57.6966   19.5444 H   0  0  0  0  0  0
    8.7544   55.4043   15.2984 H   0  0  0  0  0  0
    8.6040   53.9305   16.2046 H   0  0  0  0  0  0
    6.4135   53.4706   15.1627 H   0  0  0  0  0  0
    6.7351   56.1377   13.6919 H   0  0  0  0  0  0
    5.5224   54.9171   13.3106 H   0  0  0  0  0  0
    5.4824   55.7276   14.8631 H   0  0  0  0  0  0
    8.5170   54.1833   13.0720 H   0  0  0  0  0  0
    8.4518   52.6902   14.0041 H   0  0  0  0  0  0
    7.1773   53.0627   12.8548 H   0  0  0  0  0  0
    5.0000   56.2238   18.3878 H   0  0  0  0  0  0
    6.4959   56.5491   19.2314 H   0  0  0  0  0  0
    5.1001   51.3614   21.7786 H   0  0  0  0  0  0
    5.5645   51.8198   20.2328 H   0  0  0  0  0  0
    3.9044   50.0961   20.0795 H   0  0  0  0  0  0
    3.2319   51.4467   19.3054 H   0  0  0  0  0  0
    2.7044   50.6760   22.2167 H   0  0  0  0  0  0
    1.4619   52.8843   20.5040 H   0  0  0  0  0  0
    0.9964   52.5299   22.1257 H   0  0  0  0  0  0
    2.6354   54.4391   22.0827 H   0  0  0  0  0  0
    3.1490   53.1656   23.0489 H   0  0  0  0  0  0
    1.2859   50.4827   18.6587 H   0  0  0  0  0  0
   -0.2077   49.7097   19.1404 H   0  0  0  0  0  0
    0.0556   51.3960   19.5209 H   0  0  0  0  0  0
    2.4195   48.5186   19.7348 H   0  0  0  0  0  0
    2.3865   48.2792   21.4701 H   0  0  0  0  0  0
    0.9975   47.8365   20.4803 H   0  0  0  0  0  0
   -0.7208   49.2223   21.5121 H   0  0  0  0  0  0
   -0.4885   50.8757   21.9283 H   0  0  0  0  0  0
   -0.4453   49.4317   23.9368 H   0  0  0  0  0  0
    1.1226   50.1896   23.7583 H   0  0  0  0  0  0
    0.8975   48.5009   23.3044 H   0  0  0  0  0  0
    5.8398   53.5802   22.7242 H   0  0  0  0  0  0
    9.6555   54.9817   17.8693 H   0  0  0  0  0  0
   10.6852   56.0634   18.7258 H   0  0  0  0  0  0
  1  2  1  0  0  0
  1 40  1  0  0  0
  1 41  1  0  0  0
  1 42  1  0  0  0
  2  3  1  0  0  0
  2 43  1  0  0  0
  2 44  1  0  0  0
  3  4  1  0  0  0
  3 45  1  0  0  0
  3 46  1  0  0  0
  4  5  1  0  0  0
  4 47  1  0  0  0
  4 48  1  0  0  0
  5 12  1  0  0  0
  5  6  1  0  0  0
  6  7  2  0  0  0
  6 39  1  0  0  0
  7  8  1  0  0  0
  7 14  1  0  0  0
  8  9  2  0  0  0
  8 10  1  0  0  0
 10 11  1  0  0  0
 10 12  1  0  0  0
 12 13  2  0  0  0
 14 15  1  0  0  0
 14 19  1  0  0  0
 15 16  1  0  0  0
 15 49  1  0  0  0
 15 50  1  0  0  0
 16 17  1  0  0  0
 16 18  1  0  0  0
 16 51  1  0  0  0
 17 52  1  0  0  0
 17 53  1  0  0  0
 17 54  1  0  0  0
 18 55  1  0  0  0
 18 56  1  0  0  0
 18 57  1  0  0  0
 19 20  2  0  0  0
 19 21  1  0  0  0
 21 22  1  0  0  0
 21 58  1  0  0  0
 21 59  1  0  0  0
 22 37  1  0  0  0
 22 23  1  0  0  0
 23 24  2  0  0  0
 23 25  1  0  0  0
 25 30  1  0  0  0
 25 26  1  0  0  0
 25 36  1  0  0  0
 26 27  1  0  0  0
 26 60  1  0  0  0
 26 61  1  0  0  0
 27 28  1  0  0  0
 27 62  1  0  0  0
 27 63  1  0  0  0
 28 29  1  0  0  0
 28 31  1  0  0  0
 28 64  1  0  0  0
 29 30  1  0  0  0
 29 65  1  0  0  0
 29 66  1  0  0  0
 30 67  1  0  0  0
 30 68  1  0  0  0
 31 32  1  0  0  0
 31 33  1  0  0  0
 31 34  1  0  0  0
 32 69  1  0  0  0
 32 70  1  0  0  0
 32 71  1  0  0  0
 33 72  1  0  0  0
 33 73  1  0  0  0
 33 74  1  0  0  0
 34 35  1  0  0  0
 34 75  1  0  0  0
 34 76  1  0  0  0
 35 77  1  0  0  0
 35 78  1  0  0  0
 35 79  1  0  0  0
 36 37  1  0  0  0
 36 80  1  0  0  0
 37 38  2  0  0  0
 39 81  1  0  0  0
 39 82  1  0  0  0
M  END
> <i_i_glide_confnum>
34

> <i_i_glide_lignum>
3127

> <i_i_glide_posenum>
38

> <i_i_glide_rotatable_bonds>
11

> <i_m_Source_File_Index>
2413

> <b_m_subgroup_collapsed>
0

> <r_i_docking_score>
-3.34504

> <r_i_glide_ecoul>
-5.56418

> <r_i_glide_eff_state_penalty>
0

> <r_i_glide_einternal>
15.1283

> <r_i_glide_emodel>
-39.4132

> <r_i_glide_energy>
-38.6639

> <r_i_glide_erotb>
0.581584

> <r_i_glide_esite>
-0.156609

> <r_i_glide_evdw>
-33.0997

> <r_i_glide_gscore>
-3.34504

> <r_i_glide_hbond>
-0.589241

> <r_i_glide_ligand_efficiency>
-0.0880274

> <r_i_glide_ligand_efficiency_ln>
-0.721289

> <r_i_glide_ligand_efficiency_sa>
-0.295946

> <r_i_glide_lipo>
-0.324798

> <r_i_glide_metal>
0

> <r_i_glide_rewards>
-0.366366

> <s_i_glide_gridfile>
wee1_glide-grid

> <s_m_Source_File>
wee1_decoys_glide_SP.sdf

> <s_m_Source_Path>
/Users/zhangxujun/Desktop

> <s_m_entry_id>
2688

> <s_m_entry_name>
wee1_decoys_glide_SP.2413

> <s_m_subgroup_title>
wee1_decoys_glide_SP

> <s_m_subgroupid>
wee1_decoys_glide_SP


$$$$
