ZINC12250161_428
                    3D
 Schrodinger Suite 2024-2.
 62 65  0  0  1  0            999 V2000
    1.7361   53.9695   23.9186 C   0  0  0  0  0  0
    3.1834   54.0708   24.3894 C   0  0  0  0  0  0
    3.4403   54.1112   25.7632 C   0  0  0  0  0  0
    4.7422   54.2422   26.2376 C   0  0  0  0  0  0
    5.8023   54.3301   25.3410 C   0  0  0  0  0  0
    5.5780   54.2589   23.9630 C   0  0  0  0  0  0
    4.2585   54.1007   23.4791 C   0  0  0  0  0  0
    3.9684   54.0038   22.1043 N   0  0  0  0  0  0
    4.3822   53.0026   21.3021 C   0  0  0  0  0  0
    5.1044   52.0788   21.6802 O   0  0  0  0  0  0
    3.8690   53.0837   19.9474 C   0  0  0  0  0  0
    3.1954   52.0427   19.3808 C   0  0  0  0  0  0
    2.7046   52.1498   18.1007 N   0  0  0  0  0  0
    2.8542   53.2548   17.2988 C   0  0  0  0  0  0
    3.5036   54.3484   17.7558 C   0  0  0  0  0  0
    4.1162   54.4120   19.1692 C   0  0  2  0  0  0
    3.5682   55.1993   19.6805 H   0  0  0  0  0  0
    5.5852   54.8110   19.0907 C   0  0  0  0  0  0
    6.3048   55.9230   19.5101 C   0  0  0  0  0  0
    7.6339   55.7182   19.1346 C   0  0  0  0  0  0
    7.6665   54.4973   18.4842 C   0  0  0  0  0  0
    6.4281   53.9424   18.4695 O   0  0  0  0  0  0
    3.6679   55.4865   16.9083 C   0  0  0  0  0  0
    3.7953   56.4286   16.2489 N   0  0  0  0  0  0
    2.1203   53.0992   15.6664 S   0  0  0  0  0  0
    2.1466   51.3191   15.2493 C   0  0  0  0  0  0
    1.0620   50.5002   15.9570 C   0  0  0  0  0  0
   -0.1200   50.7985   15.7897 O   0  0  0  0  0  0
    1.5044   49.4891   16.7321 N   0  0  0  0  0  0
    0.7827   48.6246   17.5725 C   0  0  0  0  0  0
    1.4790   47.5063   18.0363 C   0  0  0  0  0  0
    0.8522   46.5961   18.8824 C   0  0  0  0  0  0
   -0.4641   46.8124   19.2806 C   0  0  0  0  0  0
   -1.1631   47.9319   18.8362 C   0  0  0  0  0  0
   -0.5427   48.8406   17.9831 C   0  0  0  0  0  0
    2.8446   50.6953   20.0086 C   0  0  0  0  0  0
    6.7815   54.4164   23.0440 C   0  0  0  0  0  0
    1.0468   53.7809   24.7422 H   0  0  0  0  0  0
    1.4400   54.8912   23.4156 H   0  0  0  0  0  0
    1.6222   53.1504   23.2078 H   0  0  0  0  0  0
    2.6263   54.0608   26.4721 H   0  0  0  0  0  0
    4.9291   54.2847   27.3007 H   0  0  0  0  0  0
    6.8060   54.4455   25.7226 H   0  0  0  0  0  0
    3.2362   54.5997   21.7494 H   0  0  0  0  0  0
    2.2853   51.3259   17.6977 H   0  0  0  0  0  0
    5.9059   56.7833   20.0256 H   0  0  0  0  0  0
    8.4716   56.3794   19.3036 H   0  0  0  0  0  0
    8.4538   53.9193   18.0220 H   0  0  0  0  0  0
    3.1462   50.9155   15.4149 H   0  0  0  0  0  0
    1.9519   51.2323   14.1808 H   0  0  0  0  0  0
    2.5091   49.2971   16.6907 H   0  0  0  0  0  0
    2.5061   47.3386   17.7403 H   0  0  0  0  0  0
    1.3886   45.7295   19.2362 H   0  0  0  0  0  0
   -0.9451   46.1086   19.9436 H   0  0  0  0  0  0
   -2.1818   48.0976   19.1539 H   0  0  0  0  0  0
   -1.1041   49.7061   17.6685 H   0  0  0  0  0  0
    1.7695   50.5176   19.9564 H   0  0  0  0  0  0
    3.3450   49.8928   19.4641 H   0  0  0  0  0  0
    3.1310   50.6091   21.0559 H   0  0  0  0  0  0
    7.4940   55.1249   23.4655 H   0  0  0  0  0  0
    7.2872   53.4611   22.9098 H   0  0  0  0  0  0
    6.5059   54.8179   22.0706 H   0  0  0  0  0  0
  1  2  1  0  0  0
  1 38  1  0  0  0
  1 39  1  0  0  0
  1 40  1  0  0  0
  2  7  2  0  0  0
  2  3  1  0  0  0
  3  4  2  0  0  0
  3 41  1  0  0  0
  4  5  1  0  0  0
  4 42  1  0  0  0
  5  6  2  0  0  0
  5 43  1  0  0  0
  6  7  1  0  0  0
  6 37  1  0  0  0
  7  8  1  0  0  0
  8  9  1  0  0  0
  8 44  1  0  0  0
  9 10  2  0  0  0
  9 11  1  0  0  0
 11 16  1  0  0  0
 11 12  2  0  0  0
 12 13  1  0  0  0
 12 36  1  0  0  0
 13 14  1  0  0  0
 13 45  1  0  0  0
 14 15  2  0  0  0
 14 25  1  0  0  0
 15 16  1  0  0  0
 15 23  1  0  0  0
 16 17  1  0  0  0
 16 18  1  0  0  0
 18 22  1  0  0  0
 18 19  2  0  0  0
 19 20  1  0  0  0
 19 46  1  0  0  0
 20 21  2  0  0  0
 20 47  1  0  0  0
 21 22  1  0  0  0
 21 48  1  0  0  0
 23 24  3  0  0  0
 25 26  1  0  0  0
 26 27  1  0  0  0
 26 49  1  0  0  0
 26 50  1  0  0  0
 27 28  2  0  0  0
 27 29  1  0  0  0
 29 30  1  0  0  0
 29 51  1  0  0  0
 30 35  2  0  0  0
 30 31  1  0  0  0
 31 32  2  0  0  0
 31 52  1  0  0  0
 32 33  1  0  0  0
 32 53  1  0  0  0
 33 34  2  0  0  0
 33 54  1  0  0  0
 34 35  1  0  0  0
 34 55  1  0  0  0
 35 56  1  0  0  0
 36 57  1  0  0  0
 36 58  1  0  0  0
 36 59  1  0  0  0
 37 60  1  0  0  0
 37 61  1  0  0  0
 37 62  1  0  0  0
M  END
> <i_i_glide_confnum>
1

> <i_i_glide_lignum>
429

> <i_i_glide_posenum>
53

> <i_i_glide_rotatable_bonds>
10

> <i_m_Source_File_Index>
273

> <b_m_subgroup_collapsed>
0

> <r_i_docking_score>
-5.30175

> <r_i_glide_ecoul>
-7.16136

> <r_i_glide_eff_state_penalty>
0

> <r_i_glide_einternal>
11.6512

> <r_i_glide_emodel>
-56.097

> <r_i_glide_energy>
-45.7788

> <r_i_glide_erotb>
0.656707

> <r_i_glide_esite>
-0.212883

> <r_i_glide_evdw>
-38.6175

> <r_i_glide_gscore>
-5.30175

> <r_i_glide_hbond>
-0.16

> <r_i_glide_ligand_efficiency>
-0.147271

> <r_i_glide_ligand_efficiency_ln>
-1.1567

> <r_i_glide_ligand_efficiency_sa>
-0.486277

> <r_i_glide_lipo>
-2.29138

> <r_i_glide_metal>
0

> <r_i_glide_rewards>
-0.289113

> <s_i_glide_gridfile>
wee1_glide-grid

> <s_m_Source_File>
wee1_decoys_glide_SP.sdf

> <s_m_Source_Path>
/Users/zhangxujun/Desktop

> <s_m_entry_id>
548

> <s_m_entry_name>
wee1_decoys_glide_SP.273

> <s_m_subgroup_title>
wee1_decoys_glide_SP

> <s_m_subgroupid>
wee1_decoys_glide_SP


$$$$
