ZINC12847038_3240
                    3D
 Schrodinger Suite 2024-2.
 55 59  0  0  1  0            999 V2000
    6.1584   53.6154   16.9751 C   0  0  0  0  0  0
    7.3121   54.3432   16.6867 C   0  0  0  0  0  0
    7.8895   55.1656   17.6632 C   0  0  0  0  0  0
    7.2947   55.2433   18.9263 C   0  0  0  0  0  0
    6.1394   54.5027   19.2304 C   0  0  0  0  0  0
    5.5743   53.6964   18.2389 C   0  0  0  0  0  0
    5.5085   54.4798   20.4888 N   0  0  0  0  0  0
    5.9937   54.8962   21.6819 C   0  0  0  0  0  0
    7.0429   55.5211   21.8500 O   0  0  0  0  0  0
    5.1934   54.4966   22.8157 C   0  0  0  0  0  0
    5.6478   54.4974   24.1441 C   0  0  0  0  0  0
    4.5528   54.2173   24.9300 C   0  0  0  0  0  0
    3.5187   53.9664   24.0494 N   0  0  0  0  0  0
    3.9121   54.1750   22.7791 N   0  0  0  0  0  0
    2.1102   53.7532   24.4090 C   0  0  2  0  0  0
    1.6304   54.7298   24.3592 H   0  0  0  0  0  0
    2.0779   53.2780   25.8816 C   0  0  0  0  0  0
    3.0288   54.0515   26.8319 C   0  0  2  0  0  0
    2.7046   55.0882   26.9147 H   0  0  0  0  0  0
    4.3955   54.1045   26.2958 N   0  0  0  0  0  0
    2.9136   53.5241   28.2653 C   0  0  0  0  0  0
    3.9534   52.7826   28.8712 C   0  0  0  0  0  0
    3.8180   52.2644   30.1632 C   0  0  0  0  0  0
    2.6159   52.4936   30.8205 C   0  0  0  0  0  0
    1.6085   53.2182   30.2524 C   0  0  0  0  0  0
    1.7259   53.7637   28.9804 C   0  0  0  0  0  0
    0.5802   53.3236   31.1318 O   0  0  0  0  0  0
    0.8931   52.4445   32.1801 C   0  0  0  0  0  0
    2.2460   52.0966   32.0643 O   0  0  0  0  0  0
    1.3252   52.8156   23.4523 C   0  0  0  0  0  0
    0.0686   52.6621   23.8697 F   0  0  0  0  0  0
    1.2644   53.2954   22.2112 F   0  0  0  0  0  0
    1.8716   51.6000   23.3903 F   0  0  0  0  0  0
    9.1584   55.9765   17.4105 C   0  0  0  0  0  0
    9.7211   55.9134   15.9789 C   0  0  0  0  0  0
   10.9275   56.7387   15.8127 C   0  0  0  0  0  0
   11.8750   57.3901   15.6834 N   0  0  0  0  0  0
    5.7215   52.9704   16.2257 H   0  0  0  0  0  0
    7.7497   54.2503   15.7027 H   0  0  0  0  0  0
    7.7609   55.8875   19.6547 H   0  0  0  0  0  0
    4.6945   53.1027   18.4426 H   0  0  0  0  0  0
    4.6277   53.9886   20.5157 H   0  0  0  0  0  0
    6.6481   54.7259   24.4831 H   0  0  0  0  0  0
    1.0535   53.3266   26.2477 H   0  0  0  0  0  0
    2.3042   52.2142   25.9252 H   0  0  0  0  0  0
    4.9962   54.6536   26.8945 H   0  0  0  0  0  0
    4.8707   52.5855   28.3336 H   0  0  0  0  0  0
    4.6188   51.7003   30.6194 H   0  0  0  0  0  0
    0.9188   54.3353   28.5454 H   0  0  0  0  0  0
    0.3043   51.5375   32.0820 H   0  0  0  0  0  0
    0.6717   52.8959   33.1474 H   0  0  0  0  0  0
    9.9218   55.6267   18.1105 H   0  0  0  0  0  0
    8.9486   57.0182   17.6662 H   0  0  0  0  0  0
    8.9824   56.2689   15.2569 H   0  0  0  0  0  0
    9.9919   54.8907   15.7146 H   0  0  0  0  0  0
  1  6  2  0  0  0
  1  2  1  0  0  0
  1 38  1  0  0  0
  2  3  2  0  0  0
  2 39  1  0  0  0
  3  4  1  0  0  0
  3 34  1  0  0  0
  4  5  2  0  0  0
  4 40  1  0  0  0
  5  6  1  0  0  0
  5  7  1  0  0  0
  6 41  1  0  0  0
  7  8  1  0  0  0
  7 42  1  0  0  0
  8  9  2  0  0  0
  8 10  1  0  0  0
 10 14  2  0  0  0
 10 11  1  0  0  0
 11 12  2  0  0  0
 11 43  1  0  0  0
 12 20  1  0  0  0
 12 13  1  0  0  0
 13 14  1  0  0  0
 13 15  1  0  0  0
 15 16  1  0  0  0
 15 17  1  0  0  0
 15 30  1  0  0  0
 17 18  1  0  0  0
 17 44  1  0  0  0
 17 45  1  0  0  0
 18 19  1  0  0  0
 18 20  1  0  0  0
 18 21  1  0  0  0
 20 46  1  0  0  0
 21 26  2  0  0  0
 21 22  1  0  0  0
 22 23  2  0  0  0
 22 47  1  0  0  0
 23 24  1  0  0  0
 23 48  1  0  0  0
 24 29  1  0  0  0
 24 25  2  0  0  0
 25 26  1  0  0  0
 25 27  1  0  0  0
 26 49  1  0  0  0
 27 28  1  0  0  0
 28 29  1  0  0  0
 28 50  1  0  0  0
 28 51  1  0  0  0
 30 31  1  0  0  0
 30 32  1  0  0  0
 30 33  1  0  0  0
 34 35  1  0  0  0
 34 52  1  0  0  0
 34 53  1  0  0  0
 35 36  1  0  0  0
 35 54  1  0  0  0
 35 55  1  0  0  0
 36 37  3  0  0  0
M  END
> <i_i_glide_confnum>
56

> <i_i_glide_lignum>
3241

> <i_i_glide_posenum>
208

> <i_i_glide_rotatable_bonds>
8

> <i_m_Source_File_Index>
510

> <b_m_subgroup_collapsed>
0

> <r_i_docking_score>
-5.63149

> <r_i_glide_ecoul>
-2.34054

> <r_i_glide_eff_state_penalty>
0

> <r_i_glide_einternal>
4.0608

> <r_i_glide_emodel>
-56.7966

> <r_i_glide_energy>
-43.5804

> <r_i_glide_erotb>
0.521164

> <r_i_glide_esite>
-0.101622

> <r_i_glide_evdw>
-41.2398

> <r_i_glide_gscore>
-5.63149

> <r_i_glide_hbond>
-0.0420128

> <r_i_glide_ligand_efficiency>
-0.1609

> <r_i_glide_ligand_efficiency_ln>
-1.23624

> <r_i_glide_ligand_efficiency_sa>
-0.526314

> <r_i_glide_lipo>
-2.473

> <r_i_glide_metal>
0

> <r_i_glide_rewards>
-1.12295

> <s_i_glide_gridfile>
wee1_glide-grid

> <s_m_Source_File>
wee1_decoys_glide_SP.sdf

> <s_m_Source_Path>
/Users/zhangxujun/Desktop

> <s_m_entry_id>
785

> <s_m_entry_name>
wee1_decoys_glide_SP.510

> <s_m_subgroup_title>
wee1_decoys_glide_SP

> <s_m_subgroupid>
wee1_decoys_glide_SP


$$$$
