@<TRIPOS>MOLECULE
ZINC39652855_3672
68   71    1
SMALL
USER_CHARGES


@<TRIPOS>ATOM
      1 C1          6.0979   54.3817   23.5022 C.ar      1 UNK         0.0000 
      2 C2          6.7054   54.3621   24.7541 C.ar      1 UNK         0.0000 
      3 C3          5.9312   54.2075   25.9018 C.ar      1 UNK         0.0000 
      4 C4          4.5453   54.0972   25.8086 C.ar      1 UNK         0.0000 
      5 C5          3.9336   54.1389   24.5581 C.ar      1 UNK         0.0000 
      6 C6          4.7087   54.2731   23.4011 C.ar      1 UNK         0.0000 
      7 C7          4.0360   54.3924   22.0346 C.3       1 UNK         0.0000 
      8 C8          3.7406   53.0614   21.3036 C.3       1 UNK         0.0000 
      9 N9          2.9878   52.0756   22.0821 N.am      1 UNK         0.0000 
     10 C10         1.7549   52.2537   22.5840 C.2       1 UNK         0.0000 
     11 O11         1.1192   53.2951   22.4367 O.2       1 UNK         0.0000 
     12 C12         1.1901   51.1260   23.4696 C.3       1 UNK         0.0000 
     13 H13         1.9942   50.4217   23.6941 H         1 UNK         0.0000 
     14 C14         0.7721   51.7817   24.8056 C.3       1 UNK         0.0000 
     15 N15        -0.4233   51.0470   25.2053 N.am      1 UNK         0.0000 
     16 C16        -0.7976   50.0091   24.2471 C.3       1 UNK         0.0000 
     17 C17        -0.0659   50.3706   22.9358 C.3       1 UNK         0.0000 
     18 C18         0.2646   49.0753   22.1624 C.3       1 UNK         0.0000 
     19 C19         0.8546   49.3332   20.7666 C.3       1 UNK         0.0000 
     20 N20        -0.2092   50.0779   19.9392 N.4       1 UNK         0.0000 
     21 C21        -0.6732   51.4030   20.5807 C.3       1 UNK         0.0000 
     22 C22        -1.0859   51.1795   22.0619 C.3       1 UNK         0.0000 
     23 C23        -1.1682   51.3325   26.2991 C.2       1 UNK         0.0000 
     24 O24        -2.2737   50.8229   26.4836 O.2       1 UNK         0.0000 
     25 C25        -0.6300   52.3316   27.3457 C.3       1 UNK         0.0000 
     26 C26        -0.9201   51.9029   28.8056 C.3       1 UNK         0.0000 
     27 C27        -0.0704   52.5797   29.9048 C.3       1 UNK         0.0000 
     28 C28         1.4259   52.1856   29.9303 C.3       1 UNK         0.0000 
     29 C29         2.2172   53.4982   29.9146 C.3       1 UNK         0.0000 
     30 C30         1.2365   54.5275   30.4776 C.3       1 UNK         0.0000 
     31 C31        -0.0848   54.1145   29.8645 C.3       1 UNK         0.0000 
     32 Br32        6.7766   54.1390   27.6055 Br        1 UNK         0.0000 
     33 H33         6.7061   54.5077   22.6183 H         1 UNK         0.0000 
     34 H34         7.7757   54.4669   24.8324 H         1 UNK         0.0000 
     35 H35         3.9485   53.9832   26.7012 H         1 UNK         0.0000 
     36 H36         2.8570   54.0818   24.4918 H         1 UNK         0.0000 
     37 H37         4.6426   55.0254   21.3867 H         1 UNK         0.0000 
     38 H38         3.1063   54.9492   22.1543 H         1 UNK         0.0000 
     39 H39         4.6919   52.5656   21.1062 H         1 UNK         0.0000 
     40 H40         3.2547   53.2413   20.3419 H         1 UNK         0.0000 
     41 H41         3.4547   51.1995   22.2581 H         1 UNK         0.0000 
     42 H42         0.4375   52.8140   24.6782 H         1 UNK         0.0000 
     43 H43         1.5657   51.6976   25.5465 H         1 UNK         0.0000 
     44 H44        -0.3583   49.0874   24.6321 H         1 UNK         0.0000 
     45 H45        -1.8646   49.8210   24.1154 H         1 UNK         0.0000 
     46 H46         0.9649   48.4967   22.7622 H         1 UNK         0.0000 
     47 H47        -0.6254   48.4505   22.0671 H         1 UNK         0.0000 
     48 H48         1.7524   49.9522   20.7734 H         1 UNK         0.0000 
     49 H49         1.0689   48.4096   20.2269 H         1 UNK         0.0000 
     50 H50         0.1557   50.2606   19.0127 H         1 UNK         0.0000 
     51 H51         0.1549   52.0967   20.4432 H         1 UNK         0.0000 
     52 H52        -1.5053   51.7599   19.9734 H         1 UNK         0.0000 
     53 H53        -2.0339   50.6390   22.0317 H         1 UNK         0.0000 
     54 H54        -1.3337   52.1256   22.5465 H         1 UNK         0.0000 
     55 H55        -1.0934   53.2956   27.1419 H         1 UNK         0.0000 
     56 H56         0.4436   52.4693   27.2363 H         1 UNK         0.0000 
     57 H57        -0.7881   50.8270   28.9075 H         1 UNK         0.0000 
     58 H58        -1.9731   52.0857   29.0202 H         1 UNK         0.0000 
     59 H59        -0.4783   52.2747   30.8732 H         1 UNK         0.0000 
     60 H60         1.7192   51.5128   29.1221 H         1 UNK         0.0000 
     61 H61         1.6488   51.6967   30.8792 H         1 UNK         0.0000 
     62 H62         2.4852   53.7605   28.8895 H         1 UNK         0.0000 
     63 H63         3.1449   53.4334   30.4838 H         1 UNK         0.0000 
     64 H64         1.5112   55.5573   30.2429 H         1 UNK         0.0000 
     65 H65         1.1043   54.4402   31.5574 H         1 UNK         0.0000 
     66 H66        -0.8954   54.5481   30.4349 H         1 UNK         0.0000 
     67 H67        -0.0956   54.4962   28.8438 H         1 UNK         0.0000 
     68 H68        -1.0090   49.4711   19.8180 H         1 UNK         0.0000 
@<TRIPOS>BOND
     1    1    6 ar   
     2    1    2 ar   
     3    1   33 1    
     4    2    3 ar   
     5    2   34 1    
     6    3    4 ar   
     7    3   32 1    
     8    4    5 ar   
     9    4   35 1    
    10    5    6 ar   
    11    5   36 1    
    12    6    7 1    
    13    7    8 1    
    14    7   37 1    
    15    7   38 1    
    16    8    9 1    
    17    8   39 1    
    18    8   40 1    
    19    9   10 am   BACKBONE|DICT|INTERRES
    20    9   41 1    
    21   10   11 2    
    22   10   12 1    
    23   12   13 1    
    24   12   17 1    
    25   12   14 1    
    26   14   15 1    
    27   14   42 1    
    28   14   43 1    
    29   15   16 1    
    30   15   23 am   BACKBONE|DICT|INTERRES
    31   16   17 1    
    32   16   44 1    
    33   16   45 1    
    34   17   22 1    
    35   17   18 1    
    36   18   19 1    
    37   18   46 1    
    38   18   47 1    
    39   19   20 1    
    40   19   48 1    
    41   19   49 1    
    42   20   21 1    
    43   20   50 1    
    44   20   68 1    
    45   21   22 1    
    46   21   51 1    
    47   21   52 1    
    48   22   53 1    
    49   22   54 1    
    50   23   24 2    
    51   23   25 1    
    52   25   26 1    
    53   25   55 1    
    54   25   56 1    
    55   26   27 1    
    56   26   57 1    
    57   26   58 1    
    58   27   31 1    
    59   27   28 1    
    60   27   59 1    
    61   28   29 1    
    62   28   60 1    
    63   28   61 1    
    64   29   30 1    
    65   29   62 1    
    66   29   63 1    
    67   30   31 1    
    68   30   64 1    
    69   30   65 1    
    70   31   66 1    
    71   31   67 1    
@<TRIPOS>SUBSTRUCTURE
     1 UNK         1 GROUP             0       ****    0 ROOT    
