@<TRIPOS>MOLECULE
ZINC36013484_1040
73   76    1
SMALL
USER_CHARGES


@<TRIPOS>ATOM
      1 C1          6.9953   59.3753   18.6981 C.3       1 UNK         0.0000 
      2 C2          7.2061   57.8911   18.8392 C.3       1 UNK         0.0000 
      3 C3          8.6535   57.5025   18.4933 C.3       1 UNK         0.0000 
      4 N4          8.9625   56.1000   18.7932 N.am      1 UNK         0.0000 
      5 C5          8.9272   55.7211   20.2236 C.3       1 UNK         0.0000 
      6 C6          7.5419   55.2969   20.7359 C.2       1 UNK         0.0000 
      7 O7          6.6437   55.0179   19.9406 O.2       1 UNK         0.0000 
      8 N8          7.4165   55.2671   22.0797 N.am      1 UNK         0.0000 
      9 C9          6.3132   54.8427   22.8400 C.ar      1 UNK         0.0000 
     10 C10         6.2939   55.1914   24.1928 C.ar      1 UNK         0.0000 
     11 C11         5.2033   54.8297   24.9908 C.ar      1 UNK         0.0000 
     12 C12         4.1259   54.1042   24.4543 C.ar      1 UNK         0.0000 
     13 C13         4.1957   53.7155   23.1114 C.ar      1 UNK         0.0000 
     14 C14         5.2677   54.0752   22.3141 C.ar      1 UNK         0.0000 
     15 N15         3.0160   53.7402   25.2194 N.pl3     1 UNK         0.0000 
     16 C16         1.6754   53.5962   24.6363 C.3       1 UNK         0.0000 
     17 C17         0.9536   52.3382   25.1404 C.3       1 UNK         0.0000 
     18 N18         0.8135   52.4542   26.6047 N.am      1 UNK         0.0000 
     19 C19         2.0778   52.6352   27.3470 C.3       1 UNK         0.0000 
     20 C20         2.9686   53.7286   26.6911 C.3       1 UNK         0.0000 
     21 C21        -0.3277   52.1056   27.2742 C.2       1 UNK         0.0000 
     22 O22        -0.3576   51.9786   28.5014 O.2       1 UNK         0.0000 
     23 N23        -1.4359   52.0189   26.5018 N.am      1 UNK         0.0000 
     24 C24        -2.7619   51.7460   26.8734 C.ar      1 UNK         0.0000 
     25 C25        -3.1199   50.9520   27.9723 C.ar      1 UNK         0.0000 
     26 C26        -4.4633   50.7488   28.2851 C.ar      1 UNK         0.0000 
     27 C27        -5.4571   51.3294   27.5003 C.ar      1 UNK         0.0000 
     28 C28        -5.1130   52.1159   26.3987 C.ar      1 UNK         0.0000 
     29 C29        -3.7650   52.3084   26.0817 C.ar      1 UNK         0.0000 
     30 C30        -6.1883   52.7605   25.5522 C.3       1 UNK         0.0000 
     31 C31         9.1533   55.1491   17.8310 C.2       1 UNK         0.0000 
     32 O32         9.1306   53.9423   18.0794 O.2       1 UNK         0.0000 
     33 C33         9.4283   55.5664   16.4065 C.ar      1 UNK         0.0000 
     34 C34        10.4552   56.4726   16.1111 C.ar      1 UNK         0.0000 
     35 C35        10.7286   56.8122   14.7891 C.ar      1 UNK         0.0000 
     36 C36         9.9847   56.2373   13.7601 C.ar      1 UNK         0.0000 
     37 C37         8.9749   55.3209   14.0395 C.ar      1 UNK         0.0000 
     38 C38         8.7012   54.9789   15.3621 C.ar      1 UNK         0.0000 
     39 F39        10.2549   56.5649   12.4779 F         1 UNK         0.0000 
     40 H40         5.9957   59.6875   19.0162 H         1 UNK         0.0000 
     41 H41         7.7071   59.9423   19.2978 H         1 UNK         0.0000 
     42 H42         7.1059   59.6948   17.6616 H         1 UNK         0.0000 
     43 H43         6.5046   57.3530   18.1981 H         1 UNK         0.0000 
     44 H44         6.9431   57.6598   19.8673 H         1 UNK         0.0000 
     45 H45         9.3476   58.1299   19.0515 H         1 UNK         0.0000 
     46 H46         8.8094   57.7707   17.4480 H         1 UNK         0.0000 
     47 H47         9.6005   54.8897   20.3617 H         1 UNK         0.0000 
     48 H48         9.3480   56.4968   20.8588 H         1 UNK         0.0000 
     49 H49         8.2264   55.5396   22.6268 H         1 UNK         0.0000 
     50 H50         7.1003   55.7668   24.6251 H         1 UNK         0.0000 
     51 H51         5.1953   55.1415   26.0242 H         1 UNK         0.0000 
     52 H52         3.4323   53.1066   22.6546 H         1 UNK         0.0000 
     53 H53         5.2580   53.7245   21.2942 H         1 UNK         0.0000 
     54 H54         1.1053   54.4960   24.8860 H         1 UNK         0.0000 
     55 H55         1.6757   53.5941   23.5487 H         1 UNK         0.0000 
     56 H56         0.0045   52.2549   24.6129 H         1 UNK         0.0000 
     57 H57         1.5483   51.4623   24.8818 H         1 UNK         0.0000 
     58 H58         2.6376   51.7007   27.2777 H         1 UNK         0.0000 
     59 H59         1.9316   52.8807   28.3996 H         1 UNK         0.0000 
     60 H60         3.9738   53.6649   27.1093 H         1 UNK         0.0000 
     61 H61         2.5613   54.7037   26.9655 H         1 UNK         0.0000 
     62 H62        -1.3136   52.2373   25.5275 H         1 UNK         0.0000 
     63 H63        -2.3679   50.4966   28.5967 H         1 UNK         0.0000 
     64 H64        -4.7242   50.1385   29.1386 H         1 UNK         0.0000 
     65 H65        -6.4921   51.1711   27.7561 H         1 UNK         0.0000 
     66 H66        -3.5026   52.9207   25.2311 H         1 UNK         0.0000 
     67 H67        -7.1280   52.2104   25.6121 H         1 UNK         0.0000 
     68 H68        -6.3569   53.7840   25.8743 H         1 UNK         0.0000 
     69 H69        -5.8917   52.7703   24.5043 H         1 UNK         0.0000 
     70 H70        11.0531   56.9094   16.9008 H         1 UNK         0.0000 
     71 H71        11.5185   57.5123   14.5620 H         1 UNK         0.0000 
     72 H72         8.4129   54.8705   13.2336 H         1 UNK         0.0000 
     73 H73         7.9234   54.2556   15.5727 H         1 UNK         0.0000 
@<TRIPOS>BOND
     1    1    2 1    
     2    1   40 1    
     3    1   41 1    
     4    1   42 1    
     5    2    3 1    
     6    2   43 1    
     7    2   44 1    
     8    3    4 1    
     9    3   45 1    
    10    3   46 1    
    11    4    5 1    
    12    4   31 am   BACKBONE|DICT|INTERRES
    13    5    6 1    
    14    5   47 1    
    15    5   48 1    
    16    6    7 2    
    17    6    8 am   BACKBONE|DICT|INTERRES
    18    8    9 1    
    19    8   49 1    
    20    9   14 ar   
    21    9   10 ar   
    22   10   11 ar   
    23   10   50 1    
    24   11   12 ar   
    25   11   51 1    
    26   12   13 ar   
    27   12   15 1    
    28   13   14 ar   
    29   13   52 1    
    30   14   53 1    
    31   15   20 1    
    32   15   16 1    
    33   16   17 1    
    34   16   54 1    
    35   16   55 1    
    36   17   18 1    
    37   17   56 1    
    38   17   57 1    
    39   18   19 1    
    40   18   21 am   BACKBONE|DICT|INTERRES
    41   19   20 1    
    42   19   58 1    
    43   19   59 1    
    44   20   60 1    
    45   20   61 1    
    46   21   22 2    
    47   21   23 am   BACKBONE|DICT|INTERRES
    48   23   24 1    
    49   23   62 1    
    50   24   29 ar   
    51   24   25 ar   
    52   25   26 ar   
    53   25   63 1    
    54   26   27 ar   
    55   26   64 1    
    56   27   28 ar   
    57   27   65 1    
    58   28   29 ar   
    59   28   30 1    
    60   29   66 1    
    61   30   67 1    
    62   30   68 1    
    63   30   69 1    
    64   31   32 2    
    65   31   33 1    
    66   33   38 ar   
    67   33   34 ar   
    68   34   35 ar   
    69   34   70 1    
    70   35   36 ar   
    71   35   71 1    
    72   36   37 ar   
    73   36   39 1    
    74   37   38 ar   
    75   37   72 1    
    76   38   73 1    
@<TRIPOS>SUBSTRUCTURE
     1 UNK         1 GROUP             0       ****    0 ROOT    
