@<TRIPOS>MOLECULE
ZINC35703712_4633
64   68    1
SMALL
USER_CHARGES


@<TRIPOS>ATOM
      1 C1          2.6430   52.7391   23.0673 C.3       1 UNK         0.0000 
      2 C2          1.3968   51.9230   23.3911 C.2       1 UNK         0.0000 
      3 C3          0.7608   51.8264   24.6014 C.2       1 UNK         0.0000 
      4 C4         -0.4845   50.9090   24.7516 C.3       1 UNK         0.0000 
      5 H5         -0.3510   50.2604   25.6204 H         1 UNK         0.0000 
      6 N6         -0.5593   49.9783   23.5959 N.pl3     1 UNK         0.0000 
      7 C7         -1.4246   48.9036   23.5155 C.2       1 UNK         0.0000 
      8 C8         -1.5095   48.4317   22.2568 C.2       1 UNK         0.0000 
      9 S9         -0.4834   49.2896   21.1074 S.3       1 UNK         0.0000 
     10 C10         0.1321   50.2961   22.4306 C.2       1 UNK         0.0000 
     11 N11         1.0046   51.2175   22.2868 N.2       1 UNK         0.0000 
     12 C12        -2.1223   48.3391   24.6668 C.2       1 UNK         0.0000 
     13 C13        -2.5672   47.0829   24.8196 C.2       1 UNK         0.0000 
     14 O14        -2.5162   46.0969   23.9962 O.co2     1 UNK         0.0000 
     15 N15        -3.1783   46.7111   25.9994 N.pl3     1 UNK         0.0000 
     16 C16        -3.9461   45.5061   26.3163 C.3       1 UNK         0.0000 
     17 C17        -4.8791   45.6507   27.5325 C.3       1 UNK         0.0000 
     18 H18        -4.2728   45.7877   28.4315 H         1 UNK         0.0000 
     19 C19        -5.9078   44.5262   27.6621 C.3       1 UNK         0.0000 
     20 C20        -7.1088   45.1675   28.3348 C.3       1 UNK         0.0000 
     21 C21        -6.8644   46.6707   28.1873 C.3       1 UNK         0.0000 
     22 O22        -5.7189   46.7873   27.3485 O.3       1 UNK         0.0000 
     23 C23        -1.7820   51.7120   24.9421 C.ar      1 UNK         0.0000 
     24 C24        -2.2484   52.5350   23.9099 C.ar      1 UNK         0.0000 
     25 C25        -3.4015   53.2968   24.0817 C.ar      1 UNK         0.0000 
     26 C26        -4.1143   53.2313   25.2770 C.ar      1 UNK         0.0000 
     27 C27        -3.6602   52.4115   26.3078 C.ar      1 UNK         0.0000 
     28 C28        -2.4944   51.6639   26.1493 C.ar      1 UNK         0.0000 
     29 F29        -2.0574   50.9081   27.1796 F         1 UNK         0.0000 
     30 C30         1.1172   52.6218   25.7878 C.2       1 UNK         0.0000 
     31 O31         1.7186   53.6954   25.7290 O.2       1 UNK         0.0000 
     32 O32         0.6569   52.0612   26.9444 O.3       1 UNK         0.0000 
     33 C33         0.5224   52.7633   28.1800 C.3       1 UNK         0.0000 
     34 C34         1.8288   53.3535   28.6796 C.ar      1 UNK         0.0000 
     35 C35         2.9541   52.5438   28.8477 C.ar      1 UNK         0.0000 
     36 C36         4.1671   53.1197   29.2114 C.ar      1 UNK         0.0000 
     37 C37         4.2394   54.4967   29.4163 C.ar      1 UNK         0.0000 
     38 C38         3.1043   55.2966   29.2817 C.ar      1 UNK         0.0000 
     39 C39         1.8966   54.7248   28.9142 C.ar      1 UNK         0.0000 
     40 H40         3.2594   52.9073   23.9490 H         1 UNK         0.0000 
     41 H41         3.2829   52.2339   22.3398 H         1 UNK         0.0000 
     42 H42         2.3572   53.7050   22.6483 H         1 UNK         0.0000 
     43 H43        -2.1101   47.5975   21.9283 H         1 UNK         0.0000 
     44 H44        -2.2937   48.9989   25.5037 H         1 UNK         0.0000 
     45 H45        -2.8589   47.2004   26.8275 H         1 UNK         0.0000 
     46 H46        -3.2412   44.6981   26.5102 H         1 UNK         0.0000 
     47 H47        -4.5338   45.2247   25.4410 H         1 UNK         0.0000 
     48 H48        -5.5027   43.6325   28.1351 H         1 UNK         0.0000 
     49 H49        -6.1965   44.1840   26.6667 H         1 UNK         0.0000 
     50 H50        -7.1957   44.8962   29.3871 H         1 UNK         0.0000 
     51 H51        -8.0378   44.8684   27.8452 H         1 UNK         0.0000 
     52 H52        -6.6576   47.1467   29.1479 H         1 UNK         0.0000 
     53 H53        -7.7122   47.1961   27.7446 H         1 UNK         0.0000 
     54 H54        -1.7052   52.5956   22.9783 H         1 UNK         0.0000 
     55 H55        -3.7379   53.9415   23.2840 H         1 UNK         0.0000 
     56 H56        -5.0140   53.8161   25.4047 H         1 UNK         0.0000 
     57 H57        -4.2042   52.3590   27.2396 H         1 UNK         0.0000 
     58 H58        -0.2320   53.5434   28.0647 H         1 UNK         0.0000 
     59 H59         0.1403   52.0726   28.9330 H         1 UNK         0.0000 
     60 H60         2.8933   51.4824   28.6514 H         1 UNK         0.0000 
     61 H61         5.0506   52.5065   29.3110 H         1 UNK         0.0000 
     62 H62         5.1858   54.9477   29.6830 H         1 UNK         0.0000 
     63 H63         3.1450   56.3622   29.4460 H         1 UNK         0.0000 
     64 H64         1.0282   55.3535   28.7773 H         1 UNK         0.0000 
@<TRIPOS>BOND
     1    1    2 1    
     2    1   40 1    
     3    1   41 1    
     4    1   42 1    
     5    2   11 1    
     6    2    3 2    
     7    3    4 1    
     8    3   30 1    
     9    4    5 1    
    10    4    6 1    
    11    4   23 1    
    12    6   10 1    
    13    6    7 1    
    14    7    8 2    
    15    7   12 1    
    16    8    9 1    
    17    8   43 1    
    18    9   10 1    
    19   10   11 2    
    20   12   13 2    
    21   12   44 1    
    22   13   14 1    
    23   13   15 1    
    24   15   16 1    
    25   15   45 1    
    26   16   17 1    
    27   16   46 1    
    28   16   47 1    
    29   17   18 1    
    30   17   22 1    
    31   17   19 1    
    32   19   20 1    
    33   19   48 1    
    34   19   49 1    
    35   20   21 1    
    36   20   50 1    
    37   20   51 1    
    38   21   22 1    
    39   21   52 1    
    40   21   53 1    
    41   23   28 ar   
    42   23   24 ar   
    43   24   25 ar   
    44   24   54 1    
    45   25   26 ar   
    46   25   55 1    
    47   26   27 ar   
    48   26   56 1    
    49   27   28 ar   
    50   27   57 1    
    51   28   29 1    
    52   30   31 2    
    53   30   32 1    
    54   32   33 1    
    55   33   34 1    
    56   33   58 1    
    57   33   59 1    
    58   34   39 ar   
    59   34   35 ar   
    60   35   36 ar   
    61   35   60 1    
    62   36   37 ar   
    63   36   61 1    
    64   37   38 ar   
    65   37   62 1    
    66   38   39 ar   
    67   38   63 1    
    68   39   64 1    
@<TRIPOS>SUBSTRUCTURE
     1 UNK         1 GROUP             0       ****    0 ROOT    
