ZINC40072858_200
                    3D
 Schrodinger Suite 2024-2.
 62 67  0  0  1  0            999 V2000
   11.2185   51.2883   14.6447 C   0  0  0  0  0  0
   10.4125   50.3771   13.8473 C   0  0  0  0  0  0
    9.0569   50.4655   13.7994 C   0  0  0  0  0  0
    8.3831   51.4538   14.5310 C   0  0  0  0  0  0
    7.0928   51.6955   14.6125 N   0  3  0  0  0  0
    6.8332   52.8035   15.5463 C   0  0  0  0  0  0
    8.2438   53.1905   15.9340 C   0  0  0  0  0  0
    9.1094   52.3547   15.3210 C   0  0  0  0  0  0
   10.5804   52.2430   15.3517 C   0  0  0  0  0  0
    8.5720   54.2584   16.8497 C   0  0  0  0  0  0
    9.5494   54.1885   17.6417 N   0  0  0  0  0  0
    9.5048   55.3552   18.3965 N   0  0  0  0  0  0
    8.4302   56.2487   17.9914 C   0  0  1  0  0  0
    8.8475   57.1752   17.5962 H   0  0  0  0  0  0
    7.8738   55.4465   16.9097 N   0  0  0  0  0  0
    7.0509   56.0008   15.8262 C   0  0  0  0  0  0
    5.5548   56.0895   16.0802 C   0  0  0  0  0  0
    6.3643   57.3468   16.0053 C   0  0  0  0  0  0
    7.2302   56.6868   19.2957 S   0  0  0  0  0  0
    7.7069   55.5916   20.6814 C   0  0  0  0  0  0
    6.5819   55.2970   21.6712 C   0  0  0  0  0  0
    5.4214   55.2803   21.2734 O   0  0  0  0  0  0
    6.9621   55.0317   22.9376 N   0  0  0  0  0  0
    6.1721   54.7067   24.0590 C   0  0  0  0  0  0
    6.8461   54.6888   25.2754 C   0  0  0  0  0  0
    6.1778   54.3965   26.4578 C   0  0  0  0  0  0
    4.8097   54.0964   26.4455 C   0  0  0  0  0  0
    4.1304   54.1114   25.2212 C   0  0  0  0  0  0
    4.8008   54.4079   24.0354 C   0  0  0  0  0  0
    4.1381   53.7808   27.6373 N   0  0  0  0  0  0
    4.7607   53.5622   28.9460 C   0  0  0  0  0  0
    3.7499   52.8153   29.8140 C   0  0  0  0  0  0
    2.4260   53.3076   29.2665 C   0  0  0  0  0  0
    2.7231   53.4285   27.7753 C   0  0  0  0  0  0
   12.2958   51.2006   14.6667 H   0  0  0  0  0  0
   10.9150   49.6039   13.2818 H   0  0  0  0  0  0
    8.5148   49.7542   13.1937 H   0  0  0  0  0  0
    6.2383   52.4182   16.3784 H   0  0  0  0  0  0
    6.2762   53.5702   15.0078 H   0  0  0  0  0  0
   11.1853   52.9193   15.9375 H   0  0  0  0  0  0
   10.4337   55.6965   18.6169 H   0  0  0  0  0  0
    7.4069   55.7628   14.8211 H   0  0  0  0  0  0
    4.8687   55.8522   15.2643 H   0  0  0  0  0  0
    5.1689   55.7691   17.0520 H   0  0  0  0  0  0
    6.5138   57.9415   16.9080 H   0  0  0  0  0  0
    6.2618   57.9861   15.1267 H   0  0  0  0  0  0
    8.5912   55.9968   21.1782 H   0  0  0  0  0  0
    7.9798   54.6232   20.2706 H   0  0  0  0  0  0
    7.9580   55.1024   23.1331 H   0  0  0  0  0  0
    7.9017   54.8966   25.2828 H   0  0  0  0  0  0
    6.7302   54.4017   27.3857 H   0  0  0  0  0  0
    3.0753   53.8824   25.1746 H   0  0  0  0  0  0
    4.2311   54.3934   23.1174 H   0  0  0  0  0  0
    5.0605   54.5038   29.4091 H   0  0  0  0  0  0
    5.6316   52.9154   28.8240 H   0  0  0  0  0  0
    3.8783   53.0298   30.8753 H   0  0  0  0  0  0
    3.8647   51.7363   29.6881 H   0  0  0  0  0  0
    1.6079   52.6153   29.4697 H   0  0  0  0  0  0
    2.1413   54.2759   29.6830 H   0  0  0  0  0  0
    2.5021   52.4986   27.2490 H   0  0  0  0  0  0
    2.1137   54.2198   27.3374 H   0  0  0  0  0  0
    6.3625   51.1705   14.1374 H   0  0  0  0  0  0
  1  9  2  0  0  0
  1  2  1  0  0  0
  1 35  1  0  0  0
  2  3  2  0  0  0
  2 36  1  0  0  0
  3  4  1  0  0  0
  3 37  1  0  0  0
  4  8  1  0  0  0
  4  5  2  0  0  0
  5  6  1  0  0  0
  5 62  1  0  0  0
  6  7  1  0  0  0
  6 38  1  0  0  0
  6 39  1  0  0  0
  7  8  2  0  0  0
  7 10  1  0  0  0
  8  9  1  0  0  0
  9 40  1  0  0  0
 10 15  1  0  0  0
 10 11  2  0  0  0
 11 12  1  0  0  0
 12 13  1  0  0  0
 12 41  1  0  0  0
 13 14  1  0  0  0
 13 15  1  0  0  0
 13 19  1  0  0  0
 15 16  1  0  0  0
 16 18  1  0  0  0
 16 17  1  0  0  0
 16 42  1  0  0  0
 17 18  1  0  0  0
 17 43  1  0  0  0
 17 44  1  0  0  0
 18 45  1  0  0  0
 18 46  1  0  0  0
 19 20  1  0  0  0
 20 21  1  0  0  0
 20 47  1  0  0  0
 20 48  1  0  0  0
 21 22  2  0  0  0
 21 23  1  0  0  0
 23 24  1  0  0  0
 23 49  1  0  0  0
 24 29  2  0  0  0
 24 25  1  0  0  0
 25 26  2  0  0  0
 25 50  1  0  0  0
 26 27  1  0  0  0
 26 51  1  0  0  0
 27 28  2  0  0  0
 27 30  1  0  0  0
 28 29  1  0  0  0
 28 52  1  0  0  0
 29 53  1  0  0  0
 30 34  1  0  0  0
 30 31  1  0  0  0
 31 32  1  0  0  0
 31 54  1  0  0  0
 31 55  1  0  0  0
 32 33  1  0  0  0
 32 56  1  0  0  0
 32 57  1  0  0  0
 33 34  1  0  0  0
 33 58  1  0  0  0
 33 59  1  0  0  0
 34 60  1  0  0  0
 34 61  1  0  0  0
M  CHG  1   5   1
M  END
> <i_i_glide_confnum>
125

> <i_i_glide_lignum>
201

> <i_i_glide_posenum>
87

> <i_i_glide_rotatable_bonds>
8

> <i_m_Source_File_Index>
3488

> <b_m_subgroup_collapsed>
0

> <r_i_docking_score>
-6.28007

> <r_i_glide_ecoul>
-6.60502

> <r_i_glide_eff_state_penalty>
0

> <r_i_glide_einternal>
13.3963

> <r_i_glide_emodel>
-59.8635

> <r_i_glide_energy>
-45.9916

> <r_i_glide_erotb>
0.756062

> <r_i_glide_esite>
-0.00650017

> <r_i_glide_evdw>
-39.3866

> <r_i_glide_gscore>
-6.28007

> <r_i_glide_hbond>
-0.537521

> <r_i_glide_ligand_efficiency>
-0.190305

> <r_i_glide_ligand_efficiency_ln>
-1.39665

> <r_i_glide_ligand_efficiency_sa>
-0.61041

> <r_i_glide_lipo>
-2.55689

> <r_i_glide_metal>
0

> <r_i_glide_rewards>
-0.975136

> <s_i_glide_gridfile>
wee1_glide-grid

> <s_m_Source_File>
wee1_decoys_glide_SP.sdf

> <s_m_Source_Path>
/Users/zhangxujun/Desktop

> <s_m_entry_id>
3763

> <s_m_entry_name>
wee1_decoys_glide_SP.3488

> <s_m_subgroup_title>
wee1_decoys_glide_SP

> <s_m_subgroupid>
wee1_decoys_glide_SP


$$$$
