@<TRIPOS>MOLECULE
ZINC04398130_5071
47   50    1
SMALL
USER_CHARGES


@<TRIPOS>ATOM
      1 C1          5.3658   54.5712   29.0917 C.3       1 UNK         0.0000 
      2 O2          4.0451   54.1952   28.7340 O.3       1 UNK         0.0000 
      3 C3          3.3207   53.3497   29.4966 C.2       1 UNK         0.0000 
      4 O4          3.6830   52.8965   30.5847 O.2       1 UNK         0.0000 
      5 C5          2.0340   53.0003   28.8740 C.2       1 UNK         0.0000 
      6 C6          1.7377   53.0111   27.4778 C.2       1 UNK         0.0000 
      7 C7          0.4943   52.4528   27.1739 C.2       1 UNK         0.0000 
      8 S8         -0.4171   52.0784   28.5900 S.3       1 UNK         0.0000 
      9 C9          0.8988   52.5734   29.5924 C.2       1 UNK         0.0000 
     10 N10         0.7214   52.4965   30.9511 N.pl3     1 UNK         0.0000 
     11 C11        -0.0399   52.2104   25.7676 C.3       1 UNK         0.0000 
     12 N12         1.0462   52.4165   24.7687 N.pl3     1 UNK         0.0000 
     13 C13         1.8170   53.6558   25.0234 C.3       1 UNK         0.0000 
     14 C14         2.6173   53.5413   26.3410 C.3       1 UNK         0.0000 
     15 C15         1.1196   51.6995   23.5244 C.ar      1 UNK         0.0000 
     16 C16         0.5206   50.4488   23.3274 C.ar      1 UNK         0.0000 
     17 C17         0.6145   49.7958   22.0958 C.ar      1 UNK         0.0000 
     18 C18         1.3186   50.4050   21.0175 C.ar      1 UNK         0.0000 
     19 C19         1.4674   49.8557   19.7008 C.ar      1 UNK         0.0000 
     20 C20         2.1728   50.5974   18.7439 C.ar      1 UNK         0.0000 
     21 C21         2.7255   51.8374   19.0820 C.ar      1 UNK         0.0000 
     22 N22         2.6239   52.3741   20.3250 N.ar      1 UNK         0.0000 
     23 C23         1.9300   51.6723   21.2508 C.ar      1 UNK         0.0000 
     24 C24         3.4979   52.6841   18.0682 C.3       1 UNK         0.0000 
     25 F25         4.7441   52.8971   18.4974 F         1 UNK         0.0000 
     26 F26         3.5551   52.1109   16.8649 F         1 UNK         0.0000 
     27 F27         2.8946   53.8653   17.9244 F         1 UNK         0.0000 
     28 C28         0.8582   48.4954   19.3434 C.3       1 UNK         0.0000 
     29 F29        -0.4544   48.5033   19.5834 F         1 UNK         0.0000 
     30 F30         1.0346   48.1806   18.0582 F         1 UNK         0.0000 
     31 F31         1.4260   47.5395   20.0817 F         1 UNK         0.0000 
     32 H32         5.7517   55.2952   28.3744 H         1 UNK         0.0000 
     33 H33         6.0293   53.7055   29.0820 H         1 UNK         0.0000 
     34 H34         5.3979   55.0288   30.0811 H         1 UNK         0.0000 
     35 H35         1.4779   52.6946   31.5885 H         1 UNK         0.0000 
     36 H36        -0.1394   52.1597   31.3776 H         1 UNK         0.0000 
     37 H37        -0.4409   51.2013   25.6988 H         1 UNK         0.0000 
     38 H38        -0.8509   52.8969   25.5207 H         1 UNK         0.0000 
     39 H39         2.4886   53.8856   24.1977 H         1 UNK         0.0000 
     40 H40         1.1054   54.4802   25.0440 H         1 UNK         0.0000 
     41 H41         3.0059   54.5333   26.5666 H         1 UNK         0.0000 
     42 H42         3.4848   52.8968   26.2015 H         1 UNK         0.0000 
     43 H43        -0.0082   49.9538   24.1276 H         1 UNK         0.0000 
     44 H44         0.1419   48.8340   21.9632 H         1 UNK         0.0000 
     45 H45         2.3030   50.2125   17.7417 H         1 UNK         0.0000 
     46 N46         1.7988   52.2387   22.4925 N.pl3     1 UNK         0.0000 
     47 H47         2.2283   53.1407   22.6285 H         1 UNK         0.0000 
@<TRIPOS>BOND
     1    1    2 1    
     2    1   32 1    
     3    1   33 1    
     4    1   34 1    
     5    2    3 1    
     6    3    4 2    
     7    3    5 1    
     8    5    9 2    
     9    5    6 1    
    10    6   14 1    
    11    6    7 2    
    12    7    8 1    
    13    7   11 1    
    14    8    9 1    
    15    9   10 1    
    16   10   35 1    
    17   10   36 1    
    18   11   12 1    
    19   11   37 1    
    20   11   38 1    
    21   12   13 1    
    22   12   15 1    
    23   13   14 1    
    24   13   39 1    
    25   13   40 1    
    26   14   41 1    
    27   14   42 1    
    28   15   16 ar   
    29   15   46 ar   
    30   16   17 ar   
    31   16   43 1    
    32   17   18 ar   
    33   17   44 1    
    34   18   23 ar   
    35   18   19 ar   
    36   19   20 ar   
    37   19   28 1    
    38   20   21 ar   
    39   20   45 1    
    40   21   22 ar   
    41   21   24 1    
    42   22   23 ar   
    43   23   46 ar   
    44   24   25 1    
    45   24   26 1    
    46   24   27 1    
    47   28   29 1    
    48   28   30 1    
    49   28   31 1    
    50   46   47 1    
@<TRIPOS>SUBSTRUCTURE
     1 UNK         1 GROUP             0       ****    0 ROOT    
