@<TRIPOS>MOLECULE
ZINC39680040_546
50   54    1
SMALL
USER_CHARGES


@<TRIPOS>ATOM
      1 C1          5.7473   54.6732   27.8096 C.3       1 UNK         0.0000 
      2 C2          4.4578   54.1959   27.1559 C.2       1 UNK         0.0000 
      3 C3          4.2636   54.0967   25.7547 C.ar      1 UNK         0.0000 
      4 C4          5.2189   54.3502   24.6577 C.ar      1 UNK         0.0000 
      5 O5          6.3884   54.7287   24.7037 O.2       1 UNK         0.0000 
      6 N6          4.6442   54.0968   23.4415 N.pl3     1 UNK         0.0000 
      7 H7          5.2797   54.2225   22.6708 H         1 UNK         0.0000 
      8 C8          3.3487   53.6959   23.1824 C.ar      1 UNK         0.0000 
      9 N9          2.5057   53.5101   24.1395 N.2       1 UNK         0.0000 
     10 C10         2.9688   53.6982   25.4063 C.ar      1 UNK         0.0000 
     11 S11         1.9674   53.4148   26.7710 S.3       1 UNK         0.0000 
     12 C12         3.2601   53.8810   27.8511 C.2       1 UNK         0.0000 
     13 C13         2.9604   53.8675   29.2973 C.2       1 UNK         0.0000 
     14 O14         1.7862   53.6278   29.6642 O.co2     1 UNK         0.0000 
     15 O15         3.9023   54.0953   30.0849 O.co2     1 UNK         0.0000 
     16 C16         2.9427   53.4389   21.7474 C.3       1 UNK         0.0000 
     17 S17         3.2402   51.6850   21.3112 S.3       1 UNK         0.0000 
     18 C18         1.5481   51.0395   21.3897 C.2       1 UNK         0.0000 
     19 N19         1.3979   50.0024   22.1245 N.2       1 UNK         0.0000 
     20 C20         0.0636   49.4603   22.3562 C.3       1 UNK         0.0000 
     21 H21        -0.0455   48.5665   21.7409 H         1 UNK         0.0000 
     22 C22        -1.1065   50.4538   22.1248 C.3       1 UNK         0.0000 
     23 H23        -1.9775   49.8990   21.7760 H         1 UNK         0.0000 
     24 C24        -1.4652   51.0855   23.4675 C.2       1 UNK         0.0000 
     25 C25        -0.9770   50.3975   24.5278 C.2       1 UNK         0.0000 
     26 S26        -0.0863   48.9278   24.0756 S.3       1 UNK         0.0000 
     27 C27        -1.2285   50.7586   25.9868 C.3       1 UNK         0.0000 
     28 C28        -1.7510   52.2048   26.1207 C.3       1 UNK         0.0000 
     29 C29        -2.8233   52.5285   25.0644 C.3       1 UNK         0.0000 
     30 C30        -2.2601   52.3836   23.6323 C.3       1 UNK         0.0000 
     31 C31        -0.8216   51.4774   20.9968 C.2       1 UNK         0.0000 
     32 O32        -1.7424   52.0932   20.4447 O.2       1 UNK         0.0000 
     33 N33         0.5067   51.5993   20.6825 N.am      1 UNK         0.0000 
     34 C34         0.7618   52.3175   19.4197 C.3       1 UNK         0.0000 
     35 H35         6.3619   53.8374   28.1455 H         1 UNK         0.0000 
     36 H36         6.3571   55.3036   27.1686 H         1 UNK         0.0000 
     37 H37         5.5649   55.2983   28.6814 H         1 UNK         0.0000 
     38 H38         1.8868   53.6926   21.6693 H         1 UNK         0.0000 
     39 H39         3.4751   54.0896   21.0533 H         1 UNK         0.0000 
     40 H40        -1.9493   50.0652   26.4246 H         1 UNK         0.0000 
     41 H41        -0.3268   50.6385   26.5934 H         1 UNK         0.0000 
     42 H42        -2.1398   52.3661   27.1263 H         1 UNK         0.0000 
     43 H43        -0.9189   52.8963   26.0063 H         1 UNK         0.0000 
     44 H44        -3.6708   51.8544   25.1958 H         1 UNK         0.0000 
     45 H45        -3.2156   53.5346   25.2148 H         1 UNK         0.0000 
     46 H46        -1.6170   53.2369   23.4173 H         1 UNK         0.0000 
     47 H47        -3.0619   52.4592   22.8985 H         1 UNK         0.0000 
     48 H48         1.8217   52.4522   19.1935 H         1 UNK         0.0000 
     49 H49         0.3335   51.7614   18.5823 H         1 UNK         0.0000 
     50 H50         0.3060   53.3031   19.4201 H         1 UNK         0.0000 
@<TRIPOS>BOND
     1    1    2 1    
     2    1   35 1    
     3    1   36 1    
     4    1   37 1    
     5    2   12 2    
     6    2    3 1    
     7    3   10 ar   
     8    3    4 ar   
     9    4    5 2    
    10    4    6 ar   
    11    6    7 1    
    12    6    8 ar   
    13    8    9 ar   
    14    8   16 1    
    15    9   10 ar   
    16   10   11 1    
    17   11   12 1    
    18   12   13 1    
    19   13   14 2    
    20   13   15 1    
    21   16   17 1    
    22   16   38 1    
    23   16   39 1    
    24   17   18 1    
    25   18   33 am   BACKBONE|DICT|INTERRES
    26   18   19 2    
    27   19   20 1    
    28   20   21 1    
    29   20   26 1    
    30   20   22 1    
    31   22   23 1    
    32   22   24 1    
    33   22   31 1    
    34   24   30 1    
    35   24   25 2    
    36   25   26 1    
    37   25   27 1    
    38   27   28 1    
    39   27   40 1    
    40   27   41 1    
    41   28   29 1    
    42   28   42 1    
    43   28   43 1    
    44   29   30 1    
    45   29   44 1    
    46   29   45 1    
    47   30   46 1    
    48   30   47 1    
    49   31   32 2    
    50   31   33 am   BACKBONE|DICT|INTERRES
    51   33   34 1    
    52   34   48 1    
    53   34   49 1    
    54   34   50 1    
@<TRIPOS>SUBSTRUCTURE
     1 UNK         1 GROUP             0       ****    0 ROOT    
