@<TRIPOS>MOLECULE
ZINC09530117_4318
53   57    1
SMALL
USER_CHARGES


@<TRIPOS>ATOM
      1 C1          1.4994   52.4875   31.5136 C.ar      1 UNK         0.0000 
      2 C2          2.8167   52.0968   31.2809 C.ar      1 UNK         0.0000 
      3 C3          3.4563   52.4953   30.1101 C.ar      1 UNK         0.0000 
      4 C4          2.7861   53.2795   29.1607 C.ar      1 UNK         0.0000 
      5 C5          1.4642   53.6722   29.4240 C.ar      1 UNK         0.0000 
      6 C6          0.8204   53.2739   30.5911 C.ar      1 UNK         0.0000 
      7 C7          3.4494   53.6582   27.8759 C.ar      1 UNK         0.0000 
      8 C8          2.6954   53.7605   26.7010 C.ar      1 UNK         0.0000 
      9 C9          3.2970   54.0654   25.4866 C.ar      1 UNK         0.0000 
     10 C10         4.6843   54.2410   25.4177 C.ar      1 UNK         0.0000 
     11 C11         5.4443   54.1817   26.5870 C.ar      1 UNK         0.0000 
     12 C12         4.8310   53.8906   27.8046 C.ar      1 UNK         0.0000 
     13 N13         5.3685   54.4964   24.2156 N.am      1 UNK         0.0000 
     14 C14         4.9934   54.1595   22.9586 C.2       1 UNK         0.0000 
     15 O15         3.9944   53.4860   22.6969 O.2       1 UNK         0.0000 
     16 C16         5.8711   54.6714   21.8325 C.ar      1 UNK         0.0000 
     17 C17         5.4598   54.4923   20.5038 C.ar      1 UNK         0.0000 
     18 C18         6.3007   54.8321   19.4487 C.ar      1 UNK         0.0000 
     19 C19         7.5792   55.3394   19.7042 C.ar      1 UNK         0.0000 
     20 C20         7.9459   55.6347   21.0146 C.ar      1 UNK         0.0000 
     21 C21         7.1057   55.2970   22.0729 C.ar      1 UNK         0.0000 
     22 N22         8.5415   55.5013   18.6895 N.pl3     1 UNK         0.0000 
     23 C23         8.9011   54.5258   17.7685 C.2       1 UNK         0.0000 
     24 N24         8.2496   53.4545   17.5894 N.2       1 UNK         0.0000 
     25 C25         8.8405   52.5647   16.6331 C.3       1 UNK         0.0000 
     26 H26         9.1209   51.6620   17.1851 H         1 UNK         0.0000 
     27 C27         7.8304   52.1449   15.5492 C.3       1 UNK         0.0000 
     28 S28         8.8526   51.8781   14.0228 S.o2      1 UNK         0.0000 
     29 O29         8.0879   52.2392   12.8265 O.2       1 UNK         0.0000 
     30 O30         9.5371   50.5878   14.1206 O.2       1 UNK         0.0000 
     31 C31        10.0293   53.2473   14.4824 C.3       1 UNK         0.0000 
     32 C32        10.1313   53.1670   16.0185 C.3       1 UNK         0.0000 
     33 H33        10.9798   52.5409   16.3066 H         1 UNK         0.0000 
     34 S34        10.3921   54.7633   16.8220 S.3       1 UNK         0.0000 
     35 H35         0.9971   52.1780   32.4217 H         1 UNK         0.0000 
     36 H36         3.3395   51.4996   32.0148 H         1 UNK         0.0000 
     37 H37         4.4705   52.1669   29.9365 H         1 UNK         0.0000 
     38 H38         0.9230   54.2892   28.7221 H         1 UNK         0.0000 
     39 H39        -0.2014   53.5690   30.7819 H         1 UNK         0.0000 
     40 H40         1.6302   53.5811   26.7116 H         1 UNK         0.0000 
     41 H41         2.6710   54.1391   24.6108 H         1 UNK         0.0000 
     42 H42         6.5144   54.3308   26.5582 H         1 UNK         0.0000 
     43 H43         5.4434   53.8365   28.6931 H         1 UNK         0.0000 
     44 H44         6.2589   54.9527   24.3149 H         1 UNK         0.0000 
     45 H45         4.5033   54.0414   20.2728 H         1 UNK         0.0000 
     46 H46         5.9842   54.6274   18.4360 H         1 UNK         0.0000 
     47 H47         8.9235   56.0419   21.2331 H         1 UNK         0.0000 
     48 H48         7.4859   55.4751   23.0691 H         1 UNK         0.0000 
     49 H49         9.3124   56.0834   18.9741 H         1 UNK         0.0000 
     50 H50         7.1887   52.9958   15.3210 H         1 UNK         0.0000 
     51 H51         7.1850   51.2967   15.7650 H         1 UNK         0.0000 
     52 H52         9.5498   54.1859   14.2040 H         1 UNK         0.0000 
     53 H53        10.9560   53.1590   13.9172 H         1 UNK         0.0000 
@<TRIPOS>BOND
     1    1    6 ar   
     2    1    2 ar   
     3    1   35 1    
     4    2    3 ar   
     5    2   36 1    
     6    3    4 ar   
     7    3   37 1    
     8    4    5 ar   
     9    4    7 1    
    10    5    6 ar   
    11    5   38 1    
    12    6   39 1    
    13    7   12 ar   
    14    7    8 ar   
    15    8    9 ar   
    16    8   40 1    
    17    9   10 ar   
    18    9   41 1    
    19   10   11 ar   
    20   10   13 1    
    21   11   12 ar   
    22   11   42 1    
    23   12   43 1    
    24   13   14 am   BACKBONE|DICT|INTERRES
    25   13   44 1    
    26   14   15 2    
    27   14   16 1    
    28   16   21 ar   
    29   16   17 ar   
    30   17   18 ar   
    31   17   45 1    
    32   18   19 ar   
    33   18   46 1    
    34   19   20 ar   
    35   19   22 1    
    36   20   21 ar   
    37   20   47 1    
    38   21   48 1    
    39   22   23 1    
    40   22   49 1    
    41   23   34 1    
    42   23   24 2    
    43   24   25 1    
    44   25   26 1    
    45   25   32 1    
    46   25   27 1    
    47   27   28 1    
    48   27   50 1    
    49   27   51 1    
    50   28   29 2    
    51   28   30 2    
    52   28   31 1    
    53   31   32 1    
    54   31   52 1    
    55   31   53 1    
    56   32   33 1    
    57   32   34 1    
@<TRIPOS>SUBSTRUCTURE
     1 UNK         1 GROUP             0       ****    0 ROOT    
