@<TRIPOS>MOLECULE
ZINC43213497_3485
78   81    1
SMALL
USER_CHARGES


@<TRIPOS>ATOM
      1 C1          9.8759   57.6875   13.5073 C.3       1 UNK         0.0000 
      2 C2          8.5079   57.3088   14.0994 C.3       1 UNK         0.0000 
      3 C3          7.7681   58.4699   14.8121 C.3       1 UNK         0.0000 
      4 H4          7.7261   59.2995   14.1039 H         1 UNK         0.0000 
      5 C5          8.5535   58.9831   16.0432 C.3       1 UNK         0.0000 
      6 C6          6.2970   58.0801   15.1264 C.3       1 UNK         0.0000 
      7 H7          5.7392   57.8767   14.2086 H         1 UNK         0.0000 
      8 C8          6.1384   56.9539   16.1319 C.2       1 UNK         0.0000 
      9 N9          6.2447   57.0186   17.4368 N.2       1 UNK         0.0000 
     10 C10         5.8424   55.8348   17.8750 C.2       1 UNK         0.0000 
     11 C11         5.5919   55.0035   16.7858 C.2       1 UNK         0.0000 
     12 O12         5.7563   55.7365   15.6615 O.3       1 UNK         0.0000 
     13 C13         5.7295   55.5044   19.2623 C.2       1 UNK         0.0000 
     14 O14         6.4540   56.0335   20.1074 O.2       1 UNK         0.0000 
     15 N15         4.6857   54.7042   19.5445 N.am      1 UNK         0.0000 
     16 C16         4.1442   54.4976   20.8910 C.3       1 UNK         0.0000 
     17 C17         4.3000   53.0933   21.5163 C.3       1 UNK         0.0000 
     18 C18         5.5989   53.1833   22.3457 C.3       1 UNK         0.0000 
     19 C19         5.5718   54.0418   23.6139 C.3       1 UNK         0.0000 
     20 C20         4.3806   53.7470   24.5173 C.3       1 UNK         0.0000 
     21 C21         2.9950   53.5256   23.8190 C.3       1 UNK         0.0000 
     22 C22         3.1108   52.6869   22.4805 C.3       1 UNK         0.0000 
     23 H23         3.3074   51.6729   22.7701 H         1 UNK         0.0000 
     24 C24         1.7120   52.5209   21.8307 C.3       1 UNK         0.0000 
     25 C25         0.7734   51.7297   22.7599 C.3       1 UNK         0.0000 
     26 C26         0.8501   52.1727   24.2232 C.ar      1 UNK         0.0000 
     27 C27         1.9691   52.8684   24.7426 C.ar      1 UNK         0.0000 
     28 C28         2.0374   53.1206   26.1202 C.ar      1 UNK         0.0000 
     29 C29         0.9995   52.7939   26.9589 C.ar      1 UNK         0.0000 
     30 C30        -0.1524   52.2219   26.4360 C.ar      1 UNK         0.0000 
     31 C31        -0.2076   51.8778   25.0837 C.ar      1 UNK         0.0000 
     32 C32        -1.3080   52.0177   27.3843 C.3       1 UNK         0.0000 
     33 C33        -2.6954   51.8742   26.7171 C.3       1 UNK         0.0000 
     34 C34        -0.9788   50.8966   28.3472 C.3       1 UNK         0.0000 
     35 C35         2.4129   54.8966   23.5512 C.3       1 UNK         0.0000 
     36 C36         4.5175   51.9520   20.4809 C.3       1 UNK         0.0000 
     37 N37         5.5381   59.2968   15.6819 N.4       1 UNK         0.0000 
     38 H38        10.2968   56.8532   12.9427 H         1 UNK         0.0000 
     39 H39        10.5977   57.9487   14.2810 H         1 UNK         0.0000 
     40 H40         9.7913   58.5352   12.8249 H         1 UNK         0.0000 
     41 H41         7.8800   56.9202   13.2936 H         1 UNK         0.0000 
     42 H42         8.6392   56.4775   14.7960 H         1 UNK         0.0000 
     43 H43         8.7256   58.1922   16.7740 H         1 UNK         0.0000 
     44 H44         9.5312   59.3687   15.7581 H         1 UNK         0.0000 
     45 H45         8.0412   59.8011   16.5529 H         1 UNK         0.0000 
     46 H46         5.2663   53.9765   16.6653 H         1 UNK         0.0000 
     47 H47         4.1753   54.2757   18.7873 H         1 UNK         0.0000 
     48 H48         4.5470   55.2832   21.5285 H         1 UNK         0.0000 
     49 H49         3.1051   54.7329   20.8918 H         1 UNK         0.0000 
     50 H50         5.9631   52.1874   22.5968 H         1 UNK         0.0000 
     51 H51         6.3033   53.6832   21.6896 H         1 UNK         0.0000 
     52 H52         6.4965   53.8838   24.1692 H         1 UNK         0.0000 
     53 H53         5.5878   55.1017   23.3704 H         1 UNK         0.0000 
     54 H54         4.6264   52.9005   25.1375 H         1 UNK         0.0000 
     55 H55         4.3178   54.5507   25.2519 H         1 UNK         0.0000 
     56 H56         1.2797   53.4549   21.4883 H         1 UNK         0.0000 
     57 H57         1.7989   51.9286   20.9209 H         1 UNK         0.0000 
     58 H58        -0.2503   51.7848   22.3883 H         1 UNK         0.0000 
     59 H59         1.0493   50.6742   22.7266 H         1 UNK         0.0000 
     60 H60         2.8696   53.6422   26.5653 H         1 UNK         0.0000 
     61 H61         1.0687   53.0435   28.0084 H         1 UNK         0.0000 
     62 H62        -1.0804   51.3798   24.6863 H         1 UNK         0.0000 
     63 H63        -1.2948   52.9125   27.9892 H         1 UNK         0.0000 
     64 H64        -2.8911   52.6869   26.0188 H         1 UNK         0.0000 
     65 H65        -2.7845   50.9312   26.1811 H         1 UNK         0.0000 
     66 H66        -3.4858   51.8865   27.4679 H         1 UNK         0.0000 
     67 H67        -0.2756   51.2092   29.1161 H         1 UNK         0.0000 
     68 H68        -1.8662   50.5085   28.8488 H         1 UNK         0.0000 
     69 H69        -0.4997   50.0972   27.7772 H         1 UNK         0.0000 
     70 H70         3.1048   55.4502   22.9629 H         1 UNK         0.0000 
     71 H71         1.4367   54.8975   23.0677 H         1 UNK         0.0000 
     72 H72         2.3073   55.4415   24.4817 H         1 UNK         0.0000 
     73 H73         4.5848   50.9720   20.9514 H         1 UNK         0.0000 
     74 H74         3.7137   51.9040   19.7435 H         1 UNK         0.0000 
     75 H75         5.4395   52.0986   19.9171 H         1 UNK         0.0000 
     76 H76         4.5691   59.0809   15.8588 H         1 UNK         0.0000 
     77 H77         5.9369   59.6271   16.5514 H         1 UNK         0.0000 
     78 H78         5.5590   60.0837   15.0478 H         1 UNK         0.0000 
@<TRIPOS>BOND
     1    1    2 1    
     2    1   38 1    
     3    1   39 1    
     4    1   40 1    
     5    2    3 1    
     6    2   41 1    
     7    2   42 1    
     8    3    4 1    
     9    3    5 1    
    10    3    6 1    
    11    5   43 1    
    12    5   44 1    
    13    5   45 1    
    14    6    7 1    
    15    6    8 1    
    16    6   37 1    
    17    8   12 1    
    18    8    9 2    
    19    9   10 1    
    20   10   11 2    
    21   10   13 1    
    22   11   12 1    
    23   11   46 1    
    24   13   14 2    
    25   13   15 am   BACKBONE|DICT|INTERRES
    26   15   16 1    
    27   15   47 1    
    28   16   17 1    
    29   16   48 1    
    30   16   49 1    
    31   17   22 1    
    32   17   18 1    
    33   17   36 1    
    34   18   19 1    
    35   18   50 1    
    36   18   51 1    
    37   19   20 1    
    38   19   52 1    
    39   19   53 1    
    40   20   21 1    
    41   20   54 1    
    42   20   55 1    
    43   21   27 1    
    44   21   22 1    
    45   21   35 1    
    46   22   23 1    
    47   22   24 1    
    48   24   25 1    
    49   24   56 1    
    50   24   57 1    
    51   25   26 1    
    52   25   58 1    
    53   25   59 1    
    54   26   31 ar   
    55   26   27 ar   
    56   27   28 ar   
    57   28   29 ar   
    58   28   60 1    
    59   29   30 ar   
    60   29   61 1    
    61   30   31 ar   
    62   30   32 1    
    63   31   62 1    
    64   32   33 1    
    65   32   34 1    
    66   32   63 1    
    67   33   64 1    
    68   33   65 1    
    69   33   66 1    
    70   34   67 1    
    71   34   68 1    
    72   34   69 1    
    73   35   70 1    
    74   35   71 1    
    75   35   72 1    
    76   36   73 1    
    77   36   74 1    
    78   36   75 1    
    79   37   76 1    
    80   37   77 1    
    81   37   78 1    
@<TRIPOS>SUBSTRUCTURE
     1 UNK         1 GROUP             0       ****    0 ROOT    
