@<TRIPOS>MOLECULE
ZINC20795794_3380
61   64    1
SMALL
USER_CHARGES


@<TRIPOS>ATOM
      1 C1          1.8891   51.2913   17.0057 C.3       1 UNK         0.0000 
      2 C2          1.0840   50.7071   18.1703 C.3       1 UNK         0.0000 
      3 O3          1.3420   51.4861   19.3276 O.3       1 UNK         0.0000 
      4 C4          0.8760   51.1185   20.5400 C.2       1 UNK         0.0000 
      5 O5          0.1514   50.1440   20.7481 O.2       1 UNK         0.0000 
      6 C6          1.3560   52.0262   21.5957 C.2       1 UNK         0.0000 
      7 C7          2.6373   52.6656   21.6022 C.2       1 UNK         0.0000 
      8 C8          2.9092   53.3454   22.8018 C.2       1 UNK         0.0000 
      9 S9          1.5841   53.3092   23.8908 S.3       1 UNK         0.0000 
     10 C10         0.6643   52.3547   22.7888 C.2       1 UNK         0.0000 
     11 N11        -0.5877   52.0292   23.2942 N.am      1 UNK         0.0000 
     12 C12        -1.7586   51.8895   22.6395 C.2       1 UNK         0.0000 
     13 O13        -1.9164   52.0967   21.4374 O.2       1 UNK         0.0000 
     14 C14        -3.0108   51.4890   23.4664 C.3       1 UNK         0.0000 
     15 N15        -2.6972   51.0932   24.8613 N.am      1 UNK         0.0000 
     16 C16        -2.7802   51.9398   25.9155 C.2       1 UNK         0.0000 
     17 O17        -3.2237   53.0890   25.9310 O.2       1 UNK         0.0000 
     18 C18        -2.2929   51.1476   27.1286 C.3       1 UNK         0.0000 
     19 N19        -1.9646   49.9199   26.4788 N.am      1 UNK         0.0000 
     20 C20        -2.1951   49.8724   25.1685 C.2       1 UNK         0.0000 
     21 O21        -1.8583   48.9753   24.3956 O.2       1 UNK         0.0000 
     22 C22        -3.4946   50.9003   28.0853 C.3       1 UNK         0.0000 
     23 C23        -1.0087   51.7030   27.7993 C.ar      1 UNK         0.0000 
     24 C24         0.0985   52.0637   27.0170 C.ar      1 UNK         0.0000 
     25 C25         1.2635   52.5495   27.5998 C.ar      1 UNK         0.0000 
     26 C26         1.3397   52.6739   28.9861 C.ar      1 UNK         0.0000 
     27 C27         0.2615   52.2986   29.7868 C.ar      1 UNK         0.0000 
     28 C28        -0.8957   51.8012   29.1961 C.ar      1 UNK         0.0000 
     29 C29         2.5533   53.1935   29.5964 C.1       1 UNK         0.0000 
     30 N30         3.5157   53.6086   30.0818 N.1       1 UNK         0.0000 
     31 C31         4.2421   53.9730   23.1887 C.3       1 UNK         0.0000 
     32 C32         5.0761   54.2094   21.9129 C.3       1 UNK         0.0000 
     33 H33         4.6212   55.0183   21.3373 H         1 UNK         0.0000 
     34 C34         5.1051   52.9141   21.0779 C.3       1 UNK         0.0000 
     35 C35         3.7166   52.5655   20.5088 C.3       1 UNK         0.0000 
     36 C36         6.4936   54.6817   22.2937 C.3       1 UNK         0.0000 
     37 H37         1.7509   50.7003   16.0996 H         1 UNK         0.0000 
     38 H38         1.5883   52.3179   16.7927 H         1 UNK         0.0000 
     39 H39         2.9563   51.2982   17.2322 H         1 UNK         0.0000 
     40 H40         1.3804   49.6699   18.3384 H         1 UNK         0.0000 
     41 H41         0.0166   50.7107   17.9395 H         1 UNK         0.0000 
     42 H42        -0.6785   52.1326   24.2911 H         1 UNK         0.0000 
     43 H43        -3.4958   50.6522   22.9619 H         1 UNK         0.0000 
     44 H44        -3.7170   52.3203   23.4514 H         1 UNK         0.0000 
     45 H45        -1.8613   49.0881   27.0720 H         1 UNK         0.0000 
     46 H46        -3.8059   51.8083   28.5986 H         1 UNK         0.0000 
     47 H47        -4.3718   50.5110   27.5639 H         1 UNK         0.0000 
     48 H48        -3.2482   50.1566   28.8475 H         1 UNK         0.0000 
     49 H49         0.0647   51.9473   25.9472 H         1 UNK         0.0000 
     50 H50         2.1009   52.8151   26.9675 H         1 UNK         0.0000 
     51 H51         0.3069   52.3725   30.8658 H         1 UNK         0.0000 
     52 H52        -1.6950   51.4851   29.8507 H         1 UNK         0.0000 
     53 H53         4.0925   54.8971   23.7446 H         1 UNK         0.0000 
     54 H54         4.7740   53.2967   23.8590 H         1 UNK         0.0000 
     55 H55         5.7913   53.0331   20.2385 H         1 UNK         0.0000 
     56 H56         5.5170   52.0910   21.6632 H         1 UNK         0.0000 
     57 H57         3.7582   51.5722   20.0638 H         1 UNK         0.0000 
     58 H58         3.4678   53.2408   19.6892 H         1 UNK         0.0000 
     59 H59         7.0250   53.9306   22.8812 H         1 UNK         0.0000 
     60 H60         7.0899   54.8974   21.4073 H         1 UNK         0.0000 
     61 H61         6.4613   55.5962   22.8874 H         1 UNK         0.0000 
@<TRIPOS>BOND
     1    1    2 1    
     2    1   37 1    
     3    1   38 1    
     4    1   39 1    
     5    2    3 1    
     6    2   40 1    
     7    2   41 1    
     8    3    4 1    
     9    4    5 2    
    10    4    6 1    
    11    6   10 2    
    12    6    7 1    
    13    7   35 1    
    14    7    8 2    
    15    8    9 1    
    16    8   31 1    
    17    9   10 1    
    18   10   11 am   BACKBONE|DICT|INTERRES
    19   11   12 am   BACKBONE|DICT|INTERRES
    20   11   42 1    
    21   12   13 2    
    22   12   14 1    
    23   14   15 1    
    24   14   43 1    
    25   14   44 1    
    26   15   20 am   BACKBONE|DICT|INTERRES
    27   15   16 am   BACKBONE|DICT|INTERRES
    28   16   17 2    
    29   16   18 1    
    30   18   19 1    
    31   18   22 1    
    32   18   23 1    
    33   19   20 am   BACKBONE|DICT|INTERRES
    34   19   45 1    
    35   20   21 2    
    36   22   46 1    
    37   22   47 1    
    38   22   48 1    
    39   23   28 ar   
    40   23   24 ar   
    41   24   25 ar   
    42   24   49 1    
    43   25   26 ar   
    44   25   50 1    
    45   26   27 ar   
    46   26   29 1    
    47   27   28 ar   
    48   27   51 1    
    49   28   52 1    
    50   29   30 3    
    51   31   32 1    
    52   31   53 1    
    53   31   54 1    
    54   32   33 1    
    55   32   34 1    
    56   32   36 1    
    57   34   35 1    
    58   34   55 1    
    59   34   56 1    
    60   35   57 1    
    61   35   58 1    
    62   36   59 1    
    63   36   60 1    
    64   36   61 1    
@<TRIPOS>SUBSTRUCTURE
     1 UNK         1 GROUP             0       ****    0 ROOT    
