@<TRIPOS>MOLECULE
ZINC13211872_521
52   54    1
SMALL
USER_CHARGES


@<TRIPOS>ATOM
      1 C1          6.3064   54.3246   23.2973 C.3       1 UNK         0.0000 
      2 C2          5.4696   53.9501   22.0593 C.3       1 UNK         0.0000 
      3 H3          5.8392   52.9758   21.7464 H         1 UNK         0.0000 
      4 C4          5.6326   54.8719   20.8317 C.ar      1 UNK         0.0000 
      5 C5          6.5951   55.8951   20.7880 C.ar      1 UNK         0.0000 
      6 C6          6.7431   56.6852   19.6461 C.ar      1 UNK         0.0000 
      7 C7          5.9375   56.4686   18.5312 C.ar      1 UNK         0.0000 
      8 C8          4.9832   55.4545   18.5528 C.ar      1 UNK         0.0000 
      9 C9          4.8399   54.6609   19.6897 C.ar      1 UNK         0.0000 
     10 F10         4.1922   55.2376   17.4771 F         1 UNK         0.0000 
     11 F11         6.0890   57.2415   17.4324 F         1 UNK         0.0000 
     12 N12         4.0589   53.8370   22.4289 N.pl3     1 UNK         0.0000 
     13 C13         3.2693   52.6949   22.2120 C.ar      1 UNK         0.0000 
     14 C14         3.6222   51.7454   21.2414 C.ar      1 UNK         0.0000 
     15 C15         2.8139   50.6440   20.9852 C.ar      1 UNK         0.0000 
     16 C16         1.6402   50.4396   21.7151 C.ar      1 UNK         0.0000 
     17 C17         1.3054   51.3617   22.7148 C.ar      1 UNK         0.0000 
     18 C18         2.0949   52.4912   22.9629 C.ar      1 UNK         0.0000 
     19 S19         1.4872   53.6328   24.2267 S.o2      1 UNK         0.0000 
     20 O20         0.0276   53.5815   24.0820 O.2       1 UNK         0.0000 
     21 O21         2.2129   54.8965   24.0739 O.2       1 UNK         0.0000 
     22 N22         1.9519   52.9457   25.8103 N.pl3     1 UNK         0.0000 
     23 C23         3.1785   53.4195   26.4999 C.3       1 UNK         0.0000 
     24 C24         2.8098   54.2792   27.7254 C.3       1 UNK         0.0000 
     25 C25         1.8461   53.5343   28.6940 C.3       1 UNK         0.0000 
     26 C26         0.6383   52.8723   27.9558 C.3       1 UNK         0.0000 
     27 C27         1.0166   52.1420   26.6393 C.3       1 UNK         0.0000 
     28 C28         2.6475   52.5345   29.5672 C.2       1 UNK         0.0000 
     29 O29         2.6462   51.3150   29.2815 O.co2     1 UNK         0.0000 
     30 N30         0.7616   49.2849   21.4209 N.pl3     1 UNK         0.0000 
     31 O31         1.0748   48.5223   20.5092 O.co2     1 UNK         0.0000 
     32 O32        -0.2505   49.1317   22.0984 O.co2     1 UNK         0.0000 
     33 H33         7.3751   54.3244   23.0770 H         1 UNK         0.0000 
     34 H34         6.0386   55.3065   23.6845 H         1 UNK         0.0000 
     35 H35         6.1524   53.6071   24.1044 H         1 UNK         0.0000 
     36 H36         7.2440   56.0885   21.6287 H         1 UNK         0.0000 
     37 H37         7.4896   57.4620   19.6072 H         1 UNK         0.0000 
     38 H38         4.0843   53.8913   19.6727 H         1 UNK         0.0000 
     39 H39         3.6959   54.4901   23.1178 H         1 UNK         0.0000 
     40 H40         4.5031   51.8575   20.6289 H         1 UNK         0.0000 
     41 H41         3.1053   49.9571   20.2017 H         1 UNK         0.0000 
     42 H42         0.4015   51.2150   23.2908 H         1 UNK         0.0000 
     43 H43         3.7829   53.9949   25.7993 H         1 UNK         0.0000 
     44 H44         3.7721   52.5548   26.7964 H         1 UNK         0.0000 
     45 H45         2.3006   55.1588   27.3377 H         1 UNK         0.0000 
     46 H46         3.7007   54.6486   28.2367 H         1 UNK         0.0000 
     47 H47         1.4283   54.2558   29.3977 H         1 UNK         0.0000 
     48 H48         0.0759   52.2081   28.6150 H         1 UNK         0.0000 
     49 H49        -0.0519   53.6688   27.6821 H         1 UNK         0.0000 
     50 H50         0.1216   51.9237   26.0565 H         1 UNK         0.0000 
     51 H51         1.4883   51.1839   26.8575 H         1 UNK         0.0000 
     52 O52         3.3354   53.0443   30.4818 O.co2     1 UNK         0.0000 
@<TRIPOS>BOND
     1    1    2 1    
     2    1   33 1    
     3    1   34 1    
     4    1   35 1    
     5    2    3 1    
     6    2    4 1    
     7    2   12 1    
     8    4    9 ar   
     9    4    5 ar   
    10    5    6 ar   
    11    5   36 1    
    12    6    7 ar   
    13    6   37 1    
    14    7    8 ar   
    15    7   11 1    
    16    8    9 ar   
    17    8   10 1    
    18    9   38 1    
    19   12   13 1    
    20   12   39 1    
    21   13   18 ar   
    22   13   14 ar   
    23   14   15 ar   
    24   14   40 1    
    25   15   16 ar   
    26   15   41 1    
    27   16   17 ar   
    28   16   30 1    
    29   17   18 ar   
    30   17   42 1    
    31   18   19 1    
    32   19   20 2    
    33   19   21 2    
    34   19   22 1    
    35   22   27 1    
    36   22   23 1    
    37   23   24 1    
    38   23   43 1    
    39   23   44 1    
    40   24   25 1    
    41   24   45 1    
    42   24   46 1    
    43   25   26 1    
    44   25   28 1    
    45   25   47 1    
    46   26   27 1    
    47   26   48 1    
    48   26   49 1    
    49   27   50 1    
    50   27   51 1    
    51   28   29 2    
    52   28   52 1    
    53   30   31 2    
    54   30   32 1    
@<TRIPOS>SUBSTRUCTURE
     1 UNK         1 GROUP             0       ****    0 ROOT    
