ZINC15959627_5036
                    3D
 Schrodinger Suite 2024-2.
 63 68  0  0  1  0            999 V2000
    2.3489   47.9590   18.6909 C   0  0  0  0  0  0
    2.0580   49.1712   19.5549 C   0  0  0  0  0  0
    2.3036   49.1194   20.9282 C   0  0  0  0  0  0
    2.0325   50.2268   21.7258 C   0  0  0  0  0  0
    1.5069   51.3877   21.1492 C   0  0  0  0  0  0
    1.2768   51.4427   19.7722 C   0  0  0  0  0  0
    1.5529   50.3355   18.9757 C   0  0  0  0  0  0
    1.1657   52.6035   22.0157 C   0  0  2  0  0  0
    0.7058   53.3618   21.3844 H   0  0  0  0  0  0
    2.3972   53.2119   22.6721 C   0  0  0  0  0  0
    2.5554   53.4577   24.0191 C   0  0  0  0  0  0
    3.8660   54.0155   24.1921 C   0  0  0  0  0  0
    4.6097   54.4424   25.3047 C   0  0  0  0  0  0
    5.9189   54.8807   25.1119 C   0  0  0  0  0  0
    6.4902   54.8982   23.8418 C   0  0  0  0  0  0
    5.7861   54.4968   22.7055 C   0  0  0  0  0  0
    4.4677   54.0732   22.8974 C   0  0  0  0  0  0
    3.5175   53.6348   22.0012 N   0  0  0  0  0  0
    3.6030   53.5537   20.9978 H   0  0  0  0  0  0
    1.4971   53.0574   25.0210 C   0  0  0  0  0  0
    0.1008   52.9913   24.3283 C   0  0  1  0  0  0
   -0.3135   53.9926   24.2003 H   0  0  0  0  0  0
    0.1455   52.2968   23.0567 N   0  0  0  0  0  0
   -0.9808   51.5768   22.8819 C   0  0  0  0  0  0
   -1.4932   51.2408   21.8136 O   0  0  0  0  0  0
   -1.3911   51.2595   24.1373 N   0  0  0  0  0  0
   -0.8701   52.0966   25.0646 C   0  0  0  0  0  0
   -1.0928   52.1360   26.2750 O   0  0  0  0  0  0
   -2.1953   50.1414   24.4468 C   0  0  0  0  0  0
   -1.6883   49.1400   25.2820 C   0  0  0  0  0  0
   -2.4706   48.0381   25.6096 C   0  0  0  0  0  0
   -3.7773   47.9165   25.1120 C   0  0  0  0  0  0
   -4.2668   48.9123   24.2524 C   0  0  0  0  0  0
   -3.4856   50.0172   23.9205 C   0  0  0  0  0  0
   -4.6651   46.7503   25.4934 C   0  0  0  0  0  0
   -5.6970   46.5151   24.8618 O   0  0  0  0  0  0
   -4.2855   46.0208   26.5628 N   0  0  0  0  0  0
   -5.0448   44.9288   27.1755 C   0  0  0  0  0  0
   -5.3430   43.7492   26.2616 C   0  0  0  0  0  0
   -4.8968   42.4968   26.4469 C   0  0  0  0  0  0
    1.7782   47.0973   19.0380 H   0  0  0  0  0  0
    2.1065   48.1325   17.6416 H   0  0  0  0  0  0
    3.4080   47.7019   18.7476 H   0  0  0  0  0  0
    2.7044   48.2229   21.3777 H   0  0  0  0  0  0
    2.2173   50.1796   22.7898 H   0  0  0  0  0  0
    0.8812   52.3400   19.3189 H   0  0  0  0  0  0
    1.3787   50.3840   17.9096 H   0  0  0  0  0  0
    4.1844   54.4070   26.2972 H   0  0  0  0  0  0
    6.5016   55.2017   25.9632 H   0  0  0  0  0  0
    7.5043   55.2463   23.7284 H   0  0  0  0  0  0
    6.2409   54.5274   21.7260 H   0  0  0  0  0  0
    1.4636   53.7689   25.8464 H   0  0  0  0  0  0
    1.7739   52.0979   25.4631 H   0  0  0  0  0  0
   -0.6945   49.2184   25.7040 H   0  0  0  0  0  0
   -2.0427   47.3056   26.2799 H   0  0  0  0  0  0
   -5.2679   48.8453   23.8493 H   0  0  0  0  0  0
   -3.8867   50.7794   23.2680 H   0  0  0  0  0  0
   -3.4637   46.3220   27.0674 H   0  0  0  0  0  0
   -4.4956   44.5860   28.0535 H   0  0  0  0  0  0
   -5.9858   45.3339   27.5543 H   0  0  0  0  0  0
   -5.9728   43.9585   25.4084 H   0  0  0  0  0  0
   -5.1586   41.7033   25.7618 H   0  0  0  0  0  0
   -4.2617   42.2407   27.2816 H   0  0  0  0  0  0
  1  2  1  0  0  0
  1 41  1  0  0  0
  1 42  1  0  0  0
  1 43  1  0  0  0
  2  7  2  0  0  0
  2  3  1  0  0  0
  3  4  2  0  0  0
  3 44  1  0  0  0
  4  5  1  0  0  0
  4 45  1  0  0  0
  5  6  2  0  0  0
  5  8  1  0  0  0
  6  7  1  0  0  0
  6 46  1  0  0  0
  7 47  1  0  0  0
  8  9  1  0  0  0
  8 23  1  0  0  0
  8 10  1  0  0  0
 10 18  1  0  0  0
 10 11  2  0  0  0
 11 12  1  0  0  0
 11 20  1  0  0  0
 12 17  2  0  0  0
 12 13  1  0  0  0
 13 14  2  0  0  0
 13 48  1  0  0  0
 14 15  1  0  0  0
 14 49  1  0  0  0
 15 16  2  0  0  0
 15 50  1  0  0  0
 16 17  1  0  0  0
 16 51  1  0  0  0
 17 18  1  0  0  0
 18 19  1  0  0  0
 20 21  1  0  0  0
 20 52  1  0  0  0
 20 53  1  0  0  0
 21 22  1  0  0  0
 21 27  1  0  0  0
 21 23  1  0  0  0
 23 24  1  0  0  0
 24 25  2  0  0  0
 24 26  1  0  0  0
 26 27  1  0  0  0
 26 29  1  0  0  0
 27 28  2  0  0  0
 29 34  2  0  0  0
 29 30  1  0  0  0
 30 31  2  0  0  0
 30 54  1  0  0  0
 31 32  1  0  0  0
 31 55  1  0  0  0
 32 33  2  0  0  0
 32 35  1  0  0  0
 33 34  1  0  0  0
 33 56  1  0  0  0
 34 57  1  0  0  0
 35 36  2  0  0  0
 35 37  1  0  0  0
 37 38  1  0  0  0
 37 58  1  0  0  0
 38 39  1  0  0  0
 38 59  1  0  0  0
 38 60  1  0  0  0
 39 40  2  0  0  0
 39 61  1  0  0  0
 40 62  1  0  0  0
 40 63  1  0  0  0
M  END
> <i_i_glide_confnum>
76

> <i_i_glide_lignum>
5037

> <i_i_glide_posenum>
305

> <i_i_glide_rotatable_bonds>
6

> <i_m_Source_File_Index>
1175

> <b_m_subgroup_collapsed>
0

> <r_i_docking_score>
-5.08626

> <r_i_glide_ecoul>
-4.57592

> <r_i_glide_eff_state_penalty>
0

> <r_i_glide_einternal>
2.00767

> <r_i_glide_emodel>
-60.8911

> <r_i_glide_energy>
-47.1549

> <r_i_glide_erotb>
0.507427

> <r_i_glide_esite>
-0.0713065

> <r_i_glide_evdw>
-42.579

> <r_i_glide_gscore>
-5.08626

> <r_i_glide_hbond>
0

> <r_i_glide_ligand_efficiency>
-0.137466

> <r_i_glide_ligand_efficiency_ln>
-1.10309

> <r_i_glide_ligand_efficiency_sa>
-0.458068

> <r_i_glide_lipo>
-2.43298

> <r_i_glide_metal>
0

> <r_i_glide_rewards>
-0.274062

> <s_i_glide_gridfile>
wee1_glide-grid

> <s_m_Source_File>
wee1_decoys_glide_SP.sdf

> <s_m_Source_Path>
/Users/zhangxujun/Desktop

> <s_m_entry_id>
1450

> <s_m_entry_name>
wee1_decoys_glide_SP.1175

> <s_m_subgroup_title>
wee1_decoys_glide_SP

> <s_m_subgroupid>
wee1_decoys_glide_SP


$$$$
