ZINC36646604_4138
                    3D
 Schrodinger Suite 2024-2.
 42 45  0  0  1  0            999 V2000
   -1.9300   48.1867   19.9827 C   0  0  0  0  0  0
   -1.7451   47.2259   18.9919 C   0  0  0  0  0  0
   -0.4792   47.0307   18.4436 C   0  0  0  0  0  0
    0.6062   47.7950   18.8762 C   0  0  0  0  0  0
    0.4275   48.7762   19.8681 C   0  0  0  0  0  0
   -0.8499   48.9538   20.4171 C   0  0  0  0  0  0
    1.5131   49.6571   20.4052 C   0  0  0  0  0  0
    1.7645   49.7824   21.6874 N   0  0  0  0  0  0
    2.7184   50.7816   21.8321 N   0  0  0  0  0  0
    3.0476   51.1922   20.6317 C   0  0  0  0  0  0
    2.2997   50.5312   19.6800 N   0  0  0  0  0  0
    2.3044   50.7498   18.3126 N   0  0  0  0  0  0
    4.1968   52.4947   20.3039 S   0  0  0  0  0  0
    3.5043   53.7916   21.3711 C   0  0  0  0  0  0
    4.2663   53.9664   22.6612 C   0  0  0  0  0  0
    3.7794   54.0081   23.8692 N   0  0  0  0  0  0
    4.8650   54.1712   24.6049 C   0  0  0  0  0  0
    5.9988   54.2781   23.9377 N   0  0  0  0  0  0
    5.6069   54.1546   22.6073 O   0  0  0  0  0  0
    4.8087   54.2287   26.1047 C   0  0  0  0  0  0
    5.9751   54.0965   26.8705 C   0  0  0  0  0  0
    5.9210   54.1540   28.2605 C   0  0  0  0  0  0
    4.7042   54.3600   28.9050 C   0  0  0  0  0  0
    3.5229   54.4875   28.1677 C   0  0  0  0  0  0
    3.5867   54.4092   26.7708 C   0  0  0  0  0  0
    2.1872   54.7089   28.8778 C   0  0  0  0  0  0
    1.1698   54.2100   28.1739 F   0  0  0  0  0  0
    1.9891   56.0174   29.0371 F   0  0  0  0  0  0
    2.1818   54.1317   30.0810 F   0  0  0  0  0  0
    2.3057   47.4303   18.0991 Br  0  0  0  0  0  0
   -2.9086   48.3395   20.4137 H   0  0  0  0  0  0
   -2.5804   46.6322   18.6510 H   0  0  0  0  0  0
   -0.3365   46.2804   17.6799 H   0  0  0  0  0  0
   -1.0100   49.6969   21.1857 H   0  0  0  0  0  0
    2.9397   50.0991   17.8495 H   0  0  0  0  0  0
    1.3739   50.6554   17.9374 H   0  0  0  0  0  0
    2.4476   53.5968   21.5551 H   0  0  0  0  0  0
    3.5263   54.7170   20.7995 H   0  0  0  0  0  0
    6.9308   53.9391   26.3920 H   0  0  0  0  0  0
    6.8270   54.0586   28.8421 H   0  0  0  0  0  0
    4.6879   54.4241   29.9830 H   0  0  0  0  0  0
    2.6766   54.4966   26.1960 H   0  0  0  0  0  0
  1  6  2  0  0  0
  1  2  1  0  0  0
  1 31  1  0  0  0
  2  3  2  0  0  0
  2 32  1  0  0  0
  3  4  1  0  0  0
  3 33  1  0  0  0
  4  5  2  0  0  0
  4 30  1  0  0  0
  5  6  1  0  0  0
  5  7  1  0  0  0
  6 34  1  0  0  0
  7 11  1  0  0  0
  7  8  2  0  0  0
  8  9  1  0  0  0
  9 10  2  0  0  0
 10 11  1  0  0  0
 10 13  1  0  0  0
 11 12  1  0  0  0
 12 35  1  0  0  0
 12 36  1  0  0  0
 13 14  1  0  0  0
 14 15  1  0  0  0
 14 37  1  0  0  0
 14 38  1  0  0  0
 15 19  1  0  0  0
 15 16  2  0  0  0
 16 17  1  0  0  0
 17 18  2  0  0  0
 17 20  1  0  0  0
 18 19  1  0  0  0
 20 25  2  0  0  0
 20 21  1  0  0  0
 21 22  2  0  0  0
 21 39  1  0  0  0
 22 23  1  0  0  0
 22 40  1  0  0  0
 23 24  2  0  0  0
 23 41  1  0  0  0
 24 25  1  0  0  0
 24 26  1  0  0  0
 25 42  1  0  0  0
 26 27  1  0  0  0
 26 28  1  0  0  0
 26 29  1  0  0  0
M  END
> <i_i_glide_confnum>
143

> <i_i_glide_lignum>
4139

> <i_i_glide_posenum>
302

> <i_i_glide_rotatable_bonds>
6

> <i_m_Source_File_Index>
1176

> <b_m_subgroup_collapsed>
0

> <r_i_docking_score>
-5.84511

> <r_i_glide_ecoul>
-3.8958

> <r_i_glide_eff_state_penalty>
0

> <r_i_glide_einternal>
4.96081

> <r_i_glide_emodel>
-60.2619

> <r_i_glide_energy>
-45.3683

> <r_i_glide_erotb>
0.412417

> <r_i_glide_esite>
-0.19791

> <r_i_glide_evdw>
-41.4725

> <r_i_glide_gscore>
-5.84511

> <r_i_glide_hbond>
-0.16

> <r_i_glide_ligand_efficiency>
-0.194837

> <r_i_glide_ligand_efficiency_ln>
-1.32807

> <r_i_glide_ligand_efficiency_sa>
-0.605404

> <r_i_glide_lipo>
-2.06236

> <r_i_glide_metal>
0

> <r_i_glide_rewards>
-1.17927

> <s_i_glide_gridfile>
wee1_glide-grid

> <s_m_Source_File>
wee1_decoys_glide_SP.sdf

> <s_m_Source_Path>
/Users/zhangxujun/Desktop

> <s_m_entry_id>
1451

> <s_m_entry_name>
wee1_decoys_glide_SP.1176

> <s_m_subgroup_title>
wee1_decoys_glide_SP

> <s_m_subgroupid>
wee1_decoys_glide_SP


$$$$
