ZINC20441797_1176
                    3D
 Schrodinger Suite 2024-2.
 64 68  0  0  1  0            999 V2000
   -0.2818   48.7612   24.9083 C   0  0  0  0  0  0
    0.3053   49.2970   26.0498 C   0  0  0  0  0  0
    0.2038   50.6613   26.3112 C   0  0  0  0  0  0
   -0.4907   51.4994   25.4415 C   0  0  0  0  0  0
   -1.0831   50.9650   24.2971 C   0  0  0  0  0  0
   -0.9692   49.5981   24.0275 C   0  0  0  0  0  0
   -1.6951   48.9374   22.5341 S   0  0  0  0  0  0
   -3.1055   49.3382   22.5408 O   0  0  0  0  0  0
   -1.2956   47.5283   22.4323 O   0  0  0  0  0  0
   -0.9207   49.8347   21.2345 N   0  0  0  0  0  0
   -0.2555   49.0944   20.1312 C   0  0  1  0  0  0
   -0.5285   48.0381   20.1649 H   0  0  0  0  0  0
   -0.7262   49.7313   18.8108 C   0  0  0  0  0  0
   -0.1538   48.9415   17.6250 C   0  0  0  0  0  0
    1.3867   48.9402   17.6708 C   0  0  0  0  0  0
    1.9693   48.4713   19.0302 C   0  0  0  0  0  0
    1.3014   49.0820   20.3036 C   0  0  1  0  0  0
    1.5711   48.4608   21.1574 H   0  0  0  0  0  0
    1.7789   50.5385   20.6304 N   0  3  0  0  0  0
    3.0062   51.1195   19.8802 C   0  0  0  0  0  0
    3.2398   52.5802   20.3323 C   0  0  0  0  0  0
    3.4478   52.6617   21.7872 N   0  0  0  0  0  0
    2.3047   52.1105   22.5274 C   0  0  0  0  0  0
    2.0807   50.6381   22.1483 C   0  0  0  0  0  0
    3.6999   54.0459   22.1992 C   0  0  0  0  0  0
    4.5095   54.1133   23.4876 C   0  0  0  0  0  0
    5.9147   54.0965   23.4053 C   0  0  0  0  0  0
    6.7045   54.2249   24.5521 C   0  0  0  0  0  0
    6.0576   54.3614   25.7741 C   0  0  0  0  0  0
    4.6950   54.3681   25.8665 C   0  0  0  0  0  0
    3.8823   54.2510   24.7404 C   0  0  0  0  0  0
    4.3375   54.5330   27.1678 O   0  0  0  0  0  0
    5.5313   54.4581   27.9077 C   0  0  0  0  0  0
    6.6037   54.5315   27.0040 O   0  0  0  0  0  0
    0.9544   51.3191   27.7222 Cl  0  0  0  0  0  0
   -0.1950   47.7003   24.7247 H   0  0  0  0  0  0
    0.8285   48.6445   26.7338 H   0  0  0  0  0  0
   -0.5734   52.5530   25.6520 H   0  0  0  0  0  0
   -1.6226   51.6110   23.6202 H   0  0  0  0  0  0
   -1.5105   50.5920   20.8862 H   0  0  0  0  0  0
   -0.4059   50.7740   18.7437 H   0  0  0  0  0  0
   -1.8166   49.7369   18.7554 H   0  0  0  0  0  0
   -0.4984   49.3713   16.6817 H   0  0  0  0  0  0
   -0.5253   47.9150   17.6492 H   0  0  0  0  0  0
    1.7441   49.9367   17.4139 H   0  0  0  0  0  0
    1.7759   48.3014   16.8755 H   0  0  0  0  0  0
    3.0477   48.6247   19.0180 H   0  0  0  0  0  0
    1.8276   47.3912   19.0677 H   0  0  0  0  0  0
    3.8745   50.4879   20.0742 H   0  0  0  0  0  0
    2.7870   51.1235   18.8164 H   0  0  0  0  0  0
    2.3605   53.1771   20.0794 H   0  0  0  0  0  0
    4.1067   52.9815   19.7986 H   0  0  0  0  0  0
    2.4745   52.1685   23.6040 H   0  0  0  0  0  0
    1.4115   52.6894   22.2797 H   0  0  0  0  0  0
    2.9436   50.0056   22.3738 H   0  0  0  0  0  0
    1.2166   50.2571   22.6837 H   0  0  0  0  0  0
    2.7686   54.6059   22.3058 H   0  0  0  0  0  0
    4.2688   54.5747   21.4318 H   0  0  0  0  0  0
    6.3998   53.9936   22.4467 H   0  0  0  0  0  0
    7.7799   54.2112   24.4802 H   0  0  0  0  0  0
    2.8067   54.2797   24.8247 H   0  0  0  0  0  0
    5.5900   55.2837   28.6233 H   0  0  0  0  0  0
    5.5723   53.5015   28.4307 H   0  0  0  0  0  0
    0.9850   51.1335   20.4298 H   0  0  0  0  0  0
  1  6  2  0  0  0
  1  2  1  0  0  0
  1 36  1  0  0  0
  2  3  2  0  0  0
  2 37  1  0  0  0
  3  4  1  0  0  0
  3 35  1  0  0  0
  4  5  2  0  0  0
  4 38  1  0  0  0
  5  6  1  0  0  0
  5 39  1  0  0  0
  6  7  1  0  0  0
  7  8  2  0  0  0
  7  9  2  0  0  0
  7 10  1  0  0  0
 10 11  1  0  0  0
 10 40  1  0  0  0
 11 12  1  0  0  0
 11 17  1  0  0  0
 11 13  1  0  0  0
 13 14  1  0  0  0
 13 41  1  0  0  0
 13 42  1  0  0  0
 14 15  1  0  0  0
 14 43  1  0  0  0
 14 44  1  0  0  0
 15 16  1  0  0  0
 15 45  1  0  0  0
 15 46  1  0  0  0
 16 17  1  0  0  0
 16 47  1  0  0  0
 16 48  1  0  0  0
 17 18  1  0  0  0
 17 19  1  0  0  0
 19 24  1  0  0  0
 19 20  1  0  0  0
 19 64  1  0  0  0
 20 21  1  0  0  0
 20 49  1  0  0  0
 20 50  1  0  0  0
 21 22  1  0  0  0
 21 51  1  0  0  0
 21 52  1  0  0  0
 22 23  1  0  0  0
 22 25  1  0  0  0
 23 24  1  0  0  0
 23 53  1  0  0  0
 23 54  1  0  0  0
 24 55  1  0  0  0
 24 56  1  0  0  0
 25 26  1  0  0  0
 25 57  1  0  0  0
 25 58  1  0  0  0
 26 31  2  0  0  0
 26 27  1  0  0  0
 27 28  2  0  0  0
 27 59  1  0  0  0
 28 29  1  0  0  0
 28 60  1  0  0  0
 29 34  1  0  0  0
 29 30  2  0  0  0
 30 31  1  0  0  0
 30 32  1  0  0  0
 31 61  1  0  0  0
 32 33  1  0  0  0
 33 34  1  0  0  0
 33 62  1  0  0  0
 33 63  1  0  0  0
M  CHG  1  19   1
M  END
> <i_i_glide_confnum>
58

> <i_i_glide_lignum>
1177

> <i_i_glide_posenum>
87

> <i_i_glide_rotatable_bonds>
6

> <i_m_Source_File_Index>
3753

> <b_m_subgroup_collapsed>
0

> <r_i_docking_score>
-3.73751

> <r_i_glide_ecoul>
-4.34639

> <r_i_glide_eff_state_penalty>
0

> <r_i_glide_einternal>
5.51677

> <r_i_glide_emodel>
-52.4869

> <r_i_glide_energy>
-46.7461

> <r_i_glide_erotb>
0.50275

> <r_i_glide_esite>
-0.00394466

> <r_i_glide_evdw>
-42.3997

> <r_i_glide_gscore>
-3.73751

> <r_i_glide_hbond>
0

> <r_i_glide_ligand_efficiency>
-0.113258

> <r_i_glide_ligand_efficiency_ln>
-0.831203

> <r_i_glide_ligand_efficiency_sa>
-0.363279

> <r_i_glide_lipo>
-2.00599

> <r_i_glide_metal>
0

> <r_i_glide_rewards>
0.541621

> <s_i_glide_gridfile>
wee1_glide-grid

> <s_m_Source_File>
wee1_decoys_glide_SP.sdf

> <s_m_Source_Path>
/Users/zhangxujun/Desktop

> <s_m_entry_id>
4028

> <s_m_entry_name>
wee1_decoys_glide_SP.3753

> <s_m_subgroup_title>
wee1_decoys_glide_SP

> <s_m_subgroupid>
wee1_decoys_glide_SP


$$$$
