@<TRIPOS>MOLECULE
ZINC15016240_5035
48   52    1
SMALL
USER_CHARGES


@<TRIPOS>ATOM
      1 C1          6.7047   53.8046   27.6939 C.2       1 UNK         0.0000 
      2 C2          5.5358   54.3216   28.1014 C.2       1 UNK         0.0000 
      3 C3          4.1784   53.7248   27.7986 C.3       1 UNK         0.0000 
      4 S4          3.3195   53.0727   29.2623 S.3       1 UNK         0.0000 
      5 C5          1.7180   52.5563   28.7155 C.ar      1 UNK         0.0000 
      6 N6          1.4255   52.6668   27.4020 N.ar      1 UNK         0.0000 
      7 C7          0.1832   52.2897   27.0134 C.ar      1 UNK         0.0000 
      8 C8         -0.7712   51.8193   27.9491 C.ar      1 UNK         0.0000 
      9 N9         -0.3687   51.7338   29.2588 N.ar      1 UNK         0.0000 
     10 N10         0.8623   52.0970   29.6549 N.ar      1 UNK         0.0000 
     11 C11        -2.2331   51.4668   27.6879 C.ar      1 UNK         0.0000 
     12 C12        -2.9717   50.8972   28.7523 C.ar      1 UNK         0.0000 
     13 C13        -4.3406   50.6721   28.6758 C.ar      1 UNK         0.0000 
     14 C14        -5.0244   50.9952   27.5160 C.ar      1 UNK         0.0000 
     15 C15        -4.3232   51.5093   26.4334 C.ar      1 UNK         0.0000 
     16 C16        -2.9397   51.7165   26.4773 C.ar      1 UNK         0.0000 
     17 N17        -2.3152   52.1546   25.3052 N.pl3     1 UNK         0.0000 
     18 C18        -0.9705   51.8636   24.9439 C.3       1 UNK         0.0000 
     19 H19        -0.8737   52.2935   23.9473 H         1 UNK         0.0000 
     20 O20         0.0180   52.4966   25.6657 O.3       1 UNK         0.0000 
     21 C21        -0.6089   50.4108   24.8056 C.ar      1 UNK         0.0000 
     22 C22        -1.0329   49.3544   25.6023 C.ar      1 UNK         0.0000 
     23 N23        -0.4496   48.2401   25.0958 N.pl3     1 UNK         0.0000 
     24 H24        -0.5089   47.3201   25.5146 H         1 UNK         0.0000 
     25 N25         0.3045   48.4968   24.0336 N.2       1 UNK         0.0000 
     26 C26         0.2643   49.8049   23.8561 C.ar      1 UNK         0.0000 
     27 C27         1.1078   50.4205   22.7622 C.ar      1 UNK         0.0000 
     28 C28         1.4859   49.6502   21.6498 C.ar      1 UNK         0.0000 
     29 C29         2.2862   50.1873   20.6446 C.ar      1 UNK         0.0000 
     30 C30         2.7167   51.5067   20.7393 C.ar      1 UNK         0.0000 
     31 C31         2.3573   52.2883   21.8334 C.ar      1 UNK         0.0000 
     32 C32         1.5644   51.7440   22.8415 C.ar      1 UNK         0.0000 
     33 Br33       -5.2733   49.9459   30.1676 Br        1 UNK         0.0000 
     34 H34         6.7507   52.8979   27.1082 H         1 UNK         0.0000 
     35 H35         7.6351   54.2891   27.9487 H         1 UNK         0.0000 
     36 H36         5.5393   55.2344   28.6833 H         1 UNK         0.0000 
     37 H37         3.5617   54.5009   27.3443 H         1 UNK         0.0000 
     38 H38         4.2834   52.9165   27.0721 H         1 UNK         0.0000 
     39 H39        -2.4983   50.6182   29.6833 H         1 UNK         0.0000 
     40 H40        -6.0893   50.8279   27.4475 H         1 UNK         0.0000 
     41 H41        -4.8661   51.7185   25.5230 H         1 UNK         0.0000 
     42 H42        -2.7115   53.0099   24.9467 H         1 UNK         0.0000 
     43 H43        -1.6574   49.2840   26.4808 H         1 UNK         0.0000 
     44 H44         1.1616   48.6247   21.5551 H         1 UNK         0.0000 
     45 H45         2.5754   49.5852   19.7943 H         1 UNK         0.0000 
     46 H46         3.3366   51.9225   19.9575 H         1 UNK         0.0000 
     47 H47         2.6997   53.3108   21.9019 H         1 UNK         0.0000 
     48 H48         1.3392   52.3634   23.6916 H         1 UNK         0.0000 
@<TRIPOS>BOND
     1    1    2 2    
     2    1   34 1    
     3    1   35 1    
     4    2    3 1    
     5    2   36 1    
     6    3    4 1    
     7    3   37 1    
     8    3   38 1    
     9    4    5 1    
    10    5   10 ar   
    11    5    6 ar   
    12    6    7 ar   
    13    7   20 1    
    14    7    8 ar   
    15    8    9 ar   
    16    8   11 1    
    17    9   10 ar   
    18   11   16 ar   
    19   11   12 ar   
    20   12   13 ar   
    21   12   39 1    
    22   13   14 ar   
    23   13   33 1    
    24   14   15 ar   
    25   14   40 1    
    26   15   16 ar   
    27   15   41 1    
    28   16   17 1    
    29   17   18 1    
    30   17   42 1    
    31   18   19 1    
    32   18   20 1    
    33   18   21 1    
    34   21   26 ar   
    35   21   22 ar   
    36   22   23 ar   
    37   22   43 1    
    38   23   24 1    
    39   23   25 ar   
    40   25   26 ar   
    41   26   27 1    
    42   27   32 ar   
    43   27   28 ar   
    44   28   29 ar   
    45   28   44 1    
    46   29   30 ar   
    47   29   45 1    
    48   30   31 ar   
    49   30   46 1    
    50   31   32 ar   
    51   31   47 1    
    52   32   48 1    
@<TRIPOS>SUBSTRUCTURE
     1 UNK         1 GROUP             0       ****    0 ROOT    
