@<TRIPOS>MOLECULE
ZINC39689848_5913
59   62    1
SMALL
USER_CHARGES


@<TRIPOS>ATOM
      1 C1          3.5092   52.2963   30.8826 C.3       1 UNK         0.0000 
      2 C2          3.4007   53.6049   30.0821 C.3       1 UNK         0.0000 
      3 C3          3.2226   53.4006   28.5584 C.3       1 UNK         0.0000 
      4 H4          3.9893   52.6872   28.2454 H         1 UNK         0.0000 
      5 C5          3.4114   54.7313   27.7943 C.3       1 UNK         0.0000 
      6 C6          3.4972   54.5037   26.2701 C.3       1 UNK         0.0000 
      7 C7          2.3195   53.6330   25.8558 C.2       1 UNK         0.0000 
      8 C8          1.5697   52.8383   26.7347 C.2       1 UNK         0.0000 
      9 C9          0.6442   52.0394   26.0527 C.2       1 UNK         0.0000 
     10 C10         0.6710   52.2059   24.6642 C.2       1 UNK         0.0000 
     11 S11         1.8021   53.4478   24.2086 S.3       1 UNK         0.0000 
     12 C12        -0.1395   51.5589   23.6627 C.2       1 UNK         0.0000 
     13 O13        -0.3755   52.0975   22.5801 O.2       1 UNK         0.0000 
     14 N14        -0.5461   50.3275   24.0368 N.am      1 UNK         0.0000 
     15 C15        -1.2334   49.3410   23.3085 C.ar      1 UNK         0.0000 
     16 C16        -1.3615   48.1087   23.9527 C.ar      1 UNK         0.0000 
     17 C17        -1.9835   47.0455   23.3070 C.ar      1 UNK         0.0000 
     18 C18        -2.4894   47.2096   22.0153 C.ar      1 UNK         0.0000 
     19 C19        -2.3926   48.4458   21.3755 C.ar      1 UNK         0.0000 
     20 C20        -1.7646   49.5115   22.0185 C.ar      1 UNK         0.0000 
     21 S21        -3.2235   45.8119   21.1617 S.o2      1 UNK         0.0000 
     22 O22        -3.1600   44.6699   22.0822 O.2       1 UNK         0.0000 
     23 O23        -4.5136   46.2539   20.6197 O.2       1 UNK         0.0000 
     24 N24        -2.1330   45.4467   19.8124 N.pl3     1 UNK         0.0000 
     25 C25        -2.5427   45.7247   18.4177 C.3       1 UNK         0.0000 
     26 C26        -1.8549   44.7128   17.4702 C.3       1 UNK         0.0000 
     27 C27        -0.3198   44.6556   17.6826 C.3       1 UNK         0.0000 
     28 C28         0.0923   44.5033   19.1780 C.3       1 UNK         0.0000 
     29 H29         1.1578   44.6896   19.2820 H         1 UNK         0.0000 
     30 C30        -0.6758   45.5263   20.0629 C.3       1 UNK         0.0000 
     31 C31        -0.0801   43.0531   19.7026 C.2       1 UNK         0.0000 
     32 O32         0.2518   42.0967   18.9634 O.co2     1 UNK         0.0000 
     33 O33        -0.4951   42.8967   20.8734 O.co2     1 UNK         0.0000 
     34 C34         1.8261   52.7978   28.2404 C.3       1 UNK         0.0000 
     35 H35         3.6732   52.4943   31.9426 H         1 UNK         0.0000 
     36 H36         4.3494   51.6969   30.5303 H         1 UNK         0.0000 
     37 H37         2.6013   51.6975   30.8012 H         1 UNK         0.0000 
     38 H38         2.5744   54.1995   30.4746 H         1 UNK         0.0000 
     39 H39         4.3033   54.1887   30.2646 H         1 UNK         0.0000 
     40 H40         2.6314   55.4453   28.0673 H         1 UNK         0.0000 
     41 H41         4.3378   55.2067   28.1164 H         1 UNK         0.0000 
     42 H42         3.5042   55.4538   25.7379 H         1 UNK         0.0000 
     43 H43         4.4332   53.9997   26.0245 H         1 UNK         0.0000 
     44 H44        -0.0085   51.3465   26.5665 H         1 UNK         0.0000 
     45 H45        -0.2565   50.0313   24.9560 H         1 UNK         0.0000 
     46 H46        -0.9634   47.9590   24.9486 H         1 UNK         0.0000 
     47 H47        -2.0537   46.0972   23.8142 H         1 UNK         0.0000 
     48 H48        -2.7851   48.5745   20.3757 H         1 UNK         0.0000 
     49 H49        -1.6907   50.4485   21.4898 H         1 UNK         0.0000 
     50 H50        -3.6281   45.6817   18.3288 H         1 UNK         0.0000 
     51 H51        -2.1957   46.7235   18.1496 H         1 UNK         0.0000 
     52 H52        -2.2830   43.7219   17.6297 H         1 UNK         0.0000 
     53 H53        -2.0752   44.9697   16.4339 H         1 UNK         0.0000 
     54 H54         0.1499   43.9045   17.0453 H         1 UNK         0.0000 
     55 H55         0.0576   45.6175   17.3352 H         1 UNK         0.0000 
     56 H56        -0.3486   46.5251   19.7721 H         1 UNK         0.0000 
     57 H57        -0.4957   45.3945   21.1287 H         1 UNK         0.0000 
     58 H58         1.7590   51.7717   28.6054 H         1 UNK         0.0000 
     59 H59         1.0394   53.3579   28.7483 H         1 UNK         0.0000 
@<TRIPOS>BOND
     1    1    2 1    
     2    1   35 1    
     3    1   36 1    
     4    1   37 1    
     5    2    3 1    
     6    2   38 1    
     7    2   39 1    
     8    3    4 1    
     9    3   34 1    
    10    3    5 1    
    11    5    6 1    
    12    5   40 1    
    13    5   41 1    
    14    6    7 1    
    15    6   42 1    
    16    6   43 1    
    17    7   11 1    
    18    7    8 2    
    19    8    9 1    
    20    8   34 1    
    21    9   10 2    
    22    9   44 1    
    23   10   11 1    
    24   10   12 1    
    25   12   13 2    
    26   12   14 am   BACKBONE|DICT|INTERRES
    27   14   15 1    
    28   14   45 1    
    29   15   20 ar   
    30   15   16 ar   
    31   16   17 ar   
    32   16   46 1    
    33   17   18 ar   
    34   17   47 1    
    35   18   19 ar   
    36   18   21 1    
    37   19   20 ar   
    38   19   48 1    
    39   20   49 1    
    40   21   22 2    
    41   21   23 2    
    42   21   24 1    
    43   24   30 1    
    44   24   25 1    
    45   25   26 1    
    46   25   50 1    
    47   25   51 1    
    48   26   27 1    
    49   26   52 1    
    50   26   53 1    
    51   27   28 1    
    52   27   54 1    
    53   27   55 1    
    54   28   29 1    
    55   28   30 1    
    56   28   31 1    
    57   30   56 1    
    58   30   57 1    
    59   31   32 2    
    60   31   33 1    
    61   34   58 1    
    62   34   59 1    
@<TRIPOS>SUBSTRUCTURE
     1 UNK         1 GROUP             0       ****    0 ROOT    
