@<TRIPOS>MOLECULE
ZINC43898541_2422
60   62    1
SMALL
USER_CHARGES


@<TRIPOS>ATOM
      1 C1          8.1348   54.7409   15.2559 C.3       1 UNK         0.0000 
      2 C2          8.0630   54.8760   16.7725 C.2       1 UNK         0.0000 
      3 C3          9.0782   55.5220   17.4982 C.2       1 UNK         0.0000 
      4 S4          8.6586   55.6965   19.1650 S.3       1 UNK         0.0000 
      5 C5          7.1353   54.9002   18.9307 C.2       1 UNK         0.0000 
      6 C6          6.9655   54.4719   17.6008 C.2       1 UNK         0.0000 
      7 C7          5.7518   53.7832   17.1540 C.2       1 UNK         0.0000 
      8 O8          4.6862   53.8978   17.7660 O.2       1 UNK         0.0000 
      9 N9          5.8895   52.9913   16.0778 N.am      1 UNK         0.0000 
     10 C10         4.8157   52.1794   15.5152 C.3       1 UNK         0.0000 
     11 N11         6.2495   54.6547   19.9801 N.am      1 UNK         0.0000 
     12 C12         6.3038   55.0519   21.2706 C.2       1 UNK         0.0000 
     13 O13         7.1567   55.8071   21.7373 O.2       1 UNK         0.0000 
     14 C14         5.2143   54.4966   22.1628 C.ar      1 UNK         0.0000 
     15 C15         5.4069   54.4418   23.5537 C.ar      1 UNK         0.0000 
     16 C16         4.3760   54.0296   24.3989 C.ar      1 UNK         0.0000 
     17 C17         3.1524   53.6421   23.8492 C.ar      1 UNK         0.0000 
     18 C18         2.9625   53.6715   22.4702 C.ar      1 UNK         0.0000 
     19 C19         3.9804   54.0968   21.6311 C.ar      1 UNK         0.0000 
     20 S20         1.7406   53.1107   24.8099 S.o2      1 UNK         0.0000 
     21 O21         0.7084   54.0951   24.4817 O.2       1 UNK         0.0000 
     22 O22         1.5041   51.7094   24.4463 O.2       1 UNK         0.0000 
     23 N23         2.0926   53.1801   26.5698 N.pl3     1 UNK         0.0000 
     24 C24         2.5933   54.3894   27.2666 C.3       1 UNK         0.0000 
     25 C25         1.6265   54.7915   28.4064 C.3       1 UNK         0.0000 
     26 H26         0.6529   54.9943   27.9645 H         1 UNK         0.0000 
     27 C27         1.4761   53.5878   29.3728 C.3       1 UNK         0.0000 
     28 C28         0.9903   52.2994   28.6552 C.3       1 UNK         0.0000 
     29 H29         1.1185   51.4738   29.3576 H         1 UNK         0.0000 
     30 C30         1.9054   51.9923   27.4446 C.3       1 UNK         0.0000 
     31 C31        -0.4958   52.3468   28.2582 C.3       1 UNK         0.0000 
     32 C32         2.0862   56.0614   29.1421 C.3       1 UNK         0.0000 
     33 C33        10.4089   56.0715   17.0294 C.3       1 UNK         0.0000 
     34 H34         8.7668   55.4995   14.7952 H         1 UNK         0.0000 
     35 H35         8.5075   53.7636   14.9478 H         1 UNK         0.0000 
     36 H36         7.1629   54.8852   14.7841 H         1 UNK         0.0000 
     37 H37         6.7951   52.9220   15.6401 H         1 UNK         0.0000 
     38 H38         5.2311   51.3879   14.8908 H         1 UNK         0.0000 
     39 H39         4.1574   52.7926   14.8993 H         1 UNK         0.0000 
     40 H40         4.2152   51.7067   16.2950 H         1 UNK         0.0000 
     41 H41         5.4308   54.1329   19.6962 H         1 UNK         0.0000 
     42 H42         6.3495   54.7446   23.9891 H         1 UNK         0.0000 
     43 H43         4.5470   53.9945   25.4634 H         1 UNK         0.0000 
     44 H44         2.0120   53.3844   22.0413 H         1 UNK         0.0000 
     45 H45         3.7704   54.1399   20.5709 H         1 UNK         0.0000 
     46 H46         3.5825   54.1519   27.6608 H         1 UNK         0.0000 
     47 H47         2.7401   55.1816   26.5464 H         1 UNK         0.0000 
     48 H48         2.4338   53.3971   29.8602 H         1 UNK         0.0000 
     49 H49         0.7984   53.8486   30.1877 H         1 UNK         0.0000 
     50 H50         1.4904   51.1721   26.8615 H         1 UNK         0.0000 
     51 H51         2.8968   51.6968   27.7843 H         1 UNK         0.0000 
     52 H52        -0.7089   53.1443   27.5466 H         1 UNK         0.0000 
     53 H53        -0.8076   51.4067   27.8004 H         1 UNK         0.0000 
     54 H54        -1.1244   52.4968   29.1358 H         1 UNK         0.0000 
     55 H55         3.0986   55.9538   29.5308 H         1 UNK         0.0000 
     56 H56         2.0733   56.9278   28.4825 H         1 UNK         0.0000 
     57 H57         1.4292   56.2952   29.9813 H         1 UNK         0.0000 
     58 H58        10.4295   57.1600   17.0780 H         1 UNK         0.0000 
     59 H59        11.2265   55.7097   17.6530 H         1 UNK         0.0000 
     60 H60        10.6540   55.7899   16.0067 H         1 UNK         0.0000 
@<TRIPOS>BOND
     1    1    2 1    
     2    1   34 1    
     3    1   35 1    
     4    1   36 1    
     5    2    6 1    
     6    2    3 2    
     7    3    4 1    
     8    3   33 1    
     9    4    5 1    
    10    5    6 2    
    11    5   11 am   BACKBONE|DICT|INTERRES
    12    6    7 1    
    13    7    8 2    
    14    7    9 am   BACKBONE|DICT|INTERRES
    15    9   10 1    
    16    9   37 1    
    17   10   38 1    
    18   10   39 1    
    19   10   40 1    
    20   11   12 am   BACKBONE|DICT|INTERRES
    21   11   41 1    
    22   12   13 2    
    23   12   14 1    
    24   14   19 ar   
    25   14   15 ar   
    26   15   16 ar   
    27   15   42 1    
    28   16   17 ar   
    29   16   43 1    
    30   17   18 ar   
    31   17   20 1    
    32   18   19 ar   
    33   18   44 1    
    34   19   45 1    
    35   20   21 2    
    36   20   22 2    
    37   20   23 1    
    38   23   30 1    
    39   23   24 1    
    40   24   25 1    
    41   24   46 1    
    42   24   47 1    
    43   25   26 1    
    44   25   27 1    
    45   25   32 1    
    46   27   28 1    
    47   27   48 1    
    48   27   49 1    
    49   28   29 1    
    50   28   30 1    
    51   28   31 1    
    52   30   50 1    
    53   30   51 1    
    54   31   52 1    
    55   31   53 1    
    56   31   54 1    
    57   32   55 1    
    58   32   56 1    
    59   32   57 1    
    60   33   58 1    
    61   33   59 1    
    62   33   60 1    
@<TRIPOS>SUBSTRUCTURE
     1 UNK         1 GROUP             0       ****    0 ROOT    
