@<TRIPOS>MOLECULE
ZINC63531064_6073
49   52    1
SMALL
USER_CHARGES


@<TRIPOS>ATOM
      1 C1          4.7671   54.2397   19.9443 C.3       1 UNK         0.0000 
      2 O2          5.5001   54.5592   21.1278 O.3       1 UNK         0.0000 
      3 C3          4.9040   54.4184   22.3457 C.2       1 UNK         0.0000 
      4 C4          5.8070   54.3364   23.4910 C.2       1 UNK         0.0000 
      5 C5          5.2933   54.0965   24.7133 C.2       1 UNK         0.0000 
      6 C6          3.8466   53.9231   24.8960 C.2       1 UNK         0.0000 
      7 C7          3.1237   53.5395   25.9658 C.2       1 UNK         0.0000 
      8 C8          1.6545   53.5398   25.5773 C.3       1 UNK         0.0000 
      9 H9          1.1045   54.2681   26.1540 H         1 UNK         0.0000 
     10 N10         1.7477   53.9671   24.1577 N.pl3     1 UNK         0.0000 
     11 C11         3.0046   54.0956   23.7989 C.2       1 UNK         0.0000 
     12 C12         3.5498   54.3225   22.5307 C.2       1 UNK         0.0000 
     13 C13         0.9089   52.1905   25.6415 C.2       1 UNK         0.0000 
     14 O14         1.1047   51.3329   24.7814 O.2       1 UNK         0.0000 
     15 N15         0.0263   52.0292   26.6444 N.am      1 UNK         0.0000 
     16 C16        -0.7557   50.8137   26.9141 C.3       1 UNK         0.0000 
     17 C17        -1.4639   50.1780   25.7144 C.ar      1 UNK         0.0000 
     18 C18        -1.0581   48.9103   25.2814 C.ar      1 UNK         0.0000 
     19 C19        -1.6761   48.3030   24.1891 C.ar      1 UNK         0.0000 
     20 C20        -2.7167   48.9534   23.5280 C.ar      1 UNK         0.0000 
     21 C21        -3.1413   50.2075   23.9657 C.ar      1 UNK         0.0000 
     22 C22        -2.5235   50.8235   25.0550 C.ar      1 UNK         0.0000 
     23 Br23       -3.1570   52.5328   25.6156 Br        1 UNK         0.0000 
     24 S24         3.7576   53.0728   27.5739 S.3       1 UNK         0.0000 
     25 C25         2.5145   53.6340   28.6901 C.ar      1 UNK         0.0000 
     26 C26         2.3949   54.9957   28.9589 C.ar      1 UNK         0.0000 
     27 C27         1.4485   55.4355   29.8796 C.ar      1 UNK         0.0000 
     28 C28         0.6284   54.5054   30.5185 C.ar      1 UNK         0.0000 
     29 C29         0.7481   53.1425   30.2538 C.ar      1 UNK         0.0000 
     30 C30         1.7025   52.7039   29.3397 C.ar      1 UNK         0.0000 
     31 H31         5.4210   54.3525   19.0787 H         1 UNK         0.0000 
     32 H32         4.4230   53.2030   19.9577 H         1 UNK         0.0000 
     33 H33         3.9086   54.8969   19.7865 H         1 UNK         0.0000 
     34 H34         6.8718   54.4604   23.3528 H         1 UNK         0.0000 
     35 H35         5.9746   54.0262   25.5519 H         1 UNK         0.0000 
     36 H36         2.8879   54.3897   21.6828 H         1 UNK         0.0000 
     37 H37        -0.0362   52.7539   27.3433 H         1 UNK         0.0000 
     38 H38        -1.5070   51.0380   27.6731 H         1 UNK         0.0000 
     39 H39        -0.0963   50.0920   27.3966 H         1 UNK         0.0000 
     40 H40        -0.2593   48.3920   25.7962 H         1 UNK         0.0000 
     41 H41        -1.3488   47.3285   23.8605 H         1 UNK         0.0000 
     42 H42        -3.1983   48.4866   22.6835 H         1 UNK         0.0000 
     43 H43        -3.9547   50.7061   23.4618 H         1 UNK         0.0000 
     44 H44         3.0492   55.7054   28.4793 H         1 UNK         0.0000 
     45 H45         1.3579   56.4875   30.1111 H         1 UNK         0.0000 
     46 H46        -0.0986   54.8450   31.2420 H         1 UNK         0.0000 
     47 H47         0.1118   52.4322   30.7676 H         1 UNK         0.0000 
     48 H48         1.8072   51.6474   29.1368 H         1 UNK         0.0000 
     49 H49         0.9509   54.0243   23.5292 H         1 UNK         0.0000 
@<TRIPOS>BOND
     1    1    2 1    
     2    1   31 1    
     3    1   32 1    
     4    1   33 1    
     5    2    3 1    
     6    3   12 2    
     7    3    4 1    
     8    4    5 2    
     9    4   34 1    
    10    5    6 1    
    11    5   35 1    
    12    6   11 1    
    13    6    7 2    
    14    7    8 1    
    15    7   24 1    
    16    8    9 1    
    17    8   10 1    
    18    8   13 1    
    19   10   11 2    
    20   10   49 1    
    21   11   12 1    
    22   12   36 1    
    23   13   14 2    
    24   13   15 am   BACKBONE|DICT|INTERRES
    25   15   16 1    
    26   15   37 1    
    27   16   17 1    
    28   16   38 1    
    29   16   39 1    
    30   17   22 ar   
    31   17   18 ar   
    32   18   19 ar   
    33   18   40 1    
    34   19   20 ar   
    35   19   41 1    
    36   20   21 ar   
    37   20   42 1    
    38   21   22 ar   
    39   21   43 1    
    40   22   23 1    
    41   24   25 1    
    42   25   30 ar   
    43   25   26 ar   
    44   26   27 ar   
    45   26   44 1    
    46   27   28 ar   
    47   27   45 1    
    48   28   29 ar   
    49   28   46 1    
    50   29   30 ar   
    51   29   47 1    
    52   30   48 1    
@<TRIPOS>SUBSTRUCTURE
     1 UNK         1 GROUP             0       ****    0 ROOT    
