ZINC18201161_479
                    3D
 Schrodinger Suite 2024-2.
 55 58  0  0  1  0            999 V2000
    6.4128   54.1212   27.7344 C   0  0  0  0  0  0
    5.0068   53.8581   27.2051 C   0  0  0  0  0  0
    4.0675   53.2967   27.9965 C   0  0  0  0  0  0
    2.7677   53.0105   27.4262 C   0  0  0  0  0  0
    2.4938   53.3171   26.1294 C   0  0  0  0  0  0
    3.4904   54.0445   25.3241 C   0  0  0  0  0  0
    3.1819   54.5002   24.2245 O   0  0  0  0  0  0
    4.7472   54.2201   25.8843 N   0  0  0  0  0  0
    5.7379   54.8860   25.0011 C   0  0  0  0  0  0
    6.3775   53.9562   23.9446 C   0  0  0  0  0  0
    6.2411   54.4966   22.5391 C   0  0  0  0  0  0
    7.1217   55.2988   21.8235 C   0  0  0  0  0  0
    6.5491   55.4693   20.5937 N   0  0  0  0  0  0
    6.9211   55.9834   19.8064 H   0  0  0  0  0  0
    5.3714   54.7757   20.6442 C   0  0  0  0  0  0
    5.1751   54.2006   21.8054 N   0  0  0  0  0  0
    1.1083   52.9668   25.5077 C   0  0  2  0  0  0
    0.7047   53.9021   25.1277 H   0  0  0  0  0  0
    0.1587   52.4963   26.6316 C   0  0  0  0  0  0
    0.6171   52.1946   27.8654 C   0  0  0  0  0  0
    1.8951   52.3947   28.2633 O   0  0  0  0  0  0
   -0.1004   51.7109   28.9260 N   0  0  0  0  0  0
   -1.2257   52.3294   26.3257 C   0  0  0  0  0  0
   -2.3513   52.2331   26.0750 N   0  0  0  0  0  0
    1.1002   52.0429   24.2670 C   0  0  0  0  0  0
    0.7564   50.6880   24.3788 C   0  0  0  0  0  0
    0.6919   49.8478   23.2553 C   0  0  0  0  0  0
    1.0312   50.3696   21.9998 C   0  0  0  0  0  0
    1.3411   51.7266   21.8668 C   0  0  0  0  0  0
    1.3468   52.5538   22.9858 C   0  0  0  0  0  0
    1.7533   52.4732   20.1643 Br  0  0  0  0  0  0
    1.0262   49.5568   20.8911 O   0  0  0  0  0  0
    2.2842   48.9500   20.6230 C   0  0  0  0  0  0
    0.2931   48.5263   23.3117 O   0  0  0  0  0  0
   -0.1075   47.9759   24.5611 C   0  0  0  0  0  0
    6.5195   53.8062   28.7717 H   0  0  0  0  0  0
    7.1491   53.5690   27.1487 H   0  0  0  0  0  0
    6.6519   55.1849   27.6910 H   0  0  0  0  0  0
    4.2854   53.0157   29.0155 H   0  0  0  0  0  0
    5.2447   55.7044   24.4826 H   0  0  0  0  0  0
    6.5204   55.3802   25.5707 H   0  0  0  0  0  0
    7.4225   53.7800   24.1974 H   0  0  0  0  0  0
    5.9172   52.9705   23.9802 H   0  0  0  0  0  0
    8.0798   55.7281   22.0785 H   0  0  0  0  0  0
    4.7133   54.7436   19.7875 H   0  0  0  0  0  0
   -0.9859   51.2430   28.7888 H   0  0  0  0  0  0
    0.2346   51.8081   29.8754 H   0  0  0  0  0  0
    0.5322   50.2909   25.3557 H   0  0  0  0  0  0
    1.5400   53.6029   22.8290 H   0  0  0  0  0  0
    2.2012   48.3111   19.7436 H   0  0  0  0  0  0
    2.6178   48.3280   21.4555 H   0  0  0  0  0  0
    3.0527   49.6968   20.4165 H   0  0  0  0  0  0
   -0.3822   46.9284   24.4342 H   0  0  0  0  0  0
    0.7050   48.0199   25.2820 H   0  0  0  0  0  0
   -0.9740   48.4957   24.9733 H   0  0  0  0  0  0
  1  2  1  0  0  0
  1 36  1  0  0  0
  1 37  1  0  0  0
  1 38  1  0  0  0
  2  8  1  0  0  0
  2  3  2  0  0  0
  3  4  1  0  0  0
  3 39  1  0  0  0
  4 21  1  0  0  0
  4  5  2  0  0  0
  5  6  1  0  0  0
  5 17  1  0  0  0
  6  7  2  0  0  0
  6  8  1  0  0  0
  8  9  1  0  0  0
  9 10  1  0  0  0
  9 40  1  0  0  0
  9 41  1  0  0  0
 10 11  1  0  0  0
 10 42  1  0  0  0
 10 43  1  0  0  0
 11 16  1  0  0  0
 11 12  2  0  0  0
 12 13  1  0  0  0
 12 44  1  0  0  0
 13 14  1  0  0  0
 13 15  1  0  0  0
 15 16  2  0  0  0
 15 45  1  0  0  0
 17 18  1  0  0  0
 17 19  1  0  0  0
 17 25  1  0  0  0
 19 20  2  0  0  0
 19 23  1  0  0  0
 20 21  1  0  0  0
 20 22  1  0  0  0
 22 46  1  0  0  0
 22 47  1  0  0  0
 23 24  3  0  0  0
 25 30  2  0  0  0
 25 26  1  0  0  0
 26 27  2  0  0  0
 26 48  1  0  0  0
 27 28  1  0  0  0
 27 34  1  0  0  0
 28 29  2  0  0  0
 28 32  1  0  0  0
 29 30  1  0  0  0
 29 31  1  0  0  0
 30 49  1  0  0  0
 32 33  1  0  0  0
 33 50  1  0  0  0
 33 51  1  0  0  0
 33 52  1  0  0  0
 34 35  1  0  0  0
 35 53  1  0  0  0
 35 54  1  0  0  0
 35 55  1  0  0  0
M  END
> <i_i_glide_confnum>
30

> <i_i_glide_lignum>
480

> <i_i_glide_posenum>
255

> <i_i_glide_rotatable_bonds>
7

> <i_m_Source_File_Index>
5670

> <b_m_subgroup_collapsed>
0

> <r_i_docking_score>
-5.91455

> <r_i_glide_ecoul>
-1.6171

> <r_i_glide_eff_state_penalty>
0

> <r_i_glide_einternal>
10.5565

> <r_i_glide_emodel>
-59.286

> <r_i_glide_energy>
-47.2414

> <r_i_glide_erotb>
0.312356

> <r_i_glide_esite>
-0.0333236

> <r_i_glide_evdw>
-45.6243

> <r_i_glide_gscore>
-5.91455

> <r_i_glide_hbond>
0

> <r_i_glide_ligand_efficiency>
-0.179229

> <r_i_glide_ligand_efficiency_ln>
-1.31536

> <r_i_glide_ligand_efficiency_sa>
-0.574882

> <r_i_glide_lipo>
-3.10881

> <r_i_glide_metal>
0

> <r_i_glide_rewards>
-0.560991

> <s_i_glide_gridfile>
wee1_glide-grid

> <s_m_Source_File>
wee1_decoys_glide_SP.sdf

> <s_m_Source_Path>
/Users/zhangxujun/Desktop

> <s_m_entry_id>
5945

> <s_m_entry_name>
wee1_decoys_glide_SP.5670

> <s_m_subgroup_title>
wee1_decoys_glide_SP

> <s_m_subgroupid>
wee1_decoys_glide_SP


$$$$
