@<TRIPOS>MOLECULE
ZINC12038105_4821
72   76    1
SMALL
USER_CHARGES


@<TRIPOS>ATOM
      1 C1          1.8378   50.7607   15.4999 C.3       1 UNK         0.0000 
      2 C2          0.8816   50.9922   16.6835 C.3       1 UNK         0.0000 
      3 C3          1.5256   50.8250   18.0953 C.3       1 UNK         0.0000 
      4 C4          0.4380   50.9964   19.1479 C.2       1 UNK         0.0000 
      5 O5         -0.3046   51.9727   19.2866 O.2       1 UNK         0.0000 
      6 N6          0.5499   49.9131   19.9472 N.am      1 UNK         0.0000 
      7 C7          1.3556   48.9345   19.4555 C.2       1 UNK         0.0000 
      8 O8          1.3717   47.7451   19.7760 O.2       1 UNK         0.0000 
      9 N9          1.9023   49.4600   18.3532 N.am      1 UNK         0.0000 
     10 C10        -0.1470   49.8063   21.2429 C.3       1 UNK         0.0000 
     11 C11         0.5513   50.5123   22.4325 C.3       1 UNK         0.0000 
     12 H12         1.6039   50.2238   22.4510 H         1 UNK         0.0000 
     13 C13         0.4527   52.0693   22.4198 C.3       1 UNK         0.0000 
     14 O14         1.1807   52.6121   23.5258 O.3       1 UNK         0.0000 
     15 C15         0.8381   52.0202   24.7218 C.ar      1 UNK         0.0000 
     16 C16         1.0962   52.7291   25.8914 C.ar      1 UNK         0.0000 
     17 C17         0.7687   52.1720   27.1259 C.ar      1 UNK         0.0000 
     18 C18         0.1878   50.9043   27.1864 C.ar      1 UNK         0.0000 
     19 C19        -0.0465   50.1747   26.0189 C.ar      1 UNK         0.0000 
     20 C20         0.2837   50.7276   24.7831 C.ar      1 UNK         0.0000 
     21 O21        -0.0329   50.0086   23.6444 O.3       1 UNK         0.0000 
     22 C22         2.7436   51.7902   18.3744 C.3       1 UNK         0.0000 
     23 C23         2.4982   53.2955   18.0948 C.3       1 UNK         0.0000 
     24 C24         3.7388   54.1853   18.3472 C.3       1 UNK         0.0000 
     25 C25         4.6660   52.4852   19.9805 C.3       1 UNK         0.0000 
     26 C26         3.4320   51.6078   19.7650 C.3       1 UNK         0.0000 
     27 C27         5.4091   54.8997   20.1423 C.3       1 UNK         0.0000 
     28 C28         5.7928   55.0101   21.6268 C.2       1 UNK         0.0000 
     29 C29         5.0378   54.4944   22.6321 C.2       1 UNK         0.0000 
     30 C30         5.2561   54.4661   24.0977 C.ar      1 UNK         0.0000 
     31 C31         4.1186   54.5109   24.9114 C.ar      1 UNK         0.0000 
     32 C32         4.2362   54.4959   26.2967 C.ar      1 UNK         0.0000 
     33 C33         5.4942   54.4247   26.8805 C.ar      1 UNK         0.0000 
     34 C34         6.6327   54.3554   26.0867 C.ar      1 UNK         0.0000 
     35 C35         6.5191   54.3725   24.6970 C.ar      1 UNK         0.0000 
     36 C36         7.0838   55.7924   21.8308 C.3       1 UNK         0.0000 
     37 H37         1.3143   50.8622   14.5505 H         1 UNK         0.0000 
     38 H38         2.6603   51.4729   15.4945 H         1 UNK         0.0000 
     39 H39         2.2692   49.7593   15.5265 H         1 UNK         0.0000 
     40 H40         0.0511   50.2914   16.5729 H         1 UNK         0.0000 
     41 H41         0.4367   51.9847   16.5832 H         1 UNK         0.0000 
     42 H42         2.7547   49.1072   17.9223 H         1 UNK         0.0000 
     43 H43        -1.1675   50.1795   21.1423 H         1 UNK         0.0000 
     44 H44        -0.2579   48.7488   21.4991 H         1 UNK         0.0000 
     45 H45         0.8701   52.5098   21.5178 H         1 UNK         0.0000 
     46 H46        -0.5966   52.3727   22.4831 H         1 UNK         0.0000 
     47 H47         1.5156   53.7195   25.8391 H         1 UNK         0.0000 
     48 H48         0.9476   52.7237   28.0355 H         1 UNK         0.0000 
     49 H49        -0.0952   50.4966   28.1451 H         1 UNK         0.0000 
     50 H50        -0.4984   49.1935   26.0813 H         1 UNK         0.0000 
     51 H51         3.5046   51.5075   17.6513 H         1 UNK         0.0000 
     52 H52         1.6657   53.6501   18.6942 H         1 UNK         0.0000 
     53 H53         2.1727   53.4416   17.0644 H         1 UNK         0.0000 
     54 H54         3.4639   55.2389   18.2701 H         1 UNK         0.0000 
     55 H55         4.5673   53.9633   17.6696 H         1 UNK         0.0000 
     56 H56         5.4780   52.2735   19.2818 H         1 UNK         0.0000 
     57 H57         5.0320   52.3572   20.9983 H         1 UNK         0.0000 
     58 H58         3.7389   50.5689   19.8939 H         1 UNK         0.0000 
     59 H59         2.7272   51.7894   20.5702 H         1 UNK         0.0000 
     60 H60         5.1080   55.8793   19.7716 H         1 UNK         0.0000 
     61 H61         6.2525   54.5494   19.5412 H         1 UNK         0.0000 
     62 H62         4.1237   53.9939   22.3513 H         1 UNK         0.0000 
     63 H63         3.1356   54.5763   24.4694 H         1 UNK         0.0000 
     64 H64         3.3612   54.5443   26.9244 H         1 UNK         0.0000 
     65 H65         5.5931   54.4100   27.9554 H         1 UNK         0.0000 
     66 H66         7.5925   54.2721   26.5649 H         1 UNK         0.0000 
     67 H67         7.4171   54.2799   24.1008 H         1 UNK         0.0000 
     68 H68         7.9460   55.2052   21.5080 H         1 UNK         0.0000 
     69 H69         7.0558   56.7118   21.2452 H         1 UNK         0.0000 
     70 H70         7.2505   56.0939   22.8642 H         1 UNK         0.0000 
     71 N71         4.2299   53.9530   19.7949 N.4       1 UNK         0.0000 
     72 H72         3.4636   54.1705   20.4199 H         1 UNK         0.0000 
@<TRIPOS>BOND
     1    1    2 1    
     2    1   37 1    
     3    1   38 1    
     4    1   39 1    
     5    2    3 1    
     6    2   40 1    
     7    2   41 1    
     8    3    9 1    
     9    3    4 1    
    10    3   22 1    
    11    4    5 2    
    12    4    6 am   BACKBONE|DICT|INTERRES
    13    6    7 am   BACKBONE|DICT|INTERRES
    14    6   10 1    
    15    7    8 2    
    16    7    9 am   BACKBONE|DICT|INTERRES
    17    9   42 1    
    18   10   11 1    
    19   10   43 1    
    20   10   44 1    
    21   11   12 1    
    22   11   21 1    
    23   11   13 1    
    24   13   14 1    
    25   13   45 1    
    26   13   46 1    
    27   14   15 1    
    28   15   20 ar   
    29   15   16 ar   
    30   16   17 ar   
    31   16   47 1    
    32   17   18 ar   
    33   17   48 1    
    34   18   19 ar   
    35   18   49 1    
    36   19   20 ar   
    37   19   50 1    
    38   20   21 1    
    39   22   26 1    
    40   22   23 1    
    41   22   51 1    
    42   23   24 1    
    43   23   52 1    
    44   23   53 1    
    45   24   54 1    
    46   24   55 1    
    47   24   71 1    
    48   25   26 1    
    49   25   56 1    
    50   25   57 1    
    51   25   71 1    
    52   26   58 1    
    53   26   59 1    
    54   27   28 1    
    55   27   60 1    
    56   27   61 1    
    57   27   71 1    
    58   28   29 2    
    59   28   36 1    
    60   29   30 1    
    61   29   62 1    
    62   30   35 ar   
    63   30   31 ar   
    64   31   32 ar   
    65   31   63 1    
    66   32   33 ar   
    67   32   64 1    
    68   33   34 ar   
    69   33   65 1    
    70   34   35 ar   
    71   34   66 1    
    72   35   67 1    
    73   36   68 1    
    74   36   69 1    
    75   36   70 1    
    76   71   72 1    
@<TRIPOS>SUBSTRUCTURE
     1 UNK         1 GROUP             0       ****    0 ROOT    
