ZINC67288959_51
                    3D
 Schrodinger Suite 2024-2.
 48 51  0  0  1  0            999 V2000
    0.3055   54.4040   31.2749 C   0  0  0  0  0  0
    1.5306   53.7963   30.0798 S   0  0  0  0  0  0
    0.6286   52.8119   28.9216 C   0  0  0  0  0  0
   -0.4957   52.0967   29.3308 C   0  0  0  0  0  0
   -1.2293   51.3709   28.3998 C   0  0  0  0  0  0
   -0.8281   51.3275   27.0632 C   0  0  0  0  0  0
    0.3157   52.0288   26.6638 C   0  0  0  0  0  0
    1.0446   52.7687   27.5923 C   0  0  0  0  0  0
   -1.6340   50.5072   26.0540 C   0  0  1  0  0  0
   -2.5535   50.2177   26.5675 H   0  0  0  0  0  0
   -2.0059   51.2646   24.7751 C   0  0  0  0  0  0
   -1.6312   50.8096   23.5802 C   0  0  0  0  0  0
   -2.1229   51.7783   22.5380 C   0  0  0  0  0  0
   -2.7855   52.7780   23.2898 O   0  0  0  0  0  0
   -2.7534   52.4962   24.6075 C   0  0  0  0  0  0
   -3.2958   53.1693   25.4811 O   0  0  0  0  0  0
   -0.9339   49.6424   23.4005 N   0  0  0  0  0  0
   -0.6254   48.7972   24.4415 C   0  0  0  0  0  0
   -0.0963   47.6959   24.3223 O   0  0  0  0  0  0
   -0.9742   49.2300   25.6816 N   0  0  0  0  0  0
   -0.5560   49.2325   22.0248 C   0  0  0  0  0  0
    0.7301   49.9140   21.5040 C   0  0  0  0  0  0
    1.1727   49.5115   20.4305 O   0  0  0  0  0  0
    1.2696   50.9282   22.2214 N   0  0  0  0  0  0
    2.3672   51.7575   21.9238 C   0  0  0  0  0  0
    2.4846   52.9093   22.7071 C   0  0  0  0  0  0
    3.5263   53.8068   22.4854 C   0  0  0  0  0  0
    4.4591   53.5491   21.4840 C   0  0  0  0  0  0
    4.3574   52.3995   20.7009 C   0  0  0  0  0  0
    3.3151   51.5010   20.9196 C   0  0  0  0  0  0
    5.7439   54.6680   21.2090 Cl  0  0  0  0  0  0
    0.7062   55.1595   31.9472 H   0  0  0  0  0  0
   -0.4964   54.8800   30.7224 H   0  0  0  0  0  0
   -0.0955   53.5917   31.8831 H   0  0  0  0  0  0
   -0.8163   52.0916   30.3627 H   0  0  0  0  0  0
   -2.0954   50.8171   28.7329 H   0  0  0  0  0  0
    0.6430   51.9963   25.6352 H   0  0  0  0  0  0
    1.9228   53.3142   27.2797 H   0  0  0  0  0  0
   -1.3076   52.2190   21.9614 H   0  0  0  0  0  0
   -2.8202   51.3169   21.8368 H   0  0  0  0  0  0
   -0.7332   48.6124   26.4489 H   0  0  0  0  0  0
   -1.3718   49.4339   21.3308 H   0  0  0  0  0  0
   -0.3893   48.1558   21.9770 H   0  0  0  0  0  0
    0.7919   51.1647   23.0782 H   0  0  0  0  0  0
    1.7660   53.1247   23.4841 H   0  0  0  0  0  0
    3.6027   54.7004   23.0853 H   0  0  0  0  0  0
    5.0761   52.2007   19.9162 H   0  0  0  0  0  0
    3.2705   50.6211   20.2974 H   0  0  0  0  0  0
  1  2  1  0  0  0
  1 32  1  0  0  0
  1 33  1  0  0  0
  1 34  1  0  0  0
  2  3  1  0  0  0
  3  8  2  0  0  0
  3  4  1  0  0  0
  4  5  2  0  0  0
  4 35  1  0  0  0
  5  6  1  0  0  0
  5 36  1  0  0  0
  6  7  2  0  0  0
  6  9  1  0  0  0
  7  8  1  0  0  0
  7 37  1  0  0  0
  8 38  1  0  0  0
  9 10  1  0  0  0
  9 20  1  0  0  0
  9 11  1  0  0  0
 11 15  1  0  0  0
 11 12  2  0  0  0
 12 13  1  0  0  0
 12 17  1  0  0  0
 13 14  1  0  0  0
 13 39  1  0  0  0
 13 40  1  0  0  0
 14 15  1  0  0  0
 15 16  2  0  0  0
 17 18  1  0  0  0
 17 21  1  0  0  0
 18 19  2  0  0  0
 18 20  1  0  0  0
 20 41  1  0  0  0
 21 22  1  0  0  0
 21 42  1  0  0  0
 21 43  1  0  0  0
 22 23  2  0  0  0
 22 24  1  0  0  0
 24 25  1  0  0  0
 24 44  1  0  0  0
 25 30  2  0  0  0
 25 26  1  0  0  0
 26 27  2  0  0  0
 26 45  1  0  0  0
 27 28  1  0  0  0
 27 46  1  0  0  0
 28 29  2  0  0  0
 28 31  1  0  0  0
 29 30  1  0  0  0
 29 47  1  0  0  0
 30 48  1  0  0  0
M  END
> <i_i_glide_confnum>
9

> <i_i_glide_lignum>
52

> <i_i_glide_posenum>
264

> <i_i_glide_rotatable_bonds>
6

> <i_m_Source_File_Index>
4435

> <b_m_subgroup_collapsed>
0

> <r_i_docking_score>
-4.33571

> <r_i_glide_ecoul>
-4.40442

> <r_i_glide_eff_state_penalty>
0

> <r_i_glide_einternal>
7.18992

> <r_i_glide_emodel>
-54.2859

> <r_i_glide_energy>
-44.202

> <r_i_glide_erotb>
0.405896

> <r_i_glide_esite>
-0.137733

> <r_i_glide_evdw>
-39.7976

> <r_i_glide_gscore>
-4.33571

> <r_i_glide_hbond>
-0.100947

> <r_i_glide_ligand_efficiency>
-0.144524

> <r_i_glide_ligand_efficiency_ln>
-0.98512

> <r_i_glide_ligand_efficiency_sa>
-0.449068

> <r_i_glide_lipo>
-1.33261

> <r_i_glide_metal>
0

> <r_i_glide_rewards>
-0.519768

> <s_i_glide_gridfile>
wee1_glide-grid

> <s_m_Source_File>
wee1_decoys_glide_SP.sdf

> <s_m_Source_Path>
/Users/zhangxujun/Desktop

> <s_m_entry_id>
4710

> <s_m_entry_name>
wee1_decoys_glide_SP.4435

> <s_m_subgroup_title>
wee1_decoys_glide_SP

> <s_m_subgroupid>
wee1_decoys_glide_SP


$$$$
