@<TRIPOS>MOLECULE
ZINC21706985_5492
72   74    1
SMALL
USER_CHARGES


@<TRIPOS>ATOM
      1 C1          9.2094   53.9118   17.4671 C.3       1 UNK         0.0000 
      2 C2          8.4361   52.9679   16.5247 C.3       1 UNK         0.0000 
      3 C3          8.8607   51.4990   16.7145 C.3       1 UNK         0.0000 
      4 C4          6.8982   53.1532   16.5975 C.3       1 UNK         0.0000 
      5 N5          6.3025   52.8968   17.9141 N.am      1 UNK         0.0000 
      6 C6          6.0341   53.8361   18.8377 C.2       1 UNK         0.0000 
      7 O7          6.2932   55.0290   18.6712 O.2       1 UNK         0.0000 
      8 C8          5.3603   53.3429   20.1342 C.3       1 UNK         0.0000 
      9 H9          5.8857   52.4204   20.4041 H         1 UNK         0.0000 
     10 C10         5.5121   54.3835   21.2838 C.3       1 UNK         0.0000 
     11 C11         4.6564   53.9537   22.4887 C.3       1 UNK         0.0000 
     12 C12         3.1759   53.7669   22.0982 C.3       1 UNK         0.0000 
     13 N13         3.1166   52.7426   21.0324 N.am      1 UNK         0.0000 
     14 C14         3.8688   53.0620   19.7990 C.3       1 UNK         0.0000 
     15 C15         2.7341   51.4625   21.2960 C.2       1 UNK         0.0000 
     16 O16         3.1569   50.4968   20.6605 O.2       1 UNK         0.0000 
     17 C17         1.6635   51.2211   22.3389 C.ar      1 UNK         0.0000 
     18 C18         0.5391   52.0519   22.4083 C.ar      1 UNK         0.0000 
     19 C19        -0.4913   51.7737   23.3009 C.ar      1 UNK         0.0000 
     20 C20        -0.4043   50.6723   24.1559 C.ar      1 UNK         0.0000 
     21 C21         0.7058   49.8308   24.0793 C.ar      1 UNK         0.0000 
     22 C22         1.7282   50.0975   23.1698 C.ar      1 UNK         0.0000 
     23 N23        -1.4142   50.3751   25.0841 N.pl3     1 UNK         0.0000 
     24 S24        -2.0898   51.5862   26.1912 S.o2      1 UNK         0.0000 
     25 O25        -3.1598   50.9205   26.9412 O.2       1 UNK         0.0000 
     26 O26        -2.3659   52.8096   25.4289 O.2       1 UNK         0.0000 
     27 C27        -0.7588   51.9524   27.3277 C.ar      1 UNK         0.0000 
     28 C28         0.4270   52.4903   26.8332 C.ar      1 UNK         0.0000 
     29 C29         1.4807   52.7568   27.6973 C.ar      1 UNK         0.0000 
     30 C30         1.3629   52.5030   29.0720 C.ar      1 UNK         0.0000 
     31 C31         0.1462   51.9964   29.5595 C.ar      1 UNK         0.0000 
     32 C32        -0.8977   51.6969   28.6905 C.ar      1 UNK         0.0000 
     33 C33         2.5769   52.7715   29.9939 C.3       1 UNK         0.0000 
     34 C34         3.7922   51.9570   29.4917 C.3       1 UNK         0.0000 
     35 C35         2.3260   52.3497   31.4668 C.3       1 UNK         0.0000 
     36 C36         2.9348   54.2788   29.9580 C.3       1 UNK         0.0000 
     37 H37         9.0071   53.6959   18.5133 H         1 UNK         0.0000 
     38 H38        10.2865   53.8257   17.3219 H         1 UNK         0.0000 
     39 H39         8.9385   54.9534   17.2916 H         1 UNK         0.0000 
     40 H40         8.7291   53.2432   15.5102 H         1 UNK         0.0000 
     41 H41         8.5512   51.1066   17.6816 H         1 UNK         0.0000 
     42 H42         8.4172   50.8699   15.9438 H         1 UNK         0.0000 
     43 H43         9.9425   51.3839   16.6430 H         1 UNK         0.0000 
     44 H44         6.4172   52.4681   15.8975 H         1 UNK         0.0000 
     45 H45         6.6359   54.1574   16.2540 H         1 UNK         0.0000 
     46 H46         5.9789   51.9381   18.0817 H         1 UNK         0.0000 
     47 H47         5.1035   55.3517   20.9877 H         1 UNK         0.0000 
     48 H48         6.5456   54.4966   21.6185 H         1 UNK         0.0000 
     49 H49         4.7310   54.7005   23.2798 H         1 UNK         0.0000 
     50 H50         5.0477   53.0320   22.9207 H         1 UNK         0.0000 
     51 H51         2.7906   54.6972   21.6817 H         1 UNK         0.0000 
     52 H52         2.5362   53.5630   22.9555 H         1 UNK         0.0000 
     53 H53         3.7332   52.2937   19.0323 H         1 UNK         0.0000 
     54 H54         3.4049   53.9673   19.4014 H         1 UNK         0.0000 
     55 H55         0.4398   52.8970   21.7420 H         1 UNK         0.0000 
     56 H56        -1.3579   52.4143   23.3063 H         1 UNK         0.0000 
     57 H57         0.7850   48.9653   24.7223 H         1 UNK         0.0000 
     58 H58         2.5694   49.4184   23.1161 H         1 UNK         0.0000 
     59 H59        -1.4399   49.4347   25.4535 H         1 UNK         0.0000 
     60 H60         0.5400   52.7011   25.7802 H         1 UNK         0.0000 
     61 H61         2.3964   53.1557   27.2879 H         1 UNK         0.0000 
     62 H62        -0.0104   51.7909   30.6077 H         1 UNK         0.0000 
     63 H63        -1.8091   51.2637   29.0815 H         1 UNK         0.0000 
     64 H64         4.6471   52.0401   30.1656 H         1 UNK         0.0000 
     65 H65         4.1357   52.2867   28.5112 H         1 UNK         0.0000 
     66 H66         3.5390   50.9011   29.4037 H         1 UNK         0.0000 
     67 H67         1.5104   52.9128   31.9225 H         1 UNK         0.0000 
     68 H68         2.0635   51.2970   31.5577 H         1 UNK         0.0000 
     69 H69         3.2152   52.4965   32.0828 H         1 UNK         0.0000 
     70 H70         2.1467   54.8883   30.4040 H         1 UNK         0.0000 
     71 H71         3.8688   54.4846   30.4819 H         1 UNK         0.0000 
     72 H72         3.0805   54.6404   28.9403 H         1 UNK         0.0000 
@<TRIPOS>BOND
     1    1    2 1    
     2    1   37 1    
     3    1   38 1    
     4    1   39 1    
     5    2    3 1    
     6    2    4 1    
     7    2   40 1    
     8    3   41 1    
     9    3   42 1    
    10    3   43 1    
    11    4    5 1    
    12    4   44 1    
    13    4   45 1    
    14    5    6 am   BACKBONE|DICT|INTERRES
    15    5   46 1    
    16    6    7 2    
    17    6    8 1    
    18    8    9 1    
    19    8   14 1    
    20    8   10 1    
    21   10   11 1    
    22   10   47 1    
    23   10   48 1    
    24   11   12 1    
    25   11   49 1    
    26   11   50 1    
    27   12   13 1    
    28   12   51 1    
    29   12   52 1    
    30   13   14 1    
    31   13   15 am   BACKBONE|DICT|INTERRES
    32   14   53 1    
    33   14   54 1    
    34   15   16 2    
    35   15   17 1    
    36   17   22 ar   
    37   17   18 ar   
    38   18   19 ar   
    39   18   55 1    
    40   19   20 ar   
    41   19   56 1    
    42   20   21 ar   
    43   20   23 1    
    44   21   22 ar   
    45   21   57 1    
    46   22   58 1    
    47   23   24 1    
    48   23   59 1    
    49   24   25 2    
    50   24   26 2    
    51   24   27 1    
    52   27   32 ar   
    53   27   28 ar   
    54   28   29 ar   
    55   28   60 1    
    56   29   30 ar   
    57   29   61 1    
    58   30   31 ar   
    59   30   33 1    
    60   31   32 ar   
    61   31   62 1    
    62   32   63 1    
    63   33   34 1    
    64   33   35 1    
    65   33   36 1    
    66   34   64 1    
    67   34   65 1    
    68   34   66 1    
    69   35   67 1    
    70   35   68 1    
    71   35   69 1    
    72   36   70 1    
    73   36   71 1    
    74   36   72 1    
@<TRIPOS>SUBSTRUCTURE
     1 UNK         1 GROUP             0       ****    0 ROOT    
