@<TRIPOS>MOLECULE
ZINC11553740_3207
58   61    1
SMALL
USER_CHARGES


@<TRIPOS>ATOM
      1 C1          3.7884   54.4966   22.6949 C.3       1 UNK         0.0000 
      2 C2          2.7712   53.9374   23.6688 C.ar      1 UNK         0.0000 
      3 C3          1.4564   53.7430   23.2561 C.ar      1 UNK         0.0000 
      4 C4          0.5501   53.1071   24.0974 C.ar      1 UNK         0.0000 
      5 C5          0.9641   52.6225   25.3485 C.ar      1 UNK         0.0000 
      6 C6          2.2685   52.8967   25.7834 C.ar      1 UNK         0.0000 
      7 C7          3.1588   53.5762   24.9569 C.ar      1 UNK         0.0000 
      8 N8          0.0807   51.7866   26.1044 N.pl3     1 UNK         0.0000 
      9 C9         -0.4632   50.6759   25.4325 C.2       1 UNK         0.0000 
     10 C10        -1.6294   50.1090   25.8571 C.2       1 UNK         0.0000 
     11 C11        -2.4286   50.7716   27.0056 C.3       1 UNK         0.0000 
     12 H12        -2.8360   49.9822   27.6242 H         1 UNK         0.0000 
     13 N13        -1.4330   51.4515   27.8495 N.pl3     1 UNK         0.0000 
     14 C14        -0.3143   52.0958   27.4084 C.2       1 UNK         0.0000 
     15 S15         0.3104   53.2197   28.4813 S.2       1 UNK         0.0000 
     16 C16        -3.6105   51.6715   26.5839 C.ar      1 UNK         0.0000 
     17 C17        -3.4562   52.5011   25.4619 C.ar      1 UNK         0.0000 
     18 C18        -4.4763   53.3511   25.0434 C.ar      1 UNK         0.0000 
     19 C19        -5.6771   53.3872   25.7429 C.ar      1 UNK         0.0000 
     20 C20        -5.8569   52.5718   26.8576 C.ar      1 UNK         0.0000 
     21 C21        -4.8454   51.6964   27.2825 C.ar      1 UNK         0.0000 
     22 C22        -5.1182   50.8963   28.5164 C.2       1 UNK         0.0000 
     23 O23        -5.5562   51.3962   29.5570 O.2       1 UNK         0.0000 
     24 O24        -4.9963   49.5681   28.3006 O.3       1 UNK         0.0000 
     25 C25        -5.1583   48.6410   29.3642 C.3       1 UNK         0.0000 
     26 C26        -2.2677   48.9727   25.2187 C.2       1 UNK         0.0000 
     27 O27        -2.5735   48.9736   24.0253 O.2       1 UNK         0.0000 
     28 N28        -2.4967   47.9641   26.0816 N.am      1 UNK         0.0000 
     29 C29        -3.2662   46.8343   25.8877 C.2       1 UNK         0.0000 
     30 C30        -3.5812   45.9546   26.9181 C.2       1 UNK         0.0000 
     31 C31        -4.4215   45.0180   26.3670 C.2       1 UNK         0.0000 
     32 O32        -4.5522   45.2966   25.0460 O.3       1 UNK         0.0000 
     33 N33        -3.8180   46.4486   24.7519 N.2       1 UNK         0.0000 
     34 C34        -5.1431   43.8011   26.8873 C.3       1 UNK         0.0000 
     35 C35         0.4041   50.0350   24.3258 C.3       1 UNK         0.0000 
     36 H36         3.3524   55.2965   22.0985 H         1 UNK         0.0000 
     37 H37         4.6611   54.8964   23.2109 H         1 UNK         0.0000 
     38 H38         4.1155   53.7169   22.0063 H         1 UNK         0.0000 
     39 H39         1.1461   54.0409   22.2646 H         1 UNK         0.0000 
     40 H40        -0.4539   52.9250   23.7426 H         1 UNK         0.0000 
     41 H41         2.6207   52.5341   26.7382 H         1 UNK         0.0000 
     42 H42         4.1746   53.7343   25.2891 H         1 UNK         0.0000 
     43 H43        -1.6746   51.6587   28.8075 H         1 UNK         0.0000 
     44 H44        -2.5307   52.4979   24.9077 H         1 UNK         0.0000 
     45 H45        -4.3340   53.9811   24.1775 H         1 UNK         0.0000 
     46 H46        -6.4717   54.0439   25.4198 H         1 UNK         0.0000 
     47 H47        -6.7996   52.6230   27.3857 H         1 UNK         0.0000 
     48 H48        -5.0348   47.6248   28.9893 H         1 UNK         0.0000 
     49 H49        -4.4085   48.8062   30.1403 H         1 UNK         0.0000 
     50 H50        -6.1495   48.7210   29.8126 H         1 UNK         0.0000 
     51 H51        -2.1240   48.0965   27.0345 H         1 UNK         0.0000 
     52 H52        -3.2508   46.0095   27.9461 H         1 UNK         0.0000 
     53 H53        -4.8956   43.6019   27.9296 H         1 UNK         0.0000 
     54 H54        -4.8804   42.9042   26.3275 H         1 UNK         0.0000 
     55 H55        -6.2246   43.9195   26.8250 H         1 UNK         0.0000 
     56 H56         0.1958   50.4951   23.3603 H         1 UNK         0.0000 
     57 H57         1.4716   50.1300   24.5241 H         1 UNK         0.0000 
     58 H58         0.2199   48.9656   24.2205 H         1 UNK         0.0000 
@<TRIPOS>BOND
     1    1    2 1    
     2    1   36 1    
     3    1   37 1    
     4    1   38 1    
     5    2    7 ar   
     6    2    3 ar   
     7    3    4 ar   
     8    3   39 1    
     9    4    5 ar   
    10    4   40 1    
    11    5    6 ar   
    12    5    8 1    
    13    6    7 ar   
    14    6   41 1    
    15    7   42 1    
    16    8   14 1    
    17    8    9 1    
    18    9   10 2    
    19    9   35 1    
    20   10   11 1    
    21   10   26 1    
    22   11   12 1    
    23   11   13 1    
    24   11   16 1    
    25   13   14 1    
    26   13   43 1    
    27   14   15 2    
    28   16   21 ar   
    29   16   17 ar   
    30   17   18 ar   
    31   17   44 1    
    32   18   19 ar   
    33   18   45 1    
    34   19   20 ar   
    35   19   46 1    
    36   20   21 ar   
    37   20   47 1    
    38   21   22 1    
    39   22   23 2    
    40   22   24 1    
    41   24   25 1    
    42   25   48 1    
    43   25   49 1    
    44   25   50 1    
    45   26   27 2    
    46   26   28 am   BACKBONE|DICT|INTERRES
    47   28   29 1    
    48   28   51 1    
    49   29   33 2    
    50   29   30 1    
    51   30   31 2    
    52   30   52 1    
    53   31   32 1    
    54   31   34 1    
    55   32   33 1    
    56   34   53 1    
    57   34   54 1    
    58   34   55 1    
    59   35   56 1    
    60   35   57 1    
    61   35   58 1    
@<TRIPOS>SUBSTRUCTURE
     1 UNK         1 GROUP             0       ****    0 ROOT    
