@<TRIPOS>MOLECULE
ZINC14274079_4174
54   58    1
SMALL
USER_CHARGES


@<TRIPOS>ATOM
      1 C1          2.8051   54.1447   29.6119 C.3       1 UNK         0.0000 
      2 C2          3.2596   54.1085   28.1677 C.ar      1 UNK         0.0000 
      3 C3          4.5714   54.4907   27.8504 C.ar      1 UNK         0.0000 
      4 C4          5.0448   54.4988   26.5320 C.ar      1 UNK         0.0000 
      5 C5          4.1224   54.0967   25.5556 C.ar      1 UNK         0.0000 
      6 C6          2.8070   53.6967   25.8445 C.ar      1 UNK         0.0000 
      7 C7          2.3590   53.7067   27.1710 C.ar      1 UNK         0.0000 
      8 N8          2.1755   53.3316   24.6897 N.2       1 UNK         0.0000 
      9 C9          3.1048   53.4745   23.7655 C.2       1 UNK         0.0000 
     10 O10         4.2990   53.9754   24.2114 O.3       1 UNK         0.0000 
     11 C11         3.0156   53.0523   22.3331 C.ar      1 UNK         0.0000 
     12 C12         1.8362   52.4971   21.8224 C.ar      1 UNK         0.0000 
     13 C13         1.7612   52.0967   20.4875 C.ar      1 UNK         0.0000 
     14 C14         2.8586   52.2539   19.6404 C.ar      1 UNK         0.0000 
     15 C15         4.0547   52.7913   20.1407 C.ar      1 UNK         0.0000 
     16 C16         4.1275   53.1691   21.4892 C.ar      1 UNK         0.0000 
     17 N17         5.1689   52.8974   19.2818 N.pl3     1 UNK         0.0000 
     18 C18         6.0187   53.9400   19.0161 C.2       1 UNK         0.0000 
     19 S19         5.9045   55.4523   19.7576 S.2       1 UNK         0.0000 
     20 N20         6.9574   53.5712   18.0825 N.am      1 UNK         0.0000 
     21 C21         8.0615   54.2037   17.6011 C.2       1 UNK         0.0000 
     22 O22         8.3244   55.4005   17.7560 O.2       1 UNK         0.0000 
     23 C23         9.0415   53.3296   16.8563 C.ar      1 UNK         0.0000 
     24 C24        10.3980   53.6973   16.8162 C.ar      1 UNK         0.0000 
     25 C25        11.3316   52.9262   16.1257 C.ar      1 UNK         0.0000 
     26 C26        10.9152   51.7815   15.4548 C.ar      1 UNK         0.0000 
     27 C27         9.5678   51.3927   15.4970 C.ar      1 UNK         0.0000 
     28 C28         8.6335   52.1622   16.1863 C.ar      1 UNK         0.0000 
     29 O29         9.1104   50.2817   14.8191 O.3       1 UNK         0.0000 
     30 C30        10.1413   49.3303   14.5424 C.3       1 UNK         0.0000 
     31 C31        11.3664   50.0393   13.9212 C.3       1 UNK         0.0000 
     32 O32        11.8826   51.0232   14.8260 O.3       1 UNK         0.0000 
     33 Cl33        2.7019   51.7781   17.9818 Cl        1 UNK         0.0000 
     34 C34         6.4732   54.9170   26.2304 C.3       1 UNK         0.0000 
     35 H35         1.7162   54.1197   29.6979 H         1 UNK         0.0000 
     36 H36         3.2300   53.3078   30.1666 H         1 UNK         0.0000 
     37 H37         3.1356   55.0716   30.0813 H         1 UNK         0.0000 
     38 H38         5.2377   54.7922   28.6479 H         1 UNK         0.0000 
     39 H39         1.3511   53.4005   27.4108 H         1 UNK         0.0000 
     40 H40         0.9733   52.3739   22.4595 H         1 UNK         0.0000 
     41 H41         0.8422   51.6787   20.1047 H         1 UNK         0.0000 
     42 H42         5.0551   53.5572   21.8837 H         1 UNK         0.0000 
     43 H43         5.3111   52.0519   18.7334 H         1 UNK         0.0000 
     44 H44         6.8887   52.6079   17.7899 H         1 UNK         0.0000 
     45 H45        10.7437   54.5830   17.3337 H         1 UNK         0.0000 
     46 H46        12.3726   53.2113   16.1137 H         1 UNK         0.0000 
     47 H47         7.6003   51.8442   16.1746 H         1 UNK         0.0000 
     48 H48        10.4535   48.8952   15.4913 H         1 UNK         0.0000 
     49 H49         9.7675   48.5343   13.8982 H         1 UNK         0.0000 
     50 H50        12.1485   49.3172   13.6808 H         1 UNK         0.0000 
     51 H51        11.0654   50.5274   12.9940 H         1 UNK         0.0000 
     52 H52         7.0088   55.2264   27.1290 H         1 UNK         0.0000 
     53 H53         7.0155   54.0909   25.7700 H         1 UNK         0.0000 
     54 H54         6.4774   55.7473   25.5235 H         1 UNK         0.0000 
@<TRIPOS>BOND
     1    1    2 1    
     2    1   35 1    
     3    1   36 1    
     4    1   37 1    
     5    2    7 ar   
     6    2    3 ar   
     7    3    4 ar   
     8    3   38 1    
     9    4    5 ar   
    10    4   34 1    
    11    5   10 1    
    12    5    6 ar   
    13    6    7 ar   
    14    6    8 1    
    15    7   39 1    
    16    8    9 2    
    17    9   10 1    
    18    9   11 1    
    19   11   16 ar   
    20   11   12 ar   
    21   12   13 ar   
    22   12   40 1    
    23   13   14 ar   
    24   13   41 1    
    25   14   15 ar   
    26   14   33 1    
    27   15   16 ar   
    28   15   17 1    
    29   16   42 1    
    30   17   18 1    
    31   17   43 1    
    32   18   19 2    
    33   18   20 am   BACKBONE|DICT|INTERRES
    34   20   21 am   BACKBONE|DICT|INTERRES
    35   20   44 1    
    36   21   22 2    
    37   21   23 1    
    38   23   28 ar   
    39   23   24 ar   
    40   24   25 ar   
    41   24   45 1    
    42   25   26 ar   
    43   25   46 1    
    44   26   32 1    
    45   26   27 ar   
    46   27   28 ar   
    47   27   29 1    
    48   28   47 1    
    49   29   30 1    
    50   30   31 1    
    51   30   48 1    
    52   30   49 1    
    53   31   32 1    
    54   31   50 1    
    55   31   51 1    
    56   34   52 1    
    57   34   53 1    
    58   34   54 1    
@<TRIPOS>SUBSTRUCTURE
     1 UNK         1 GROUP             0       ****    0 ROOT    
