@<TRIPOS>MOLECULE
ZINC18709984_1173
54   56    1
SMALL
USER_CHARGES


@<TRIPOS>ATOM
      1 C1          6.1440   53.1594   18.1091 C.3       1 UNK         0.0000 
      2 C2          5.1378   54.2521   18.5002 C.3       1 UNK         0.0000 
      3 H3          4.1283   53.8346   18.5334 H         1 UNK         0.0000 
      4 C4          5.5455   54.7647   19.9073 C.2       1 UNK         0.0000 
      5 O5          6.3017   55.7339   20.0145 O.2       1 UNK         0.0000 
      6 N6          5.0242   54.0862   20.9544 N.am      1 UNK         0.0000 
      7 C7          5.2543   54.2990   22.3266 C.ar      1 UNK         0.0000 
      8 C8          6.4467   54.8304   22.8366 C.ar      1 UNK         0.0000 
      9 C9          6.5937   55.0118   24.2077 C.ar      1 UNK         0.0000 
     10 C10         5.5813   54.6479   25.0928 C.ar      1 UNK         0.0000 
     11 C11         4.3967   54.0971   24.5815 C.ar      1 UNK         0.0000 
     12 C12         4.2365   53.9260   23.2066 C.ar      1 UNK         0.0000 
     13 O13         5.8381   54.8760   26.4327 O.3       1 UNK         0.0000 
     14 C14         4.9718   54.3485   27.4386 C.3       1 UNK         0.0000 
     15 F15         5.4948   54.6573   28.6225 F         1 UNK         0.0000 
     16 F16         4.8981   53.0221   27.3737 F         1 UNK         0.0000 
     17 F17         3.7531   54.8888   27.3813 F         1 UNK         0.0000 
     18 C18         4.9188   54.9814   16.0267 C.3       1 UNK         0.0000 
     19 C19         4.7894   56.1956   15.0880 C.3       1 UNK         0.0000 
     20 N20         3.6756   57.0572   15.5216 N.pl3     1 UNK         0.0000 
     21 C21         3.7936   57.6141   16.8790 C.3       1 UNK         0.0000 
     22 C22         3.9036   56.4717   17.9119 C.3       1 UNK         0.0000 
     23 S23         2.1431   57.1288   14.6258 S.o2      1 UNK         0.0000 
     24 O24         1.7679   58.5415   14.5050 O.2       1 UNK         0.0000 
     25 O25         2.2635   56.2851   13.4311 O.2       1 UNK         0.0000 
     26 C26         0.9214   56.3590   15.6889 C.ar      1 UNK         0.0000 
     27 C27         0.7883   54.9669   15.7047 C.ar      1 UNK         0.0000 
     28 C28        -0.1897   54.3690   16.5013 C.ar      1 UNK         0.0000 
     29 C29        -1.0347   55.1588   17.2819 C.ar      1 UNK         0.0000 
     30 C30        -0.8924   56.5476   17.2804 C.ar      1 UNK         0.0000 
     31 C31         0.0819   57.1475   16.4823 C.ar      1 UNK         0.0000 
     32 F32        -1.6950   57.3114   18.0554 F         1 UNK         0.0000 
     33 F33        -1.9867   54.5770   18.0483 F         1 UNK         0.0000 
     34 H34         6.2932   52.4413   18.9164 H         1 UNK         0.0000 
     35 H35         5.7792   52.5847   17.2563 H         1 UNK         0.0000 
     36 H36         7.1120   53.5942   17.8571 H         1 UNK         0.0000 
     37 H37         4.3276   53.3857   20.7449 H         1 UNK         0.0000 
     38 H38         7.2677   55.1051   22.1905 H         1 UNK         0.0000 
     39 H39         7.5046   55.4430   24.5865 H         1 UNK         0.0000 
     40 H40         3.5892   53.7991   25.2313 H         1 UNK         0.0000 
     41 H41         3.3128   53.5066   22.8329 H         1 UNK         0.0000 
     42 H42         5.8557   54.4684   15.8039 H         1 UNK         0.0000 
     43 H43         4.0882   54.2785   15.9359 H         1 UNK         0.0000 
     44 H44         5.7031   56.7919   15.0625 H         1 UNK         0.0000 
     45 H45         4.5995   55.8731   14.0637 H         1 UNK         0.0000 
     46 H46         2.9047   58.2194   17.0675 H         1 UNK         0.0000 
     47 H47         4.6493   58.2921   16.9135 H         1 UNK         0.0000 
     48 H48         2.9693   55.9275   18.0551 H         1 UNK         0.0000 
     49 H49         4.2351   56.8971   18.8567 H         1 UNK         0.0000 
     50 H50         1.4296   54.3489   15.0919 H         1 UNK         0.0000 
     51 H51        -0.2986   53.2945   16.5094 H         1 UNK         0.0000 
     52 H52         0.1784   58.2247   16.4816 H         1 UNK         0.0000 
     53 N53         5.0169   55.4538   17.5071 N.4       1 UNK         0.0000 
     54 H54         5.8794   55.9801   17.5598 H         1 UNK         0.0000 
@<TRIPOS>BOND
     1    1    2 1    
     2    1   34 1    
     3    1   35 1    
     4    1   36 1    
     5    2    3 1    
     6    2    4 1    
     7    2   53 1    
     8    4    5 2    
     9    4    6 am   BACKBONE|DICT|INTERRES
    10    6    7 1    
    11    6   37 1    
    12    7   12 ar   
    13    7    8 ar   
    14    8    9 ar   
    15    8   38 1    
    16    9   10 ar   
    17    9   39 1    
    18   10   11 ar   
    19   10   13 1    
    20   11   12 ar   
    21   11   40 1    
    22   12   41 1    
    23   13   14 1    
    24   14   15 1    
    25   14   16 1    
    26   14   17 1    
    27   18   19 1    
    28   18   42 1    
    29   18   43 1    
    30   18   53 1    
    31   19   20 1    
    32   19   44 1    
    33   19   45 1    
    34   20   21 1    
    35   20   23 1    
    36   21   22 1    
    37   21   46 1    
    38   21   47 1    
    39   22   48 1    
    40   22   49 1    
    41   22   53 1    
    42   23   24 2    
    43   23   25 2    
    44   23   26 1    
    45   26   31 ar   
    46   26   27 ar   
    47   27   28 ar   
    48   27   50 1    
    49   28   29 ar   
    50   28   51 1    
    51   29   30 ar   
    52   29   33 1    
    53   30   31 ar   
    54   30   32 1    
    55   31   52 1    
    56   53   54 1    
@<TRIPOS>SUBSTRUCTURE
     1 UNK         1 GROUP             0       ****    0 ROOT    
