ZINC14005141_3609
                    3D
 Schrodinger Suite 2024-2.
 51 53  0  0  1  0            999 V2000
    4.1026   54.3312   22.0469 C   0  0  0  0  0  0
    3.6813   54.0968   23.4931 C   0  0  0  0  0  0
    4.5808   54.4285   24.5104 C   0  0  0  0  0  0
    4.2421   54.2327   25.8436 C   0  0  0  0  0  0
    3.0012   53.6969   26.1704 C   0  0  0  0  0  0
    2.0898   53.3419   25.1713 C   0  0  0  0  0  0
    2.4204   53.5567   23.8165 C   0  0  0  0  0  0
    1.5050   53.2834   22.7836 N   0  0  0  0  0  0
    1.4357   51.6698   22.0551 S   0  0  0  0  0  0
    2.8031   51.1421   22.0238 O   0  0  0  0  0  0
    0.6645   51.8321   20.8179 O   0  0  0  0  0  0
    0.4668   50.6302   23.1387 C   0  0  0  0  0  0
   -0.9246   50.7469   23.1371 C   0  0  0  0  0  0
   -1.6855   49.9397   23.9770 C   0  0  0  0  0  0
   -1.0487   49.0140   24.8095 C   0  0  0  0  0  0
    0.3382   48.9064   24.8184 C   0  0  0  0  0  0
    1.1012   49.7062   23.9711 C   0  0  0  0  0  0
   -1.7866   48.2055   25.6816 N   0  0  0  0  0  0
   -2.6960   47.2268   25.4028 C   0  0  0  0  0  0
   -3.0415   46.6899   23.8394 S   0  0  0  0  0  0
   -3.2904   46.8056   26.5647 N   0  0  0  0  0  0
   -4.2538   45.8894   26.8186 C   0  0  0  0  0  0
   -4.4877   44.8973   26.1205 O   0  0  0  0  0  0
   -5.1036   46.1956   28.0342 C   0  0  0  0  0  0
   -4.6032   46.9546   29.1088 C   0  0  0  0  0  0
   -5.4257   47.3011   30.1770 C   0  0  0  0  0  0
   -6.7561   46.8861   30.2020 C   0  0  0  0  0  0
   -7.2587   46.1053   29.1590 C   0  0  0  0  0  0
   -6.4386   45.7620   28.0833 C   0  0  0  0  0  0
   -8.8950   45.5654   29.2042 Cl  0  0  0  0  0  0
    0.7433   52.7852   25.6133 C   0  0  0  0  0  0
    5.0338   54.8928   21.9691 H   0  0  0  0  0  0
    4.2233   53.3830   21.5261 H   0  0  0  0  0  0
    3.3372   54.8964   21.5191 H   0  0  0  0  0  0
    5.5509   54.8400   24.2685 H   0  0  0  0  0  0
    4.9421   54.4924   26.6253 H   0  0  0  0  0  0
    2.7531   53.5458   27.2117 H   0  0  0  0  0  0
    1.7115   53.8797   21.9960 H   0  0  0  0  0  0
   -1.4115   51.4605   22.4876 H   0  0  0  0  0  0
   -2.7613   50.0318   23.9810 H   0  0  0  0  0  0
    0.8315   48.1980   25.4704 H   0  0  0  0  0  0
    2.1785   49.6237   23.9769 H   0  0  0  0  0  0
   -1.5506   48.3199   26.6664 H   0  0  0  0  0  0
   -3.1077   47.4301   27.3420 H   0  0  0  0  0  0
   -3.5769   47.2982   29.1279 H   0  0  0  0  0  0
   -5.0301   47.9026   30.9810 H   0  0  0  0  0  0
   -7.3928   47.1565   31.0341 H   0  0  0  0  0  0
   -6.8561   45.1752   27.2747 H   0  0  0  0  0  0
    0.4380   53.2207   26.5662 H   0  0  0  0  0  0
   -0.0487   53.0130   24.8985 H   0  0  0  0  0  0
    0.8052   51.7075   25.7593 H   0  0  0  0  0  0
  1  2  1  0  0  0
  1 32  1  0  0  0
  1 33  1  0  0  0
  1 34  1  0  0  0
  2  7  2  0  0  0
  2  3  1  0  0  0
  3  4  2  0  0  0
  3 35  1  0  0  0
  4  5  1  0  0  0
  4 36  1  0  0  0
  5  6  2  0  0  0
  5 37  1  0  0  0
  6  7  1  0  0  0
  6 31  1  0  0  0
  7  8  1  0  0  0
  8  9  1  0  0  0
  8 38  1  0  0  0
  9 10  2  0  0  0
  9 11  2  0  0  0
  9 12  1  0  0  0
 12 17  2  0  0  0
 12 13  1  0  0  0
 13 14  2  0  0  0
 13 39  1  0  0  0
 14 15  1  0  0  0
 14 40  1  0  0  0
 15 16  2  0  0  0
 15 18  1  0  0  0
 16 17  1  0  0  0
 16 41  1  0  0  0
 17 42  1  0  0  0
 18 19  1  0  0  0
 18 43  1  0  0  0
 19 20  2  0  0  0
 19 21  1  0  0  0
 21 22  1  0  0  0
 21 44  1  0  0  0
 22 23  2  0  0  0
 22 24  1  0  0  0
 24 29  2  0  0  0
 24 25  1  0  0  0
 25 26  2  0  0  0
 25 45  1  0  0  0
 26 27  1  0  0  0
 26 46  1  0  0  0
 27 28  2  0  0  0
 27 47  1  0  0  0
 28 29  1  0  0  0
 28 30  1  0  0  0
 29 48  1  0  0  0
 31 49  1  0  0  0
 31 50  1  0  0  0
 31 51  1  0  0  0
M  END
> <i_i_glide_confnum>
183

> <i_i_glide_lignum>
3610

> <i_i_glide_posenum>
88

> <i_i_glide_rotatable_bonds>
8

> <i_m_Source_File_Index>
5598

> <b_m_subgroup_collapsed>
0

> <r_i_docking_score>
-4.00975

> <r_i_glide_ecoul>
-11.635

> <r_i_glide_eff_state_penalty>
0

> <r_i_glide_einternal>
6.74728

> <r_i_glide_emodel>
-51.9628

> <r_i_glide_energy>
-46.2703

> <r_i_glide_erotb>
0.630345

> <r_i_glide_esite>
-0.37965

> <r_i_glide_evdw>
-34.6353

> <r_i_glide_gscore>
-4.00975

> <r_i_glide_hbond>
-0.487756

> <r_i_glide_ligand_efficiency>
-0.129347

> <r_i_glide_ligand_efficiency_ln>
-0.904321

> <r_i_glide_ligand_efficiency_sa>
-0.406327

> <r_i_glide_lipo>
-1.46283

> <r_i_glide_metal>
0

> <r_i_glide_rewards>
1.16715

> <s_i_glide_gridfile>
wee1_glide-grid

> <s_m_Source_File>
wee1_decoys_glide_SP.sdf

> <s_m_Source_Path>
/Users/zhangxujun/Desktop

> <s_m_entry_id>
5873

> <s_m_entry_name>
wee1_decoys_glide_SP.5598

> <s_m_subgroup_title>
wee1_decoys_glide_SP

> <s_m_subgroupid>
wee1_decoys_glide_SP


$$$$
