@<TRIPOS>MOLECULE
ZINC14270862_825
56   59    1
SMALL
USER_CHARGES


@<TRIPOS>ATOM
      1 C1          6.8109   54.8118   25.0402 C.3       1 UNK         0.0000 
      2 C2          6.0332   54.5981   23.7565 C.ar      1 UNK         0.0000 
      3 C3          6.6155   54.8965   22.5216 C.ar      1 UNK         0.0000 
      4 C4          5.9038   54.6828   21.3374 C.ar      1 UNK         0.0000 
      5 C5          4.6113   54.1527   21.3914 C.ar      1 UNK         0.0000 
      6 C6          4.0104   53.8750   22.6228 C.ar      1 UNK         0.0000 
      7 C7          4.7310   54.0966   23.8017 C.ar      1 UNK         0.0000 
      8 C8          2.6139   53.3648   22.6930 C.2       1 UNK         0.0000 
      9 N9          1.7476   53.6144   23.6542 N.2       1 UNK         0.0000 
     10 C10         0.6504   52.8965   23.2827 C.ar      1 UNK         0.0000 
     11 C11        -0.5959   52.7612   23.8999 C.ar      1 UNK         0.0000 
     12 C12        -1.5214   51.8593   23.3501 C.ar      1 UNK         0.0000 
     13 C13        -1.2454   51.1970   22.1442 C.ar      1 UNK         0.0000 
     14 C14        -0.0251   51.3672   21.4753 C.ar      1 UNK         0.0000 
     15 C15         0.9073   52.2125   22.0872 C.ar      1 UNK         0.0000 
     16 O16         2.1719   52.5318   21.6976 O.3       1 UNK         0.0000 
     17 N17        -2.7447   51.6000   24.0004 N.pl3     1 UNK         0.0000 
     18 C18        -2.9977   51.4593   25.3381 C.2       1 UNK         0.0000 
     19 S19        -4.6024   51.4146   25.7982 S.2       1 UNK         0.0000 
     20 N20        -1.8890   51.3414   26.1424 N.am      1 UNK         0.0000 
     21 C21        -1.6965   51.4491   27.4814 C.2       1 UNK         0.0000 
     22 O22        -2.5766   51.2967   28.3321 O.2       1 UNK         0.0000 
     23 C23        -0.2876   51.8535   27.8932 C.ar      1 UNK         0.0000 
     24 C24         0.7452   52.0127   26.9560 C.ar      1 UNK         0.0000 
     25 C25         1.9936   52.4962   27.3281 C.ar      1 UNK         0.0000 
     26 C26         2.2830   52.7741   28.6681 C.ar      1 UNK         0.0000 
     27 C27         1.2837   52.5791   29.6293 C.ar      1 UNK         0.0000 
     28 C28         0.0089   52.1271   29.2363 C.ar      1 UNK         0.0000 
     29 O29         1.6318   52.8615   30.9335 O.3       1 UNK         0.0000 
     30 C30         0.6572   52.7308   31.9531 C.3       1 UNK         0.0000 
     31 O31         3.5156   53.2283   29.1094 O.3       1 UNK         0.0000 
     32 C32         4.5687   53.4302   28.1722 C.3       1 UNK         0.0000 
     33 C33         6.5398   54.9925   19.9949 C.3       1 UNK         0.0000 
     34 H34         7.8616   54.5760   24.8815 H         1 UNK         0.0000 
     35 H35         6.7289   55.8472   25.3705 H         1 UNK         0.0000 
     36 H36         6.4604   54.1515   25.8339 H         1 UNK         0.0000 
     37 H37         7.6206   55.2919   22.4821 H         1 UNK         0.0000 
     38 H38         4.0605   53.9847   20.4759 H         1 UNK         0.0000 
     39 H39         4.2764   53.8756   24.7569 H         1 UNK         0.0000 
     40 H40        -0.8102   53.3040   24.8068 H         1 UNK         0.0000 
     41 H41        -1.9773   50.5186   21.7283 H         1 UNK         0.0000 
     42 H42         0.2033   50.8524   20.5531 H         1 UNK         0.0000 
     43 H43        -3.5514   51.5534   23.3954 H         1 UNK         0.0000 
     44 H44        -1.0275   51.3693   25.6213 H         1 UNK         0.0000 
     45 H45         0.6141   51.7673   25.9165 H         1 UNK         0.0000 
     46 H46         2.7384   52.6183   26.5569 H         1 UNK         0.0000 
     47 H47        -0.7654   51.9864   29.9774 H         1 UNK         0.0000 
     48 H48         1.1009   53.0561   32.8850 H         1 UNK         0.0000 
     49 H49        -0.2121   53.3644   31.7698 H         1 UNK         0.0000 
     50 H50         0.3318   51.6973   32.0751 H         1 UNK         0.0000 
     51 H51         5.4526   53.7926   28.6974 H         1 UNK         0.0000 
     52 H52         4.3024   54.1775   27.4230 H         1 UNK         0.0000 
     53 H53         4.8431   52.5008   27.6710 H         1 UNK         0.0000 
     54 H54         7.6263   55.0621   20.0668 H         1 UNK         0.0000 
     55 H55         6.3206   54.1975   19.2806 H         1 UNK         0.0000 
     56 H56         6.1454   55.9253   19.5908 H         1 UNK         0.0000 
@<TRIPOS>BOND
     1    1    2 1    
     2    1   34 1    
     3    1   35 1    
     4    1   36 1    
     5    2    7 ar   
     6    2    3 ar   
     7    3    4 ar   
     8    3   37 1    
     9    4    5 ar   
    10    4   33 1    
    11    5    6 ar   
    12    5   38 1    
    13    6    7 ar   
    14    6    8 1    
    15    7   39 1    
    16    8   16 1    
    17    8    9 2    
    18    9   10 1    
    19   10   15 ar   
    20   10   11 ar   
    21   11   12 ar   
    22   11   40 1    
    23   12   13 ar   
    24   12   17 1    
    25   13   14 ar   
    26   13   41 1    
    27   14   15 ar   
    28   14   42 1    
    29   15   16 1    
    30   17   18 1    
    31   17   43 1    
    32   18   19 2    
    33   18   20 am   BACKBONE|DICT|INTERRES
    34   20   21 am   BACKBONE|DICT|INTERRES
    35   20   44 1    
    36   21   22 2    
    37   21   23 1    
    38   23   28 ar   
    39   23   24 ar   
    40   24   25 ar   
    41   24   45 1    
    42   25   26 ar   
    43   25   46 1    
    44   26   27 ar   
    45   26   31 1    
    46   27   28 ar   
    47   27   29 1    
    48   28   47 1    
    49   29   30 1    
    50   30   48 1    
    51   30   49 1    
    52   30   50 1    
    53   31   32 1    
    54   32   51 1    
    55   32   52 1    
    56   32   53 1    
    57   33   54 1    
    58   33   55 1    
    59   33   56 1    
@<TRIPOS>SUBSTRUCTURE
     1 UNK         1 GROUP             0       ****    0 ROOT    
