ZINC09263064_3159
                    3D
 Schrodinger Suite 2024-2.
 51 53  0  0  1  0            999 V2000
    2.7352   50.3868   20.9796 C   0  0  0  0  0  0
    1.7235   50.5712   22.0978 C   0  0  0  0  0  0
    1.2112   49.4766   22.7804 C   0  0  0  0  0  0
    0.2445   49.6279   23.7780 C   0  0  0  0  0  0
   -0.2054   50.9227   24.1344 C   0  0  0  0  0  0
    0.3718   52.0392   23.4797 C   0  0  0  0  0  0
    1.2916   51.8433   22.4467 C   0  0  0  0  0  0
    0.0799   53.4818   23.8489 C   0  0  0  0  0  0
   -1.5832   51.0866   25.3226 S   0  0  0  0  0  0
   -2.6080   50.1135   24.9311 O   0  0  0  0  0  0
   -1.9554   52.4957   25.4923 O   0  0  0  0  0  0
   -0.9684   50.5492   26.8817 N   0  0  0  0  0  0
   -0.4579   51.3966   27.8216 C   0  0  0  0  0  0
   -1.0551   51.6948   28.9452 N   0  0  0  0  0  0
   -0.2896   52.5215   29.7502 N   0  0  0  0  0  0
    0.8668   52.8414   29.2205 C   0  0  0  0  0  0
    1.1040   52.1302   27.6405 S   0  0  0  0  0  0
    1.8554   53.7291   29.9478 C   0  0  0  0  0  0
    2.1693   55.0514   29.2187 C   0  0  0  0  0  0
    2.9214   54.8938   27.9746 N   0  0  0  0  0  0
    4.2054   54.4968   27.8897 C   0  0  0  0  0  0
    4.8741   54.1996   28.8810 O   0  0  0  0  0  0
    4.8205   54.4883   26.5077 C   0  0  0  0  0  0
    6.2178   54.4931   26.3703 C   0  0  0  0  0  0
    6.8071   54.4972   25.1057 C   0  0  0  0  0  0
    6.0203   54.4964   23.9617 C   0  0  0  0  0  0
    4.6357   54.4872   24.0802 C   0  0  0  0  0  0
    4.0345   54.4765   25.3400 C   0  0  0  0  0  0
    3.5783   54.4968   22.5030 Br  0  0  0  0  0  0
   -0.2549   48.3563   24.4594 C   0  0  0  0  0  0
    2.5388   51.0856   20.1647 H   0  0  0  0  0  0
    3.7472   50.5651   21.3419 H   0  0  0  0  0  0
    2.6848   49.3844   20.5503 H   0  0  0  0  0  0
    1.5766   48.4971   22.5217 H   0  0  0  0  0  0
    1.6823   52.6871   21.9006 H   0  0  0  0  0  0
    0.7016   54.1922   23.3030 H   0  0  0  0  0  0
   -0.9647   53.7379   23.6840 H   0  0  0  0  0  0
    0.3051   53.6268   24.9003 H   0  0  0  0  0  0
   -1.2949   49.6260   27.1678 H   0  0  0  0  0  0
    2.7763   53.1803   30.1414 H   0  0  0  0  0  0
    1.4618   53.9750   30.9338 H   0  0  0  0  0  0
    2.7035   55.7324   29.8836 H   0  0  0  0  0  0
    1.2340   55.5614   28.9809 H   0  0  0  0  0  0
    2.4317   55.1105   27.1220 H   0  0  0  0  0  0
    6.8557   54.4936   27.2439 H   0  0  0  0  0  0
    7.8804   54.4981   24.9935 H   0  0  0  0  0  0
    6.4828   54.5010   22.9857 H   0  0  0  0  0  0
    2.9564   54.4533   25.3869 H   0  0  0  0  0  0
    0.3651   47.4932   24.2249 H   0  0  0  0  0  0
   -0.2287   48.4513   25.5441 H   0  0  0  0  0  0
   -1.2768   48.1258   24.1612 H   0  0  0  0  0  0
  1  2  1  0  0  0
  1 31  1  0  0  0
  1 32  1  0  0  0
  1 33  1  0  0  0
  2  7  2  0  0  0
  2  3  1  0  0  0
  3  4  2  0  0  0
  3 34  1  0  0  0
  4  5  1  0  0  0
  4 30  1  0  0  0
  5  6  2  0  0  0
  5  9  1  0  0  0
  6  7  1  0  0  0
  6  8  1  0  0  0
  7 35  1  0  0  0
  8 36  1  0  0  0
  8 37  1  0  0  0
  8 38  1  0  0  0
  9 10  2  0  0  0
  9 11  2  0  0  0
  9 12  1  0  0  0
 12 13  1  0  0  0
 12 39  1  0  0  0
 13 17  1  0  0  0
 13 14  2  0  0  0
 14 15  1  0  0  0
 15 16  2  0  0  0
 16 17  1  0  0  0
 16 18  1  0  0  0
 18 19  1  0  0  0
 18 40  1  0  0  0
 18 41  1  0  0  0
 19 20  1  0  0  0
 19 42  1  0  0  0
 19 43  1  0  0  0
 20 21  1  0  0  0
 20 44  1  0  0  0
 21 22  2  0  0  0
 21 23  1  0  0  0
 23 28  2  0  0  0
 23 24  1  0  0  0
 24 25  2  0  0  0
 24 45  1  0  0  0
 25 26  1  0  0  0
 25 46  1  0  0  0
 26 27  2  0  0  0
 26 47  1  0  0  0
 27 28  1  0  0  0
 27 29  1  0  0  0
 28 48  1  0  0  0
 30 49  1  0  0  0
 30 50  1  0  0  0
 30 51  1  0  0  0
M  END
> <i_i_glide_confnum>
144

> <i_i_glide_lignum>
3160

> <i_i_glide_posenum>
227

> <i_i_glide_rotatable_bonds>
8

> <i_m_Source_File_Index>
3967

> <b_m_subgroup_collapsed>
0

> <r_i_docking_score>
-5.59462

> <r_i_glide_ecoul>
-1.70998

> <r_i_glide_eff_state_penalty>
0

> <r_i_glide_einternal>
6.42932

> <r_i_glide_emodel>
-62.819

> <r_i_glide_energy>
-48.4527

> <r_i_glide_erotb>
0.552379

> <r_i_glide_esite>
-0.232958

> <r_i_glide_evdw>
-46.7427

> <r_i_glide_gscore>
-5.59462

> <r_i_glide_hbond>
-0.16

> <r_i_glide_ligand_efficiency>
-0.186487

> <r_i_glide_ligand_efficiency_ln>
-1.27116

> <r_i_glide_ligand_efficiency_sa>
-0.579459

> <r_i_glide_lipo>
-2.72874

> <r_i_glide_metal>
0

> <r_i_glide_rewards>
-0.431668

> <s_i_glide_gridfile>
wee1_glide-grid

> <s_m_Source_File>
wee1_decoys_glide_SP.sdf

> <s_m_Source_Path>
/Users/zhangxujun/Desktop

> <s_m_entry_id>
4242

> <s_m_entry_name>
wee1_decoys_glide_SP.3967

> <s_m_subgroup_title>
wee1_decoys_glide_SP

> <s_m_subgroupid>
wee1_decoys_glide_SP


$$$$
