@<TRIPOS>MOLECULE
ZINC13243852_5936
45   47    1
SMALL
USER_CHARGES


@<TRIPOS>ATOM
      1 C1          1.0935   49.7910   24.1612 C.2       1 UNK         0.0000 
      2 C2          0.3071   50.4031   25.0642 C.2       1 UNK         0.0000 
      3 C3          0.5091   51.8341   25.5442 C.3       1 UNK         0.0000 
      4 N4          0.3747   52.0270   26.9954 N.pl3     1 UNK         0.0000 
      5 C5          1.2872   52.5568   27.9063 C.ar      1 UNK         0.0000 
      6 N6          0.7581   52.5700   29.1055 N.2       1 UNK         0.0000 
      7 N7         -0.5403   52.0971   29.0074 N.2       1 UNK         0.0000 
      8 C8         -0.7691   51.8148   27.7479 C.ar      1 UNK         0.0000 
      9 S9         -2.3401   51.2969   27.1001 S.3       1 UNK         0.0000 
     10 C10        -3.1771   50.8032   28.6433 C.3       1 UNK         0.0000 
     11 C11        -4.4467   49.9806   28.4279 C.2       1 UNK         0.0000 
     12 O12        -5.5431   50.5176   28.5999 O.2       1 UNK         0.0000 
     13 N13        -4.2688   48.6882   28.0818 N.am      1 UNK         0.0000 
     14 C14        -5.2195   47.6423   28.0461 C.ar      1 UNK         0.0000 
     15 C15        -6.2879   47.6430   28.9632 C.ar      1 UNK         0.0000 
     16 C16        -7.1896   46.5872   29.0189 C.ar      1 UNK         0.0000 
     17 C17        -7.0413   45.5042   28.1639 C.ar      1 UNK         0.0000 
     18 C18        -5.9914   45.4816   27.2507 C.ar      1 UNK         0.0000 
     19 C19        -5.0646   46.5375   27.1621 C.ar      1 UNK         0.0000 
     20 C20        -3.9804   46.4403   26.1166 C.2       1 UNK         0.0000 
     21 O21        -3.4625   47.4920   25.6800 O.co2     1 UNK         0.0000 
     22 F22        -8.1973   46.6042   29.9204 F         1 UNK         0.0000 
     23 C23         2.6638   53.1098   27.6312 C.ar      1 UNK         0.0000 
     24 C24         2.8449   53.9312   26.5101 C.ar      1 UNK         0.0000 
     25 C25         4.0847   54.4968   26.2170 C.ar      1 UNK         0.0000 
     26 C26         5.1699   54.2693   27.0582 C.ar      1 UNK         0.0000 
     27 C27         5.0091   53.4746   28.1897 C.ar      1 UNK         0.0000 
     28 C28         3.7710   52.8960   28.4814 C.ar      1 UNK         0.0000 
     29 Cl29        3.6791   51.8868   29.8870 Cl        1 UNK         0.0000 
     30 Cl30        6.7048   54.9748   26.7033 Cl        1 UNK         0.0000 
     31 H31         0.8990   48.7700   23.8638 H         1 UNK         0.0000 
     32 H32         1.9372   50.2900   23.7082 H         1 UNK         0.0000 
     33 H33        -0.5268   49.8537   25.4809 H         1 UNK         0.0000 
     34 H34        -0.2225   52.4805   25.0585 H         1 UNK         0.0000 
     35 H35         1.4925   52.1564   25.2134 H         1 UNK         0.0000 
     36 H36        -2.4990   50.2366   29.2791 H         1 UNK         0.0000 
     37 H37        -3.4372   51.6968   29.2018 H         1 UNK         0.0000 
     38 H38        -3.3264   48.4323   27.7988 H         1 UNK         0.0000 
     39 H39        -6.4163   48.4491   29.6696 H         1 UNK         0.0000 
     40 H40        -7.7408   44.6821   28.2102 H         1 UNK         0.0000 
     41 H41        -5.9078   44.6235   26.5966 H         1 UNK         0.0000 
     42 H42         2.0145   54.1544   25.8585 H         1 UNK         0.0000 
     43 H43         4.1980   55.1217   25.3441 H         1 UNK         0.0000 
     44 H44         5.8533   53.2995   28.8401 H         1 UNK         0.0000 
     45 O45        -3.6958   45.2969   25.6816 O.co2     1 UNK         0.0000 
@<TRIPOS>BOND
     1    1    2 2    
     2    1   31 1    
     3    1   32 1    
     4    2    3 1    
     5    2   33 1    
     6    3    4 1    
     7    3   34 1    
     8    3   35 1    
     9    4    8 ar   
    10    4    5 ar   
    11    5    6 ar   
    12    5   23 1    
    13    6    7 ar   
    14    7    8 ar   
    15    8    9 1    
    16    9   10 1    
    17   10   11 1    
    18   10   36 1    
    19   10   37 1    
    20   11   12 2    
    21   11   13 am   BACKBONE|DICT|INTERRES
    22   13   14 1    
    23   13   38 1    
    24   14   19 ar   
    25   14   15 ar   
    26   15   16 ar   
    27   15   39 1    
    28   16   17 ar   
    29   16   22 1    
    30   17   18 ar   
    31   17   40 1    
    32   18   19 ar   
    33   18   41 1    
    34   19   20 1    
    35   20   21 2    
    36   20   45 1    
    37   23   28 ar   
    38   23   24 ar   
    39   24   25 ar   
    40   24   42 1    
    41   25   26 ar   
    42   25   43 1    
    43   26   27 ar   
    44   26   30 1    
    45   27   28 ar   
    46   27   44 1    
    47   28   29 1    
@<TRIPOS>SUBSTRUCTURE
     1 UNK         1 GROUP             0       ****    0 ROOT    
