ZINC39675374_2928
                    3D
 Schrodinger Suite 2024-2.
 78 81  0  0  1  0            999 V2000
   -3.6531   51.1852   16.5187 C   0  0  0  0  0  0
   -3.6004   50.0007   17.5036 C   0  0  0  0  0  0
   -2.5091   50.0292   18.6174 C   0  0  1  0  0  0
   -2.5265   49.0151   19.0158 H   0  0  0  0  0  0
   -1.0884   50.2901   18.0849 C   0  0  0  0  0  0
   -0.6666   51.5836   17.7391 C   0  0  0  0  0  0
    0.6300   51.8066   17.2885 C   0  0  0  0  0  0
    1.5072   50.7325   17.1721 C   0  0  0  0  0  0
    1.1023   49.4414   17.4972 C   0  0  0  0  0  0
   -0.1951   49.2194   17.9504 C   0  0  0  0  0  0
   -2.8340   50.9800   19.8026 C   0  0  0  0  0  0
   -3.2950   52.0957   19.5531 O   0  0  0  0  0  0
   -2.5906   50.5823   21.0779 N   0  0  0  0  0  0
   -2.6810   51.5155   22.2157 C   0  0  0  0  0  0
   -1.5320   51.0512   23.1420 C   0  0  1  0  0  0
   -1.6973   51.3177   24.1838 H   0  0  0  0  0  0
   -1.5777   49.4995   22.9479 C   0  0  0  0  0  0
   -1.8432   49.3668   21.4336 C   0  0  0  0  0  0
   -2.7875   48.8258   23.6755 C   0  0  0  0  0  0
   -2.7055   48.9514   25.2106 C   0  0  0  0  0  0
   -1.3897   48.2955   25.6817 N   0  3  0  0  0  0
   -0.1212   48.7686   24.9399 C   0  0  0  0  0  0
   -0.3624   48.6504   23.4177 C   0  0  0  0  0  0
   -0.1757   51.6712   22.6866 C   0  0  0  0  0  0
   -0.0360   52.0960   21.5408 O   0  0  0  0  0  0
    0.7821   51.7819   23.6208 N   0  0  0  0  0  0
    2.1272   52.3612   23.4926 C   0  0  1  0  0  0
    2.7021   51.8331   24.2494 H   0  0  0  0  0  0
    2.8670   52.0613   22.1625 C   0  0  0  0  0  0
    2.1572   53.8623   23.8625 C   0  0  0  0  0  0
    3.2768   54.2197   24.8688 C   0  0  0  0  0  0
    3.1305   53.7054   26.3074 C   0  0  0  0  0  0
    1.9153   53.2429   26.8244 C   0  0  0  0  0  0
    1.8392   52.7947   28.1423 C   0  0  0  0  0  0
    2.9637   52.8101   28.9656 C   0  0  0  0  0  0
    4.1762   53.2954   28.4552 C   0  0  0  0  0  0
    4.2556   53.7366   27.1356 C   0  0  0  0  0  0
    2.7922   52.3296   30.2495 O   0  0  0  0  0  0
    3.9043   52.2976   31.1339 C   0  0  0  0  0  0
   -4.4817   51.0688   15.8206 H   0  0  0  0  0  0
   -3.7915   52.1386   17.0290 H   0  0  0  0  0  0
   -2.7430   51.2525   15.9254 H   0  0  0  0  0  0
   -3.4684   49.0880   16.9211 H   0  0  0  0  0  0
   -4.5839   49.8974   17.9663 H   0  0  0  0  0  0
   -1.3377   52.4237   17.8312 H   0  0  0  0  0  0
    0.9604   52.8054   17.0372 H   0  0  0  0  0  0
    2.5216   50.8955   16.8336 H   0  0  0  0  0  0
    1.8056   48.6263   17.4006 H   0  0  0  0  0  0
   -0.4956   48.2154   18.2087 H   0  0  0  0  0  0
   -2.5458   52.5685   21.9638 H   0  0  0  0  0  0
   -3.6083   51.3722   22.7709 H   0  0  0  0  0  0
   -2.2935   48.4156   21.1486 H   0  0  0  0  0  0
   -0.8729   49.4167   20.9354 H   0  0  0  0  0  0
   -3.7303   49.2725   23.3573 H   0  0  0  0  0  0
   -2.8829   47.7771   23.3871 H   0  0  0  0  0  0
   -2.7010   49.9768   25.5806 H   0  0  0  0  0  0
   -3.5070   48.4100   25.7186 H   0  0  0  0  0  0
   -1.2959   48.4402   26.6947 H   0  0  0  0  0  0
    0.0685   49.7838   25.2872 H   0  0  0  0  0  0
    0.6871   48.1215   25.2830 H   0  0  0  0  0  0
   -0.4959   47.6047   23.1426 H   0  0  0  0  0  0
    0.5424   48.9611   22.8954 H   0  0  0  0  0  0
    0.5473   51.4689   24.5483 H   0  0  0  0  0  0
    3.8757   52.4760   22.1768 H   0  0  0  0  0  0
    2.9624   50.9896   21.9807 H   0  0  0  0  0  0
    2.3864   52.5254   21.3016 H   0  0  0  0  0  0
    2.3065   54.4509   22.9566 H   0  0  0  0  0  0
    1.1933   54.2092   24.2365 H   0  0  0  0  0  0
    4.2287   53.8690   24.4662 H   0  0  0  0  0  0
    3.3598   55.2976   24.9271 H   0  0  0  0  0  0
    1.0196   53.2259   26.2245 H   0  0  0  0  0  0
    0.8996   52.4329   28.5315 H   0  0  0  0  0  0
    5.0675   53.3300   29.0612 H   0  0  0  0  0  0
    5.2005   54.0996   26.7590 H   0  0  0  0  0  0
    3.6009   51.8598   32.0850 H   0  0  0  0  0  0
    4.7156   51.6923   30.7310 H   0  0  0  0  0  0
    4.3008   53.2937   31.3297 H   0  0  0  0  0  0
   -1.4647   47.2943   25.5778 H   0  0  0  0  0  0
  1  2  1  0  0  0
  1 40  1  0  0  0
  1 41  1  0  0  0
  1 42  1  0  0  0
  2  3  1  0  0  0
  2 43  1  0  0  0
  2 44  1  0  0  0
  3  4  1  0  0  0
  3  5  1  0  0  0
  3 11  1  0  0  0
  5 10  2  0  0  0
  5  6  1  0  0  0
  6  7  2  0  0  0
  6 45  1  0  0  0
  7  8  1  0  0  0
  7 46  1  0  0  0
  8  9  2  0  0  0
  8 47  1  0  0  0
  9 10  1  0  0  0
  9 48  1  0  0  0
 10 49  1  0  0  0
 11 12  2  0  0  0
 11 13  1  0  0  0
 13 18  1  0  0  0
 13 14  1  0  0  0
 14 15  1  0  0  0
 14 50  1  0  0  0
 14 51  1  0  0  0
 15 16  1  0  0  0
 15 17  1  0  0  0
 15 24  1  0  0  0
 17 23  1  0  0  0
 17 18  1  0  0  0
 17 19  1  0  0  0
 18 52  1  0  0  0
 18 53  1  0  0  0
 19 20  1  0  0  0
 19 54  1  0  0  0
 19 55  1  0  0  0
 20 21  1  0  0  0
 20 56  1  0  0  0
 20 57  1  0  0  0
 21 22  1  0  0  0
 21 58  1  0  0  0
 21 78  1  0  0  0
 22 23  1  0  0  0
 22 59  1  0  0  0
 22 60  1  0  0  0
 23 61  1  0  0  0
 23 62  1  0  0  0
 24 25  2  0  0  0
 24 26  1  0  0  0
 26 27  1  0  0  0
 26 63  1  0  0  0
 27 28  1  0  0  0
 27 29  1  0  0  0
 27 30  1  0  0  0
 29 64  1  0  0  0
 29 65  1  0  0  0
 29 66  1  0  0  0
 30 31  1  0  0  0
 30 67  1  0  0  0
 30 68  1  0  0  0
 31 32  1  0  0  0
 31 69  1  0  0  0
 31 70  1  0  0  0
 32 37  2  0  0  0
 32 33  1  0  0  0
 33 34  2  0  0  0
 33 71  1  0  0  0
 34 35  1  0  0  0
 34 72  1  0  0  0
 35 36  2  0  0  0
 35 38  1  0  0  0
 36 37  1  0  0  0
 36 73  1  0  0  0
 37 74  1  0  0  0
 38 39  1  0  0  0
 39 75  1  0  0  0
 39 76  1  0  0  0
 39 77  1  0  0  0
M  CHG  1  21   1
M  END
> <i_i_glide_confnum>
278

> <i_i_glide_lignum>
2929

> <i_i_glide_posenum>
397

> <i_i_glide_rotatable_bonds>
11

> <i_m_Source_File_Index>
2231

> <b_m_subgroup_collapsed>
0

> <r_i_docking_score>
-5.20573

> <r_i_glide_ecoul>
-10.2915

> <r_i_glide_eff_state_penalty>
0

> <r_i_glide_einternal>
8.90654

> <r_i_glide_emodel>
-54.9353

> <r_i_glide_energy>
-42.4624

> <r_i_glide_erotb>
0.755153

> <r_i_glide_esite>
-0.107907

> <r_i_glide_evdw>
-32.1709

> <r_i_glide_gscore>
-5.20573

> <r_i_glide_hbond>
-0.669503

> <r_i_glide_ligand_efficiency>
-0.144604

> <r_i_glide_ligand_efficiency_ln>
-1.13575

> <r_i_glide_ligand_efficiency_sa>
-0.477471

> <r_i_glide_lipo>
-1.93867

> <r_i_glide_metal>
0

> <r_i_glide_rewards>
-0.0925417

> <s_i_glide_gridfile>
wee1_glide-grid

> <s_m_Source_File>
wee1_decoys_glide_SP.sdf

> <s_m_Source_Path>
/Users/zhangxujun/Desktop

> <s_m_entry_id>
2506

> <s_m_entry_name>
wee1_decoys_glide_SP.2231

> <s_m_subgroup_title>
wee1_decoys_glide_SP

> <s_m_subgroupid>
wee1_decoys_glide_SP


$$$$
