ZINC09307054_2787
                    3D
 Schrodinger Suite 2024-2.
 52 56  0  0  1  0            999 V2000
    1.5054   52.7432   28.7779 C   0  0  0  0  0  0
    1.9845   53.1726   27.3841 C   0  0  0  0  0  0
    1.1188   52.5705   26.2574 C   0  0  0  0  0  0
    1.5651   52.8783   24.8348 C   0  0  0  0  0  0
    1.0023   52.3636   23.6452 C   0  0  0  0  0  0
    1.7764   52.9200   22.6538 C   0  0  0  0  0  0
    2.7097   53.7105   23.2438 N   0  0  0  0  0  0
    3.4064   54.2571   22.7578 H   0  0  0  0  0  0
    2.5794   53.6961   24.5786 N   0  0  0  0  0  0
    1.6539   52.7715   21.2986 O   0  0  0  0  0  0
    0.5478   52.0641   20.9240 C   0  0  0  0  0  0
   -0.3487   51.4633   21.7516 C   0  0  0  0  0  0
   -0.1598   51.4291   23.2885 C   0  0  2  0  0  0
   -1.3860   51.7285   24.0984 C   0  0  0  0  0  0
   -2.2156   52.8536   24.1394 C   0  0  0  0  0  0
   -3.2883   52.8853   25.0371 C   0  0  0  0  0  0
   -3.5123   51.8027   25.8949 C   0  0  0  0  0  0
   -2.6801   50.6819   25.8506 C   0  0  0  0  0  0
   -1.6251   50.6517   24.9350 C   0  0  0  0  0  0
   -0.6845   49.6452   24.6898 N   0  0  0  0  0  0
    0.1938   49.9879   23.7130 C   0  0  0  0  0  0
    1.0976   49.3004   23.2316 O   0  0  0  0  0  0
   -0.6809   48.3009   25.2841 C   0  0  0  0  0  0
   -1.8577   47.4438   24.8271 C   0  0  0  0  0  0
   -2.7286   46.8954   25.7741 C   0  0  0  0  0  0
   -3.8570   46.1825   25.3642 C   0  0  0  0  0  0
   -4.1057   45.9981   24.0012 C   0  0  0  0  0  0
   -3.2213   46.5103   23.0525 C   0  0  0  0  0  0
   -2.1000   47.2334   23.4624 C   0  0  0  0  0  0
   -3.4528   46.3085   21.7359 F   0  0  0  0  0  0
   -1.4867   50.8029   21.1902 C   0  0  0  0  0  0
   -2.4182   50.3030   20.7189 N   0  0  0  0  0  0
    0.4917   52.0995   19.5557 N   0  0  0  0  0  0
    2.1377   53.1647   29.5595 H   0  0  0  0  0  0
    1.5265   51.6576   28.8854 H   0  0  0  0  0  0
    0.4829   53.0713   28.9670 H   0  0  0  0  0  0
    1.9741   54.2619   27.3203 H   0  0  0  0  0  0
    3.0268   52.8667   27.2562 H   0  0  0  0  0  0
    1.1018   51.4878   26.3862 H   0  0  0  0  0  0
    0.0868   52.8971   26.3959 H   0  0  0  0  0  0
   -2.0364   53.6979   23.4907 H   0  0  0  0  0  0
   -3.9352   53.7491   25.0749 H   0  0  0  0  0  0
   -4.3358   51.8315   26.5976 H   0  0  0  0  0  0
   -2.8579   49.8514   26.5216 H   0  0  0  0  0  0
    0.2409   47.7651   25.0475 H   0  0  0  0  0  0
   -0.7034   48.4045   26.3717 H   0  0  0  0  0  0
   -2.5497   47.0477   26.8309 H   0  0  0  0  0  0
   -4.5405   45.7895   26.1035 H   0  0  0  0  0  0
   -4.9863   45.4590   23.6803 H   0  0  0  0  0  0
   -1.4333   47.6444   22.7187 H   0  0  0  0  0  0
   -0.1802   51.5478   19.0400 H   0  0  0  0  0  0
    1.1206   52.7017   19.0384 H   0  0  0  0  0  0
  1  2  1  0  0  0
  1 34  1  0  0  0
  1 35  1  0  0  0
  1 36  1  0  0  0
  2  3  1  0  0  0
  2 37  1  0  0  0
  2 38  1  0  0  0
  3  4  1  0  0  0
  3 39  1  0  0  0
  3 40  1  0  0  0
  4  9  2  0  0  0
  4  5  1  0  0  0
  5 13  1  0  0  0
  5  6  2  0  0  0
  6  7  1  0  0  0
  6 10  1  0  0  0
  7  8  1  0  0  0
  7  9  1  0  0  0
 10 11  1  0  0  0
 11 12  2  0  0  0
 11 33  1  0  0  0
 12 13  1  0  0  0
 12 31  1  0  0  0
 13 21  1  0  0  0
 13 14  1  0  0  0
 14 19  2  0  0  0
 14 15  1  0  0  0
 15 16  2  0  0  0
 15 41  1  0  0  0
 16 17  1  0  0  0
 16 42  1  0  0  0
 17 18  2  0  0  0
 17 43  1  0  0  0
 18 19  1  0  0  0
 18 44  1  0  0  0
 19 20  1  0  0  0
 20 21  1  0  0  0
 20 23  1  0  0  0
 21 22  2  0  0  0
 23 24  1  0  0  0
 23 45  1  0  0  0
 23 46  1  0  0  0
 24 29  2  0  0  0
 24 25  1  0  0  0
 25 26  2  0  0  0
 25 47  1  0  0  0
 26 27  1  0  0  0
 26 48  1  0  0  0
 27 28  2  0  0  0
 27 49  1  0  0  0
 28 29  1  0  0  0
 28 30  1  0  0  0
 29 50  1  0  0  0
 31 32  3  0  0  0
 33 51  1  0  0  0
 33 52  1  0  0  0
M  END
> <i_i_glide_confnum>
1

> <i_i_glide_lignum>
2788

> <i_i_glide_posenum>
267

> <i_i_glide_rotatable_bonds>
5

> <i_m_Source_File_Index>
2620

> <b_m_subgroup_collapsed>
0

> <r_i_docking_score>
-3.40987

> <r_i_glide_ecoul>
-2.38206

> <r_i_glide_eff_state_penalty>
0

> <r_i_glide_einternal>
1.36567

> <r_i_glide_emodel>
-41.636

> <r_i_glide_energy>
-34.7705

> <r_i_glide_erotb>
0.323263

> <r_i_glide_esite>
-0.0526283

> <r_i_glide_evdw>
-32.3885

> <r_i_glide_gscore>
-3.40987

> <r_i_glide_hbond>
0

> <r_i_glide_ligand_efficiency>
-0.106558

> <r_i_glide_ligand_efficiency_ln>
-0.763562

> <r_i_glide_ligand_efficiency_sa>
-0.338302

> <r_i_glide_lipo>
-1.17938

> <r_i_glide_metal>
0

> <r_i_glide_rewards>
-0.524389

> <s_i_glide_gridfile>
wee1_glide-grid

> <s_m_Source_File>
wee1_decoys_glide_SP.sdf

> <s_m_Source_Path>
/Users/zhangxujun/Desktop

> <s_m_entry_id>
2895

> <s_m_entry_name>
wee1_decoys_glide_SP.2620

> <s_m_subgroup_title>
wee1_decoys_glide_SP

> <s_m_subgroupid>
wee1_decoys_glide_SP


$$$$
