@<TRIPOS>MOLECULE
ZINC58961604_5922
61   63    1
SMALL
USER_CHARGES


@<TRIPOS>ATOM
      1 C1         -3.2974   47.8175   25.9556 C.3       1 UNK         0.0000 
      2 C2         -2.8032   46.6226   25.1260 C.3       1 UNK         0.0000 
      3 O3         -2.2594   47.0189   23.8577 O.3       1 UNK         0.0000 
      4 C4         -3.0527   47.6641   22.9477 C.2       1 UNK         0.0000 
      5 O5         -4.2465   47.1820   22.8563 O.co2     1 UNK         0.0000 
      6 C6         -2.4582   48.6760   22.2648 C.2       1 UNK         0.0000 
      7 C7         -3.1485   49.4622   21.2381 C.2       1 UNK         0.0000 
      8 N8         -2.5194   50.2821   20.4791 N.2       1 UNK         0.0000 
      9 C9         -1.1536   50.4786   20.6345 C.2       1 UNK         0.0000 
     10 N10        -0.3765   49.9406   21.4930 N.2       1 UNK         0.0000 
     11 C11        -0.9710   49.0629   22.5029 C.3       1 UNK         0.0000 
     12 H12        -0.4178   48.1262   22.4328 H         1 UNK         0.0000 
     13 C13        -0.6822   49.6395   23.9002 C.ar      1 UNK         0.0000 
     14 C14         0.1092   48.8968   24.7826 C.ar      1 UNK         0.0000 
     15 C15         0.3998   49.3748   26.0542 C.ar      1 UNK         0.0000 
     16 C16        -0.0816   50.6132   26.4616 C.ar      1 UNK         0.0000 
     17 C17        -0.8643   51.3719   25.5963 C.ar      1 UNK         0.0000 
     18 C18        -1.1815   50.8958   24.3092 C.ar      1 UNK         0.0000 
     19 O19        -1.9774   51.6006   23.4268 O.3       1 UNK         0.0000 
     20 C20        -2.3720   52.9307   23.7330 C.3       1 UNK         0.0000 
     21 S21        -0.4386   51.6947   19.5019 S.3       1 UNK         0.0000 
     22 C22         1.3271   51.7743   20.0180 C.3       1 UNK         0.0000 
     23 C23         1.6193   52.4966   21.3472 C.2       1 UNK         0.0000 
     24 O24         0.7054   52.8060   22.1104 O.2       1 UNK         0.0000 
     25 N25         2.9215   52.7734   21.5755 N.am      1 UNK         0.0000 
     26 C26         3.5245   53.3894   22.6887 C.ar      1 UNK         0.0000 
     27 C27         2.8700   53.6973   23.8936 C.ar      1 UNK         0.0000 
     28 C28         3.5823   54.2432   24.9595 C.ar      1 UNK         0.0000 
     29 C29         4.9496   54.4944   24.8494 C.ar      1 UNK         0.0000 
     30 C30         5.6116   54.1981   23.6487 C.ar      1 UNK         0.0000 
     31 C31         4.8918   53.6582   22.5758 C.ar      1 UNK         0.0000 
     32 C32         7.1033   54.4401   23.4974 C.3       1 UNK         0.0000 
     33 C33         5.6957   55.0820   26.0404 C.3       1 UNK         0.0000 
     34 C34        -4.6419   49.4053   20.9437 C.3       1 UNK         0.0000 
     35 H35        -3.6233   47.4937   26.9452 H         1 UNK         0.0000 
     36 H36        -2.5029   48.5515   26.0865 H         1 UNK         0.0000 
     37 H37        -4.1382   48.3191   25.4771 H         1 UNK         0.0000 
     38 H38        -3.5900   45.8782   25.0030 H         1 UNK         0.0000 
     39 H39        -2.0022   46.1226   25.6708 H         1 UNK         0.0000 
     40 H40         0.4931   47.9316   24.4935 H         1 UNK         0.0000 
     41 H41         0.9952   48.7740   26.7250 H         1 UNK         0.0000 
     42 H42         0.1359   50.9774   27.4541 H         1 UNK         0.0000 
     43 H43        -1.2323   52.3238   25.9477 H         1 UNK         0.0000 
     44 H44        -2.9241   53.3281   22.8839 H         1 UNK         0.0000 
     45 H45        -3.0272   52.9673   24.6057 H         1 UNK         0.0000 
     46 H46        -1.5098   53.5775   23.9016 H         1 UNK         0.0000 
     47 H47         1.8713   52.2775   19.2212 H         1 UNK         0.0000 
     48 H48         1.7286   50.7632   20.0863 H         1 UNK         0.0000 
     49 H49         3.5606   52.5269   20.8358 H         1 UNK         0.0000 
     50 H50         1.8219   53.4998   24.0463 H         1 UNK         0.0000 
     51 H51         3.0582   54.4606   25.8805 H         1 UNK         0.0000 
     52 H52         5.4105   53.4276   21.6559 H         1 UNK         0.0000 
     53 H53         7.4596   54.2641   22.4816 H         1 UNK         0.0000 
     54 H54         7.6568   53.7898   24.1761 H         1 UNK         0.0000 
     55 H55         7.3465   55.4744   23.7505 H         1 UNK         0.0000 
     56 H56         5.0377   55.2885   26.8852 H         1 UNK         0.0000 
     57 H57         6.4737   54.3943   26.3745 H         1 UNK         0.0000 
     58 H58         6.1801   56.0161   25.7520 H         1 UNK         0.0000 
     59 H59        -5.2182   49.5045   21.8620 H         1 UNK         0.0000 
     60 H60        -4.9716   50.2033   20.2756 H         1 UNK         0.0000 
     61 H61        -4.9079   48.4561   20.4787 H         1 UNK         0.0000 
@<TRIPOS>BOND
     1    1    2 1    
     2    1   35 1    
     3    1   36 1    
     4    1   37 1    
     5    2    3 1    
     6    2   38 1    
     7    2   39 1    
     8    3    4 1    
     9    4    5 1    
    10    4    6 2    
    11    6   11 1    
    12    6    7 1    
    13    7    8 2    
    14    7   34 1    
    15    8    9 1    
    16    9   10 2    
    17    9   21 1    
    18   10   11 1    
    19   11   12 1    
    20   11   13 1    
    21   13   18 ar   
    22   13   14 ar   
    23   14   15 ar   
    24   14   40 1    
    25   15   16 ar   
    26   15   41 1    
    27   16   17 ar   
    28   16   42 1    
    29   17   18 ar   
    30   17   43 1    
    31   18   19 1    
    32   19   20 1    
    33   20   44 1    
    34   20   45 1    
    35   20   46 1    
    36   21   22 1    
    37   22   23 1    
    38   22   47 1    
    39   22   48 1    
    40   23   24 2    
    41   23   25 am   BACKBONE|DICT|INTERRES
    42   25   26 1    
    43   25   49 1    
    44   26   31 ar   
    45   26   27 ar   
    46   27   28 ar   
    47   27   50 1    
    48   28   29 ar   
    49   28   51 1    
    50   29   30 ar   
    51   29   33 1    
    52   30   31 ar   
    53   30   32 1    
    54   31   52 1    
    55   32   53 1    
    56   32   54 1    
    57   32   55 1    
    58   33   56 1    
    59   33   57 1    
    60   33   58 1    
    61   34   59 1    
    62   34   60 1    
    63   34   61 1    
@<TRIPOS>SUBSTRUCTURE
     1 UNK         1 GROUP             0       ****    0 ROOT    
