ZINC00663242_3912
                    3D
 Schrodinger Suite 2024-2.
 47 50  0  0  1  0            999 V2000
    6.6202   54.5501   17.8036 C   0  0  0  0  0  0
    5.6473   53.9612   17.0035 C   0  0  0  0  0  0
    4.5129   53.3999   17.5839 C   0  0  0  0  0  0
    4.3361   53.4149   18.9796 C   0  0  0  0  0  0
    5.3293   54.0023   19.7851 C   0  0  0  0  0  0
    6.4643   54.5742   19.1876 C   0  0  0  0  0  0
    5.1013   53.9739   21.1753 N   0  0  0  0  0  0
    5.8008   54.4966   22.2026 C   0  0  0  0  0  0
    6.9009   55.0459   22.1058 O   0  0  0  0  0  0
    5.1467   54.3461   23.4908 C   0  0  0  0  0  0
    3.7999   54.0968   23.8073 C   0  0  0  0  0  0
    3.5747   53.9756   25.2152 C   0  0  0  0  0  0
    2.4077   53.6967   25.9514 C   0  0  0  0  0  0
    2.4494   53.6961   27.3514 C   0  0  0  0  0  0
    3.6828   53.9642   27.9745 C   0  0  0  0  0  0
    4.8373   54.1909   27.2900 N   0  0  0  0  0  0
    4.7601   54.1966   25.9608 C   0  0  0  0  0  0
    6.1453   54.4994   24.9357 S   0  0  0  0  0  0
    3.8094   54.0862   29.4900 C   0  0  0  0  0  0
    3.5053   52.8053   30.2860 C   0  0  0  0  0  0
    2.0056   52.5247   30.4610 C   0  0  0  0  0  0
    1.2558   52.2264   29.1555 C   0  0  0  0  0  0
    1.1826   53.3995   28.1577 C   0  0  0  0  0  0
    2.7669   53.9993   22.9019 N   0  0  0  0  0  0
    3.2256   52.8826   19.6198 O   0  0  0  0  0  0
    2.1197   52.3739   18.8747 C   0  0  0  0  0  0
    1.1810   52.0335   19.7556 F   0  0  0  0  0  0
    1.5897   53.2967   18.0700 F   0  0  0  0  0  0
    2.4404   51.2819   18.1854 F   0  0  0  0  0  0
    7.5012   54.9851   17.3549 H   0  0  0  0  0  0
    5.7757   53.9326   15.9304 H   0  0  0  0  0  0
    3.7861   52.9436   16.9292 H   0  0  0  0  0  0
    7.2467   55.0335   19.7670 H   0  0  0  0  0  0
    4.2523   53.4936   21.4357 H   0  0  0  0  0  0
    1.4803   53.5029   25.4362 H   0  0  0  0  0  0
    4.8214   54.4140   29.7383 H   0  0  0  0  0  0
    3.1660   54.9002   29.8240 H   0  0  0  0  0  0
    3.9481   52.8953   31.2789 H   0  0  0  0  0  0
    4.0055   51.9507   29.8274 H   0  0  0  0  0  0
    1.5288   53.3694   30.9588 H   0  0  0  0  0  0
    1.8790   51.6926   31.1504 H   0  0  0  0  0  0
    0.2373   51.9334   29.4181 H   0  0  0  0  0  0
    1.6874   51.3513   28.6672 H   0  0  0  0  0  0
    0.8575   54.3156   28.6537 H   0  0  0  0  0  0
    0.3792   53.1760   27.4555 H   0  0  0  0  0  0
    1.8285   53.7801   23.2047 H   0  0  0  0  0  0
    2.8495   54.2742   21.9296 H   0  0  0  0  0  0
  1  6  2  0  0  0
  1  2  1  0  0  0
  1 30  1  0  0  0
  2  3  2  0  0  0
  2 31  1  0  0  0
  3  4  1  0  0  0
  3 32  1  0  0  0
  4  5  2  0  0  0
  4 25  1  0  0  0
  5  6  1  0  0  0
  5  7  1  0  0  0
  6 33  1  0  0  0
  7  8  1  0  0  0
  7 34  1  0  0  0
  8  9  2  0  0  0
  8 10  1  0  0  0
 10 18  1  0  0  0
 10 11  2  0  0  0
 11 12  1  0  0  0
 11 24  1  0  0  0
 12 17  2  0  0  0
 12 13  1  0  0  0
 13 14  2  0  0  0
 13 35  1  0  0  0
 14 23  1  0  0  0
 14 15  1  0  0  0
 15 16  2  0  0  0
 15 19  1  0  0  0
 16 17  1  0  0  0
 17 18  1  0  0  0
 19 20  1  0  0  0
 19 36  1  0  0  0
 19 37  1  0  0  0
 20 21  1  0  0  0
 20 38  1  0  0  0
 20 39  1  0  0  0
 21 22  1  0  0  0
 21 40  1  0  0  0
 21 41  1  0  0  0
 22 23  1  0  0  0
 22 42  1  0  0  0
 22 43  1  0  0  0
 23 44  1  0  0  0
 23 45  1  0  0  0
 24 46  1  0  0  0
 24 47  1  0  0  0
 25 26  1  0  0  0
 26 27  1  0  0  0
 26 28  1  0  0  0
 26 29  1  0  0  0
M  END
> <i_i_glide_confnum>
5

> <i_i_glide_lignum>
3913

> <i_i_glide_posenum>
83

> <i_i_glide_rotatable_bonds>
5

> <i_m_Source_File_Index>
1863

> <b_m_subgroup_collapsed>
0

> <r_i_docking_score>
-5.24788

> <r_i_glide_ecoul>
-0.103634

> <r_i_glide_eff_state_penalty>
0

> <r_i_glide_einternal>
1.80573

> <r_i_glide_emodel>
-57.8307

> <r_i_glide_energy>
-44.2432

> <r_i_glide_erotb>
0.445955

> <r_i_glide_esite>
-0.133938

> <r_i_glide_evdw>
-44.1395

> <r_i_glide_gscore>
-5.24788

> <r_i_glide_hbond>
0

> <r_i_glide_ligand_efficiency>
-0.180961

> <r_i_glide_ligand_efficiency_ln>
-1.20163

> <r_i_glide_ligand_efficiency_sa>
-0.55597

> <r_i_glide_lipo>
-2.43803

> <r_i_glide_metal>
0

> <r_i_glide_rewards>
-0.899348

> <s_i_glide_gridfile>
wee1_glide-grid

> <s_m_Source_File>
wee1_decoys_glide_SP.sdf

> <s_m_Source_Path>
/Users/zhangxujun/Desktop

> <s_m_entry_id>
2138

> <s_m_entry_name>
wee1_decoys_glide_SP.1863

> <s_m_subgroup_title>
wee1_decoys_glide_SP

> <s_m_subgroupid>
wee1_decoys_glide_SP


$$$$
