@<TRIPOS>MOLECULE
ZINC08684877_1924
35   36    1
SMALL
USER_CHARGES


@<TRIPOS>ATOM
      1 C1          6.7043   54.0967   28.0810 C.3       1 UNK         0.0000 
      2 C2          5.8807   54.1529   26.8154 C.ar      1 UNK         0.0000 
      3 C3          6.2928   54.3920   25.5207 C.ar      1 UNK         0.0000 
      4 C4          5.2089   54.3191   24.6425 C.ar      1 UNK         0.0000 
      5 C5          4.1044   54.0149   25.4478 C.ar      1 UNK         0.0000 
      6 N6          4.5093   53.9601   26.7807 N.pl3     1 UNK         0.0000 
      7 C7          3.6749   53.7194   27.9039 C.ar      1 UNK         0.0000 
      8 C8          2.5326   54.4986   28.1034 C.ar      1 UNK         0.0000 
      9 C9          1.6949   54.2507   29.1875 C.ar      1 UNK         0.0000 
     10 C10         2.0095   53.2268   30.0775 C.ar      1 UNK         0.0000 
     11 C11         3.1699   52.4741   29.9112 C.ar      1 UNK         0.0000 
     12 C12         3.9975   52.7143   28.8204 C.ar      1 UNK         0.0000 
     13 Cl13        0.9644   52.8968   31.4092 Cl        1 UNK         0.0000 
     14 C14         2.6696   53.7079   25.0338 C.3       1 UNK         0.0000 
     15 C15         5.2401   54.4960   23.1926 C.2       1 UNK         0.0000 
     16 N16         6.3036   54.8554   22.5980 N.2       1 UNK         0.0000 
     17 N17         6.1068   55.0703   21.2788 N.pl3     1 UNK         0.0000 
     18 C18         7.0722   55.5100   20.4237 C.2       1 UNK         0.0000 
     19 S19         6.7186   55.8106   18.8391 S.2       1 UNK         0.0000 
     20 N20         8.3306   55.6957   20.8862 N.pl3     1 UNK         0.0000 
     21 H21         7.6795   54.5538   27.9366 H         1 UNK         0.0000 
     22 H22         6.2313   54.6079   28.9154 H         1 UNK         0.0000 
     23 H23         6.9000   53.0726   28.3884 H         1 UNK         0.0000 
     24 H24         7.3122   54.5764   25.2193 H         1 UNK         0.0000 
     25 H25         2.2961   55.2982   27.4226 H         1 UNK         0.0000 
     26 H26         0.8063   54.8451   29.3335 H         1 UNK         0.0000 
     27 H27         3.4252   51.7009   30.6176 H         1 UNK         0.0000 
     28 H28         4.8772   52.1066   28.6839 H         1 UNK         0.0000 
     29 H29         2.5606   53.5943   23.9550 H         1 UNK         0.0000 
     30 H30         2.3135   52.7748   25.4797 H         1 UNK         0.0000 
     31 H31         1.9715   54.4957   25.3214 H         1 UNK         0.0000 
     32 H32         4.2823   54.3161   22.7090 H         1 UNK         0.0000 
     33 H33         5.1704   54.9143   20.9348 H         1 UNK         0.0000 
     34 H34         8.5310   55.5487   21.8678 H         1 UNK         0.0000 
     35 H35         9.0703   55.9431   20.2419 H         1 UNK         0.0000 
@<TRIPOS>BOND
     1    1    2 1    
     2    1   21 1    
     3    1   22 1    
     4    1   23 1    
     5    2    6 ar   
     6    2    3 ar   
     7    3    4 ar   
     8    3   24 1    
     9    4    5 ar   
    10    4   15 1    
    11    5    6 ar   
    12    5   14 1    
    13    6    7 1    
    14    7   12 ar   
    15    7    8 ar   
    16    8    9 ar   
    17    8   25 1    
    18    9   10 ar   
    19    9   26 1    
    20   10   11 ar   
    21   10   13 1    
    22   11   12 ar   
    23   11   27 1    
    24   12   28 1    
    25   14   29 1    
    26   14   30 1    
    27   14   31 1    
    28   15   16 2    
    29   15   32 1    
    30   16   17 1    
    31   17   18 1    
    32   17   33 1    
    33   18   19 2    
    34   18   20 1    
    35   20   34 1    
    36   20   35 1    
@<TRIPOS>SUBSTRUCTURE
     1 UNK         1 GROUP             0       ****    0 ROOT    
