@<TRIPOS>MOLECULE
ZINC38748420_2510
50   53    1
SMALL
USER_CHARGES


@<TRIPOS>ATOM
      1 C1          5.8776   54.1425   28.4888 C.3       1 UNK         0.0000 
      2 C2          5.1293   54.1305   27.1732 C.ar      1 UNK         0.0000 
      3 C3          3.7357   54.0919   27.1596 C.ar      1 UNK         0.0000 
      4 C4          3.0565   54.0318   25.9450 C.ar      1 UNK         0.0000 
      5 C5          3.7568   53.9935   24.7301 C.ar      1 UNK         0.0000 
      6 C6          5.1537   54.0967   24.7673 C.ar      1 UNK         0.0000 
      7 C7          5.8371   54.1570   25.9761 C.ar      1 UNK         0.0000 
      8 C8          2.9647   53.9439   23.4516 C.2       1 UNK         0.0000 
      9 O9          1.8700   54.4967   23.3562 O.2       1 UNK         0.0000 
     10 C10         3.2756   52.9142   22.3395 C.3       1 UNK         0.0000 
     11 S11         4.9876   52.9090   21.6979 S.3       1 UNK         0.0000 
     12 C12         5.2459   54.6156   21.1316 C.3       1 UNK         0.0000 
     13 H13         4.3447   55.1659   21.3986 H         1 UNK         0.0000 
     14 N14         6.3401   55.2963   21.8032 N.3       1 UNK         0.0000 
     15 N15         7.2163   55.7716   20.7719 N.3       1 UNK         0.0000 
     16 C16         6.3489   55.9398   19.6252 C.3       1 UNK         0.0000 
     17 H17         5.7499   56.8325   19.8342 H         1 UNK         0.0000 
     18 N18         5.4850   54.7725   19.7068 N.3       1 UNK         0.0000 
     19 N19         4.3108   54.7773   18.8635 N.3       1 UNK         0.0000 
     20 C20         7.0863   56.1533   18.2689 C.3       1 UNK         0.0000 
     21 H21         7.1842   55.2082   17.7334 H         1 UNK         0.0000 
     22 C22         8.4176   56.8417   18.3958 C.2       1 UNK         0.0000 
     23 C23         8.2532   58.0014   17.7525 C.2       1 UNK         0.0000 
     24 N24         7.0283   58.1022   17.1875 N.2       1 UNK         0.0000 
     25 N25         6.3391   57.0681   17.4465 N.2       1 UNK         0.0000 
     26 C26         9.2452   59.1028   17.6182 C.ar      1 UNK         0.0000 
     27 C27        10.5398   58.9597   18.1415 C.ar      1 UNK         0.0000 
     28 C28        11.4686   59.9921   18.0375 C.ar      1 UNK         0.0000 
     29 C29        11.1129   61.1797   17.4076 C.ar      1 UNK         0.0000 
     30 C30         9.8358   61.3429   16.8818 C.ar      1 UNK         0.0000 
     31 C31         8.9074   60.3109   16.9887 C.ar      1 UNK         0.0000 
     32 F32        12.0072   62.1889   17.3243 F         1 UNK         0.0000 
     33 H33         5.3923   54.8022   29.2080 H         1 UNK         0.0000 
     34 H34         5.8968   53.1340   28.8981 H         1 UNK         0.0000 
     35 H35         6.9023   54.4945   28.3689 H         1 UNK         0.0000 
     36 H36         3.1783   54.0897   28.0850 H         1 UNK         0.0000 
     37 H37         1.9755   53.9927   25.9605 H         1 UNK         0.0000 
     38 H38         5.7538   54.1096   23.8824 H         1 UNK         0.0000 
     39 H39         6.9163   54.1995   25.9766 H         1 UNK         0.0000 
     40 H40         3.0362   51.9181   22.7085 H         1 UNK         0.0000 
     41 H41         2.6102   53.1137   21.4981 H         1 UNK         0.0000 
     42 H42         6.9042   54.6544   22.3448 H         1 UNK         0.0000 
     43 H43         7.7681   54.9634   20.5164 H         1 UNK         0.0000 
     44 H44         4.0153   53.8157   18.7539 H         1 UNK         0.0000 
     45 H45         3.5810   55.2947   19.3354 H         1 UNK         0.0000 
     46 H46         9.2695   56.4575   18.9386 H         1 UNK         0.0000 
     47 H47        10.8400   58.0470   18.6359 H         1 UNK         0.0000 
     48 H48        12.4614   59.8713   18.4438 H         1 UNK         0.0000 
     49 H49         9.5623   62.2674   16.3953 H         1 UNK         0.0000 
     50 H50         7.9129   60.4658   16.5894 H         1 UNK         0.0000 
@<TRIPOS>BOND
     1    1    2 1    
     2    1   33 1    
     3    1   34 1    
     4    1   35 1    
     5    2    7 ar   
     6    2    3 ar   
     7    3    4 ar   
     8    3   36 1    
     9    4    5 ar   
    10    4   37 1    
    11    5    6 ar   
    12    5    8 1    
    13    6    7 ar   
    14    6   38 1    
    15    7   39 1    
    16    8    9 2    
    17    8   10 1    
    18   10   11 1    
    19   10   40 1    
    20   10   41 1    
    21   11   12 1    
    22   12   13 1    
    23   12   18 1    
    24   12   14 1    
    25   14   15 1    
    26   14   42 1    
    27   15   16 1    
    28   15   43 1    
    29   16   17 1    
    30   16   18 1    
    31   16   20 1    
    32   18   19 1    
    33   19   44 1    
    34   19   45 1    
    35   20   21 1    
    36   20   25 1    
    37   20   22 1    
    38   22   23 2    
    39   22   46 1    
    40   23   24 1    
    41   23   26 1    
    42   24   25 2    
    43   26   31 ar   
    44   26   27 ar   
    45   27   28 ar   
    46   27   47 1    
    47   28   29 ar   
    48   28   48 1    
    49   29   30 ar   
    50   29   32 1    
    51   30   31 ar   
    52   30   49 1    
    53   31   50 1    
@<TRIPOS>SUBSTRUCTURE
     1 UNK         1 GROUP             0       ****    0 ROOT    
