@<TRIPOS>MOLECULE
ZINC62918982_1666
38   39    1
SMALL
USER_CHARGES


@<TRIPOS>ATOM
      1 C1          1.9297   49.2917   21.6483 C.3       1 UNK         0.0000 
      2 C2          1.3762   49.7114   23.0164 C.3       1 UNK         0.0000 
      3 C3          0.2091   50.7269   22.9109 C.3       1 UNK         0.0000 
      4 C4         -0.2946   51.4313   24.2280 C.3       1 UNK         0.0000 
      5 C5         -0.4112   50.4410   25.4096 C.3       1 UNK         0.0000 
      6 C6         -0.2244   51.2525   26.6903 C.3       1 UNK         0.0000 
      7 N7          0.7042   52.3059   26.2574 N.am      1 UNK         0.0000 
      8 C8          0.7921   52.3815   24.7868 C.3       1 UNK         0.0000 
      9 C9          1.6657   52.8962   27.0212 C.2       1 UNK         0.0000 
     10 O10         2.5533   53.5970   26.5277 O.2       1 UNK         0.0000 
     11 C11         1.6846   52.6634   28.4536 C.2       1 UNK         0.0000 
     12 C12         2.8000   52.6229   29.3105 C.2       1 UNK         0.0000 
     13 N13         2.5273   52.4967   30.5966 N.2       1 UNK         0.0000 
     14 C14         1.2443   52.4966   30.8365 C.2       1 UNK         0.0000 
     15 S15         0.2358   52.6262   29.4400 S.3       1 UNK         0.0000 
     16 N16         0.7044   52.3924   32.0828 N.pl3     1 UNK         0.0000 
     17 C17         4.2785   52.6752   28.9731 C.3       1 UNK         0.0000 
     18 C18        -1.6295   52.1920   23.9124 C.2       1 UNK         0.0000 
     19 O19        -2.3755   52.4967   24.8702 O.co2     1 UNK         0.0000 
     20 O20        -1.8892   52.4967   22.7242 O.co2     1 UNK         0.0000 
     21 H21         2.7049   48.5339   21.7603 H         1 UNK         0.0000 
     22 H22         2.3696   50.1385   21.1217 H         1 UNK         0.0000 
     23 H23         1.1481   48.8730   21.0149 H         1 UNK         0.0000 
     24 H24         1.0396   48.8106   23.5299 H         1 UNK         0.0000 
     25 H25         2.1942   50.1121   23.6142 H         1 UNK         0.0000 
     26 H26         0.4943   51.4998   22.1935 H         1 UNK         0.0000 
     27 H27        -0.6221   50.1927   22.4451 H         1 UNK         0.0000 
     28 H28        -1.3422   49.8714   25.4168 H         1 UNK         0.0000 
     29 H29         0.3856   49.6996   25.4023 H         1 UNK         0.0000 
     30 H30        -1.1992   51.6722   26.9395 H         1 UNK         0.0000 
     31 H31         0.1783   50.5824   27.4522 H         1 UNK         0.0000 
     32 H32         1.7752   52.0218   24.4829 H         1 UNK         0.0000 
     33 H33         0.6744   53.4050   24.4252 H         1 UNK         0.0000 
     34 H34         1.2928   52.3608   32.9070 H         1 UNK         0.0000 
     35 H35        -0.2671   52.1010   32.2641 H         1 UNK         0.0000 
     36 H36         4.7104   53.6476   29.2138 H         1 UNK         0.0000 
     37 H37         4.8522   51.9206   29.5120 H         1 UNK         0.0000 
     38 H38         4.4711   52.4998   27.9147 H         1 UNK         0.0000 
@<TRIPOS>BOND
     1    1    2 1    
     2    1   21 1    
     3    1   22 1    
     4    1   23 1    
     5    2    3 1    
     6    2   24 1    
     7    2   25 1    
     8    3    4 1    
     9    3   26 1    
    10    3   27 1    
    11    4    8 1    
    12    4    5 1    
    13    4   18 1    
    14    5    6 1    
    15    5   28 1    
    16    5   29 1    
    17    6    7 1    
    18    6   30 1    
    19    6   31 1    
    20    7    8 1    
    21    7    9 am   BACKBONE|DICT|INTERRES
    22    8   32 1    
    23    8   33 1    
    24    9   10 2    
    25    9   11 1    
    26   11   15 1    
    27   11   12 2    
    28   12   13 1    
    29   12   17 1    
    30   13   14 2    
    31   14   15 1    
    32   14   16 1    
    33   16   34 1    
    34   16   35 1    
    35   17   36 1    
    36   17   37 1    
    37   17   38 1    
    38   18   19 2    
    39   18   20 1    
@<TRIPOS>SUBSTRUCTURE
     1 UNK         1 GROUP             0       ****    0 ROOT    
