@<TRIPOS>MOLECULE
ZINC47746511_225
69   71    1
SMALL
USER_CHARGES


@<TRIPOS>ATOM
      1 C1          2.6433   59.5336   15.9798 C.3       1 UNK         0.0000 
      2 N2          3.5661   58.4977   15.2852 N.4       1 UNK         0.0000 
      3 C3          4.9891   59.1171   15.2515 C.3       1 UNK         0.0000 
      4 C4          3.4546   57.0122   15.7793 C.3       1 UNK         0.0000 
      5 C5          4.2695   56.1180   14.7889 C.3       1 UNK         0.0000 
      6 C6          4.0736   54.6092   15.0416 C.3       1 UNK         0.0000 
      7 C7          2.5881   54.2132   14.9438 C.3       1 UNK         0.0000 
      8 C8          1.6930   55.0833   15.8458 C.3       1 UNK         0.0000 
      9 C9          1.9503   56.5961   15.6487 C.3       1 UNK         0.0000 
     10 C10         3.9278   56.8984   17.2647 C.3       1 UNK         0.0000 
     11 N11         5.3841   56.8553   17.4544 N.am      1 UNK         0.0000 
     12 C12         6.0987   56.1156   18.3167 C.2       1 UNK         0.0000 
     13 O13         7.3235   56.0938   18.2424 O.2       1 UNK         0.0000 
     14 N14         5.4030   55.4783   19.2793 N.am      1 UNK         0.0000 
     15 C15         5.9716   54.9016   20.4945 C.3       1 UNK         0.0000 
     16 C16         6.7793   55.8798   21.3712 C.3       1 UNK         0.0000 
     17 C17         7.3076   55.2711   22.6772 C.3       1 UNK         0.0000 
     18 N18         6.2086   54.6085   23.4008 N.am      1 UNK         0.0000 
     19 C19         5.5520   53.5114   22.6621 C.3       1 UNK         0.0000 
     20 C20         4.9710   54.0884   21.3461 C.3       1 UNK         0.0000 
     21 C21         6.0392   54.8463   24.7347 C.2       1 UNK         0.0000 
     22 O22         6.7070   55.6966   25.3295 O.2       1 UNK         0.0000 
     23 C23         4.9414   54.0977   25.5378 C.3       1 UNK         0.0000 
     24 C24         5.1340   54.2621   27.0733 C.3       1 UNK         0.0000 
     25 C25         4.0339   53.5032   27.8429 C.3       1 UNK         0.0000 
     26 C26         2.6164   53.8941   27.3791 C.3       1 UNK         0.0000 
     27 C27         2.4558   53.7638   25.8506 C.3       1 UNK         0.0000 
     28 C28         3.5330   54.5584   25.0845 C.3       1 UNK         0.0000 
     29 H29         3.0214   59.6965   16.9910 H         1 UNK         0.0000 
     30 H30         2.7045   60.4588   15.4047 H         1 UNK         0.0000 
     31 H31         1.6110   59.1957   15.9856 H         1 UNK         0.0000 
     32 H32         5.3366   59.2529   16.2779 H         1 UNK         0.0000 
     33 H33         5.6586   58.4813   14.6739 H         1 UNK         0.0000 
     34 H34         4.9097   60.0939   14.7694 H         1 UNK         0.0000 
     35 H35         3.9549   56.3314   13.7651 H         1 UNK         0.0000 
     36 H36         5.3341   56.3481   14.8126 H         1 UNK         0.0000 
     37 H37         4.6554   54.0333   14.3203 H         1 UNK         0.0000 
     38 H38         4.4654   54.3394   16.0237 H         1 UNK         0.0000 
     39 H39         2.2584   54.3086   13.9092 H         1 UNK         0.0000 
     40 H40         2.4672   53.1605   15.2025 H         1 UNK         0.0000 
     41 H41         0.6451   54.8610   15.6392 H         1 UNK         0.0000 
     42 H42         1.8427   54.8014   16.8876 H         1 UNK         0.0000 
     43 H43         1.3241   57.1381   16.3570 H         1 UNK         0.0000 
     44 H44         1.5848   56.8635   14.6545 H         1 UNK         0.0000 
     45 H45         3.5076   55.9832   17.6790 H         1 UNK         0.0000 
     46 H46         3.5048   57.6910   17.8733 H         1 UNK         0.0000 
     47 H47         5.9242   57.4690   16.8645 H         1 UNK         0.0000 
     48 H48         4.3963   55.5035   19.2286 H         1 UNK         0.0000 
     49 H49         6.6967   54.1702   20.1331 H         1 UNK         0.0000 
     50 H50         6.1605   56.7378   21.6258 H         1 UNK         0.0000 
     51 H51         7.6384   56.2667   20.8205 H         1 UNK         0.0000 
     52 H52         7.7881   56.0666   23.2515 H         1 UNK         0.0000 
     53 H53         8.0412   54.4982   22.4588 H         1 UNK         0.0000 
     54 H54         6.3043   52.7533   22.4469 H         1 UNK         0.0000 
     55 H55         4.7472   53.0272   23.2093 H         1 UNK         0.0000 
     56 H56         4.5548   53.2701   20.7554 H         1 UNK         0.0000 
     57 H57         4.1311   54.7315   21.6175 H         1 UNK         0.0000 
     58 H58         5.1104   53.0529   25.3123 H         1 UNK         0.0000 
     59 H59         5.0276   55.2992   27.3758 H         1 UNK         0.0000 
     60 H60         6.0917   53.8528   27.4020 H         1 UNK         0.0000 
     61 H61         4.1407   53.6780   28.9134 H         1 UNK         0.0000 
     62 H62         4.1750   52.4334   27.7004 H         1 UNK         0.0000 
     63 H63         2.4073   54.9209   27.6811 H         1 UNK         0.0000 
     64 H64         1.8748   53.2739   27.8842 H         1 UNK         0.0000 
     65 H65         1.4651   54.0967   25.5468 H         1 UNK         0.0000 
     66 H66         2.5127   52.7112   25.5701 H         1 UNK         0.0000 
     67 H67         3.3377   54.3752   24.0277 H         1 UNK         0.0000 
     68 H68         3.3914   55.6124   25.3108 H         1 UNK         0.0000 
     69 H69         3.2612   58.4656   14.3219 H         1 UNK         0.0000 
@<TRIPOS>BOND
     1    1    2 1    
     2    1   29 1    
     3    1   30 1    
     4    1   31 1    
     5    2    3 1    
     6    2    4 1    
     7    2   69 1    
     8    3   32 1    
     9    3   33 1    
    10    3   34 1    
    11    4    9 1    
    12    4    5 1    
    13    4   10 1    
    14    5    6 1    
    15    5   35 1    
    16    5   36 1    
    17    6    7 1    
    18    6   37 1    
    19    6   38 1    
    20    7    8 1    
    21    7   39 1    
    22    7   40 1    
    23    8    9 1    
    24    8   41 1    
    25    8   42 1    
    26    9   43 1    
    27    9   44 1    
    28   10   11 1    
    29   10   45 1    
    30   10   46 1    
    31   11   12 am   BACKBONE|DICT|INTERRES
    32   11   47 1    
    33   12   13 2    
    34   12   14 am   BACKBONE|DICT|INTERRES
    35   14   15 1    
    36   14   48 1    
    37   15   20 1    
    38   15   16 1    
    39   15   49 1    
    40   16   17 1    
    41   16   50 1    
    42   16   51 1    
    43   17   18 1    
    44   17   52 1    
    45   17   53 1    
    46   18   19 1    
    47   18   21 am   BACKBONE|DICT|INTERRES
    48   19   20 1    
    49   19   54 1    
    50   19   55 1    
    51   20   56 1    
    52   20   57 1    
    53   21   22 2    
    54   21   23 1    
    55   23   28 1    
    56   23   24 1    
    57   23   58 1    
    58   24   25 1    
    59   24   59 1    
    60   24   60 1    
    61   25   26 1    
    62   25   61 1    
    63   25   62 1    
    64   26   27 1    
    65   26   63 1    
    66   26   64 1    
    67   27   28 1    
    68   27   65 1    
    69   27   66 1    
    70   28   67 1    
    71   28   68 1    
@<TRIPOS>SUBSTRUCTURE
     1 UNK         1 GROUP             0       ****    0 ROOT    
