@<TRIPOS>MOLECULE
ZINC27528334_3976
65   69    1
SMALL
USER_CHARGES


@<TRIPOS>ATOM
      1 C1         -5.2228   47.9148   24.9292 C.3       1 UNK         0.0000 
      2 C2         -4.2745   49.0100   24.4792 C.ar      1 UNK         0.0000 
      3 C3         -2.9193   48.7253   24.3224 C.ar      1 UNK         0.0000 
      4 C4         -2.0379   49.7283   23.9286 C.ar      1 UNK         0.0000 
      5 C5         -2.5013   51.0307   23.6882 C.ar      1 UNK         0.0000 
      6 C6         -3.8641   51.3060   23.8637 C.ar      1 UNK         0.0000 
      7 C7         -4.7480   50.3003   24.2471 C.ar      1 UNK         0.0000 
      8 C8         -1.5528   52.1532   23.3579 C.2       1 UNK         0.0000 
      9 O9         -1.8431   53.3052   23.6812 O.2       1 UNK         0.0000 
     10 C10        -0.2792   51.9059   22.6146 C.2       1 UNK         0.0000 
     11 C11        -0.2251   51.0802   21.5346 C.2       1 UNK         0.0000 
     12 N12         0.9783   50.8397   20.8508 N.pl3     1 UNK         0.0000 
     13 C13         2.1678   51.5203   21.1712 C.2       1 UNK         0.0000 
     14 C14         2.1980   52.4454   22.1841 C.2       1 UNK         0.0000 
     15 C15         0.9666   52.6972   23.1183 C.3       1 UNK         0.0000 
     16 H16         0.7169   53.7553   23.0217 H         1 UNK         0.0000 
     17 C17         1.2231   52.6738   24.6602 C.ar      1 UNK         0.0000 
     18 C18         0.7043   51.6595   25.4722 C.ar      1 UNK         0.0000 
     19 C19         0.8480   51.6765   26.8579 C.ar      1 UNK         0.0000 
     20 C20         1.5530   52.7129   27.4780 C.ar      1 UNK         0.0000 
     21 C21         2.1111   53.7031   26.6826 C.ar      1 UNK         0.0000 
     22 C22         1.9205   53.7004   25.3039 C.ar      1 UNK         0.0000 
     23 O23         1.7332   52.8408   28.8404 O.3       1 UNK         0.0000 
     24 C24         1.1099   51.8957   29.6970 C.3       1 UNK         0.0000 
     25 C25         3.3759   53.3485   22.3140 C.2       1 UNK         0.0000 
     26 O26         3.2875   54.4943   22.7402 O.2       1 UNK         0.0000 
     27 C27         4.6727   52.9277   21.6208 C.3       1 UNK         0.0000 
     28 C28         4.3571   52.4731   20.2013 C.3       1 UNK         0.0000 
     29 C29         3.3901   51.2850   20.2385 C.3       1 UNK         0.0000 
     30 C30         1.0166   49.8829   19.8042 C.ar      1 UNK         0.0000 
     31 C31         1.4021   48.5692   20.0714 C.ar      1 UNK         0.0000 
     32 C32         1.4375   47.6349   19.0396 C.ar      1 UNK         0.0000 
     33 C33         1.1193   48.0075   17.7256 C.ar      1 UNK         0.0000 
     34 C34         0.7366   49.3313   17.4693 C.ar      1 UNK         0.0000 
     35 C35         0.6752   50.2604   18.5024 C.ar      1 UNK         0.0000 
     36 N36         1.2020   47.0209   16.6210 N.pl3     1 UNK         0.0000 
     37 O37         1.5703   45.8802   16.8830 O.co2     1 UNK         0.0000 
     38 O38         0.8818   47.3737   15.4892 O.co2     1 UNK         0.0000 
     39 N39        -1.3350   50.4522   20.9922 N.pl3     1 UNK         0.0000 
     40 H40        -4.8192   47.4093   25.8112 H         1 UNK         0.0000 
     41 H41        -6.2042   48.3112   25.2001 H         1 UNK         0.0000 
     42 H42        -5.3417   47.1691   24.1423 H         1 UNK         0.0000 
     43 H43        -2.5433   47.7324   24.5204 H         1 UNK         0.0000 
     44 H44        -0.9944   49.4743   23.8180 H         1 UNK         0.0000 
     45 H45        -4.2509   52.3038   23.7094 H         1 UNK         0.0000 
     46 H46        -5.7948   50.5321   24.3769 H         1 UNK         0.0000 
     47 H47         0.1867   50.8228   25.0402 H         1 UNK         0.0000 
     48 H48         0.4094   50.8699   27.4267 H         1 UNK         0.0000 
     49 H49         2.6505   54.5150   27.1457 H         1 UNK         0.0000 
     50 H50         2.2851   54.5487   24.7576 H         1 UNK         0.0000 
     51 H51         1.3327   52.1389   30.7349 H         1 UNK         0.0000 
     52 H52         1.4965   50.8984   29.4969 H         1 UNK         0.0000 
     53 H53         0.0252   51.8922   29.5794 H         1 UNK         0.0000 
     54 H54         5.1222   52.1217   22.1981 H         1 UNK         0.0000 
     55 H55         5.3758   53.7614   21.6336 H         1 UNK         0.0000 
     56 H56         5.2710   52.1899   19.6770 H         1 UNK         0.0000 
     57 H57         3.9214   53.2972   19.6311 H         1 UNK         0.0000 
     58 H58         3.8757   50.3380   20.4681 H         1 UNK         0.0000 
     59 H59         3.0903   51.2097   19.1939 H         1 UNK         0.0000 
     60 H60         1.6782   48.2841   21.0760 H         1 UNK         0.0000 
     61 H61         1.7169   46.6183   19.2666 H         1 UNK         0.0000 
     62 H62         0.4970   49.6517   16.4647 H         1 UNK         0.0000 
     63 H63         0.3886   51.2814   18.2916 H         1 UNK         0.0000 
     64 H64        -2.2351   50.5020   21.4497 H         1 UNK         0.0000 
     65 H65        -1.2462   49.8529   20.1844 H         1 UNK         0.0000 
@<TRIPOS>BOND
     1    1    2 1    
     2    1   40 1    
     3    1   41 1    
     4    1   42 1    
     5    2    7 ar   
     6    2    3 ar   
     7    3    4 ar   
     8    3   43 1    
     9    4    5 ar   
    10    4   44 1    
    11    5    6 ar   
    12    5    8 1    
    13    6    7 ar   
    14    6   45 1    
    15    7   46 1    
    16    8    9 2    
    17    8   10 1    
    18   10   15 1    
    19   10   11 2    
    20   11   12 1    
    21   11   39 1    
    22   12   13 1    
    23   12   30 1    
    24   13   29 1    
    25   13   14 2    
    26   14   15 1    
    27   14   25 1    
    28   15   16 1    
    29   15   17 1    
    30   17   22 ar   
    31   17   18 ar   
    32   18   19 ar   
    33   18   47 1    
    34   19   20 ar   
    35   19   48 1    
    36   20   21 ar   
    37   20   23 1    
    38   21   22 ar   
    39   21   49 1    
    40   22   50 1    
    41   23   24 1    
    42   24   51 1    
    43   24   52 1    
    44   24   53 1    
    45   25   26 2    
    46   25   27 1    
    47   27   28 1    
    48   27   54 1    
    49   27   55 1    
    50   28   29 1    
    51   28   56 1    
    52   28   57 1    
    53   29   58 1    
    54   29   59 1    
    55   30   35 ar   
    56   30   31 ar   
    57   31   32 ar   
    58   31   60 1    
    59   32   33 ar   
    60   32   61 1    
    61   33   34 ar   
    62   33   36 1    
    63   34   35 ar   
    64   34   62 1    
    65   35   63 1    
    66   36   37 2    
    67   36   38 1    
    68   39   64 1    
    69   39   65 1    
@<TRIPOS>SUBSTRUCTURE
     1 UNK         1 GROUP             0       ****    0 ROOT    
