ZINC01617452_1618
                    3D
 Schrodinger Suite 2024-2.
 29 30  0  0  1  0            999 V2000
    1.6360   52.3251   21.9855 C   0  0  0  0  0  0
    0.2798   52.1350   22.2253 C   0  0  0  0  0  0
   -0.2703   52.4848   23.4623 C   0  0  0  0  0  0
    0.5690   52.9982   24.4594 C   0  0  0  0  0  0
    1.9574   53.1528   24.2652 C   0  0  0  0  0  0
    2.4602   52.8306   22.9870 C   0  0  0  0  0  0
    2.8501   53.5881   25.3130 N   0  0  0  0  0  0
    2.6115   53.3006   26.6524 C   0  0  0  0  0  0
    1.6180   52.7392   27.1205 O   0  0  0  0  0  0
    3.7124   53.6975   27.5269 C   0  0  0  0  0  0
    4.8678   54.2365   27.0453 C   0  0  0  0  0  0
    5.0194   54.4955   25.6083 C   0  0  0  0  0  0
    4.0164   54.2091   24.8403 N   0  0  0  0  0  0
    6.2641   55.0674   24.9471 C   0  0  0  0  0  0
    6.3966   54.8935   23.7117 O   0  0  0  0  0  0
    5.9043   54.5412   27.8984 N   0  0  0  0  0  0
    3.5741   53.4681   28.9355 C   0  0  0  0  0  0
    3.5045   53.3113   30.0821 N   0  0  0  0  0  0
   -1.7633   52.3003   23.7399 C   0  0  0  0  0  0
   -1.9570   51.7906   24.9579 F   0  0  0  0  0  0
   -2.3732   53.4851   23.6760 F   0  0  0  0  0  0
   -2.3434   51.4879   22.8518 F   0  0  0  0  0  0
    2.0573   52.0727   21.0234 H   0  0  0  0  0  0
   -0.3400   51.7307   21.4390 H   0  0  0  0  0  0
    0.1108   53.2802   25.3934 H   0  0  0  0  0  0
    3.5120   52.9337   22.7587 H   0  0  0  0  0  0
    6.7221   55.0243   27.5407 H   0  0  0  0  0  0
    5.8409   54.4058   28.8975 H   0  0  0  0  0  0
    7.0845   55.6705   25.6820 O   0  5  0  0  0  0
  1  6  2  0  0  0
  1  2  1  0  0  0
  1 23  1  0  0  0
  2  3  2  0  0  0
  2 24  1  0  0  0
  3  4  1  0  0  0
  3 19  1  0  0  0
  4  5  2  0  0  0
  4 25  1  0  0  0
  5  6  1  0  0  0
  5  7  1  0  0  0
  6 26  1  0  0  0
  7 13  1  0  0  0
  7  8  1  0  0  0
  8  9  2  0  0  0
  8 10  1  0  0  0
 10 11  2  0  0  0
 10 17  1  0  0  0
 11 12  1  0  0  0
 11 16  1  0  0  0
 12 13  2  0  0  0
 12 14  1  0  0  0
 14 15  2  0  0  0
 14 29  1  0  0  0
 16 27  1  0  0  0
 16 28  1  0  0  0
 17 18  3  0  0  0
 19 20  1  0  0  0
 19 21  1  0  0  0
 19 22  1  0  0  0
M  CHG  1  29  -1
M  END
> <i_i_glide_confnum>
2

> <i_i_glide_lignum>
1619

> <i_i_glide_posenum>
200

> <i_i_glide_rotatable_bonds>
4

> <i_m_Source_File_Index>
2536

> <b_m_subgroup_collapsed>
0

> <r_i_docking_score>
-6.81566

> <r_i_glide_ecoul>
-7.27473

> <r_i_glide_eff_state_penalty>
0

> <r_i_glide_einternal>
4.30591

> <r_i_glide_emodel>
-54.5137

> <r_i_glide_energy>
-38.8118

> <r_i_glide_erotb>
0.179115

> <r_i_glide_esite>
-0.00634422

> <r_i_glide_evdw>
-31.5371

> <r_i_glide_gscore>
-6.81566

> <r_i_glide_hbond>
-0.404736

> <r_i_glide_ligand_efficiency>
-0.296333

> <r_i_glide_ligand_efficiency_ln>
-1.64809

> <r_i_glide_ligand_efficiency_sa>
-0.842732

> <r_i_glide_lipo>
-1.60797

> <r_i_glide_metal>
0

> <r_i_glide_rewards>
-2.30767

> <s_i_glide_gridfile>
wee1_glide-grid

> <s_m_Source_File>
wee1_decoys_glide_SP.sdf

> <s_m_Source_Path>
/Users/zhangxujun/Desktop

> <s_m_entry_id>
2811

> <s_m_entry_name>
wee1_decoys_glide_SP.2536

> <s_m_subgroup_title>
wee1_decoys_glide_SP

> <s_m_subgroupid>
wee1_decoys_glide_SP


$$$$
