ZINC32273124_535
                    3D
 Schrodinger Suite 2024-2.
 50 52  0  0  1  0            999 V2000
    6.9795   53.1836   17.3968 C   0  0  0  0  0  0
    5.8223   53.9408   16.9101 N   0  0  0  0  0  0
    5.8704   54.2140   15.4721 C   0  0  0  0  0  0
    4.7490   54.2891   17.6705 C   0  0  0  0  0  0
    3.6732   54.6456   17.1801 O   0  0  0  0  0  0
    4.8872   54.2777   19.1751 C   0  0  0  0  0  0
    5.9664   54.9112   19.8051 C   0  0  0  0  0  0
    6.0751   54.8967   21.1929 C   0  0  0  0  0  0
    5.1035   54.2530   21.9603 C   0  0  0  0  0  0
    4.0145   53.6331   21.3385 C   0  0  0  0  0  0
    3.9047   53.6549   19.9520 C   0  0  0  0  0  0
    5.2998   54.2181   23.3467 N   0  0  0  0  0  0
    4.3640   54.3288   24.3183 C   0  0  0  0  0  0
    3.1726   54.4966   24.0574 O   0  0  0  0  0  0
    4.8920   54.2752   25.7524 C   0  0  0  0  0  0
    6.2797   54.4370   25.9553 C   0  0  0  0  0  0
    6.8436   54.3441   27.2152 C   0  0  0  0  0  0
    6.0424   54.0967   28.3091 C   0  0  0  0  0  0
    4.6715   53.9675   28.1487 C   0  0  0  0  0  0
    4.0552   54.0383   26.8876 C   0  0  0  0  0  0
    2.6839   53.9497   26.7970 N   0  5  0  0  0  0
    1.7540   53.1003   27.7391 S   0  0  0  0  0  0
    2.4400   52.1107   28.5815 O   0  0  0  0  0  0
    0.7039   53.9056   28.3718 O   0  0  0  0  0  0
    0.8601   52.0967   26.5294 C   0  0  0  0  0  0
    0.6997   52.4964   25.1946 C   0  0  0  0  0  0
    0.0157   51.6837   24.2957 C   0  0  0  0  0  0
   -0.5250   50.4770   24.7313 C   0  0  0  0  0  0
   -0.4061   50.0907   26.0632 C   0  0  0  0  0  0
    0.2761   50.9041   26.9625 C   0  0  0  0  0  0
   -1.3567   49.4594   23.6130 Cl  0  0  0  0  0  0
    6.8783   52.8608   18.4325 H   0  0  0  0  0  0
    7.8897   53.7807   17.3088 H   0  0  0  0  0  0
    7.1135   52.2777   16.8002 H   0  0  0  0  0  0
    5.0274   54.8118   15.1240 H   0  0  0  0  0  0
    6.7831   54.7565   15.2228 H   0  0  0  0  0  0
    5.8716   53.2777   14.9114 H   0  0  0  0  0  0
    6.7261   55.4126   19.2221 H   0  0  0  0  0  0
    6.9200   55.3771   21.6630 H   0  0  0  0  0  0
    3.2563   53.1261   21.9159 H   0  0  0  0  0  0
    3.0546   53.1781   19.4845 H   0  0  0  0  0  0
    6.2595   54.1974   23.6483 H   0  0  0  0  0  0
    6.9623   54.6380   25.1427 H   0  0  0  0  0  0
    7.9046   54.4712   27.3537 H   0  0  0  0  0  0
    6.4938   54.0520   29.2816 H   0  0  0  0  0  0
    4.0835   53.8346   29.0427 H   0  0  0  0  0  0
    1.0998   53.4347   24.8459 H   0  0  0  0  0  0
   -0.0910   51.9899   23.2656 H   0  0  0  0  0  0
   -0.8382   49.1610   26.4061 H   0  0  0  0  0  0
    0.3585   50.5954   27.9953 H   0  0  0  0  0  0
  1  2  1  0  0  0
  1 32  1  0  0  0
  1 33  1  0  0  0
  1 34  1  0  0  0
  2  3  1  0  0  0
  2  4  1  0  0  0
  3 35  1  0  0  0
  3 36  1  0  0  0
  3 37  1  0  0  0
  4  5  2  0  0  0
  4  6  1  0  0  0
  6 11  2  0  0  0
  6  7  1  0  0  0
  7  8  2  0  0  0
  7 38  1  0  0  0
  8  9  1  0  0  0
  8 39  1  0  0  0
  9 10  2  0  0  0
  9 12  1  0  0  0
 10 11  1  0  0  0
 10 40  1  0  0  0
 11 41  1  0  0  0
 12 13  1  0  0  0
 12 42  1  0  0  0
 13 14  2  0  0  0
 13 15  1  0  0  0
 15 20  2  0  0  0
 15 16  1  0  0  0
 16 17  2  0  0  0
 16 43  1  0  0  0
 17 18  1  0  0  0
 17 44  1  0  0  0
 18 19  2  0  0  0
 18 45  1  0  0  0
 19 20  1  0  0  0
 19 46  1  0  0  0
 20 21  1  0  0  0
 21 22  1  0  0  0
 22 23  2  0  0  0
 22 24  2  0  0  0
 22 25  1  0  0  0
 25 30  2  0  0  0
 25 26  1  0  0  0
 26 27  2  0  0  0
 26 47  1  0  0  0
 27 28  1  0  0  0
 27 48  1  0  0  0
 28 29  2  0  0  0
 28 31  1  0  0  0
 29 30  1  0  0  0
 29 49  1  0  0  0
 30 50  1  0  0  0
M  CHG  1  21  -1
M  END
> <i_i_glide_confnum>
28

> <i_i_glide_lignum>
536

> <i_i_glide_posenum>
145

> <i_i_glide_rotatable_bonds>
8

> <i_m_Source_File_Index>
2302

> <b_m_subgroup_collapsed>
0

> <r_i_docking_score>
-3.74131

> <r_i_glide_ecoul>
-1.89603

> <r_i_glide_eff_state_penalty>
0

> <r_i_glide_einternal>
7.41316

> <r_i_glide_emodel>
-48.8932

> <r_i_glide_energy>
-44.9718

> <r_i_glide_erotb>
0.673948

> <r_i_glide_esite>
-0.0258015

> <r_i_glide_evdw>
-43.0757

> <r_i_glide_gscore>
-3.74131

> <r_i_glide_hbond>
0

> <r_i_glide_ligand_efficiency>
-0.120687

> <r_i_glide_ligand_efficiency_ln>
-0.843779

> <r_i_glide_ligand_efficiency_sa>
-0.379125

> <r_i_glide_lipo>
-2.33167

> <r_i_glide_metal>
0

> <r_i_glide_rewards>
0.380404

> <s_i_glide_gridfile>
wee1_glide-grid

> <s_m_Source_File>
wee1_decoys_glide_SP.sdf

> <s_m_Source_Path>
/Users/zhangxujun/Desktop

> <s_m_entry_id>
2577

> <s_m_entry_name>
wee1_decoys_glide_SP.2302

> <s_m_subgroup_title>
wee1_decoys_glide_SP

> <s_m_subgroupid>
wee1_decoys_glide_SP


$$$$
