@<TRIPOS>MOLECULE
ZINC00718464_458
43   46    1
SMALL
USER_CHARGES


@<TRIPOS>ATOM
      1 C1         -3.4958   50.2695   28.7280 C.3       1 UNK         0.0000 
      2 O2         -3.9867   51.2540   27.8288 O.3       1 UNK         0.0000 
      3 C3         -3.2699   51.5495   26.6819 C.ar      1 UNK         0.0000 
      4 C4         -2.0448   50.9471   26.3339 C.ar      1 UNK         0.0000 
      5 C5         -1.3373   51.3587   25.1954 C.ar      1 UNK         0.0000 
      6 C6         -1.8877   52.3433   24.3732 C.ar      1 UNK         0.0000 
      7 C7         -3.1076   52.9278   24.6900 C.ar      1 UNK         0.0000 
      8 C8         -3.8008   52.5346   25.8372 C.ar      1 UNK         0.0000 
      9 O9         -4.9975   53.1391   26.1405 O.3       1 UNK         0.0000 
     10 Cl10       -3.6957   54.2077   23.6914 Cl        1 UNK         0.0000 
     11 C11         0.0471   50.7953   24.8612 C.3       1 UNK         0.0000 
     12 H12         0.3005   50.0663   25.6312 H         1 UNK         0.0000 
     13 C13         1.1032   51.9174   24.8011 C.ar      1 UNK         0.0000 
     14 C14         1.6624   52.8720   25.6995 C.ar      1 UNK         0.0000 
     15 N15         2.4886   53.6970   25.0651 N.2       1 UNK         0.0000 
     16 N16         2.5122   53.2992   23.7909 N.pl3     1 UNK         0.0000 
     17 H17         3.0709   53.7482   23.0800 H         1 UNK         0.0000 
     18 C18         1.7082   52.2225   23.6000 C.ar      1 UNK         0.0000 
     19 O19         1.5737   51.5935   22.3907 O.3       1 UNK         0.0000 
     20 C20         0.7855   50.4814   22.4414 C.2       1 UNK         0.0000 
     21 C21         0.0817   50.0377   23.5166 C.2       1 UNK         0.0000 
     22 C22        -0.6779   48.8316   23.4204 C.1       1 UNK         0.0000 
     23 N23        -1.2955   47.8587   23.3103 N.1       1 UNK         0.0000 
     24 N24         0.8560   49.8819   21.2142 N.pl3     1 UNK         0.0000 
     25 C25         1.3976   53.0431   27.1732 C.ar      1 UNK         0.0000 
     26 C26         0.7515   52.0407   27.9077 C.ar      1 UNK         0.0000 
     27 C27         0.4293   52.2327   29.2458 C.ar      1 UNK         0.0000 
     28 C28         0.7788   53.4235   29.8698 C.ar      1 UNK         0.0000 
     29 C29         1.4685   54.4136   29.1786 C.ar      1 UNK         0.0000 
     30 C30         1.7829   54.2178   27.8378 C.ar      1 UNK         0.0000 
     31 Br31        0.3044   53.6968   31.6836 Br        1 UNK         0.0000 
     32 H32        -4.1610   50.1916   29.5870 H         1 UNK         0.0000 
     33 H33        -3.4709   49.2966   28.2429 H         1 UNK         0.0000 
     34 H34        -2.5008   50.5145   29.1025 H         1 UNK         0.0000 
     35 H35        -1.6213   50.1736   26.9584 H         1 UNK         0.0000 
     36 H36        -1.3480   52.6778   23.4988 H         1 UNK         0.0000 
     37 H37        -5.3034   53.6981   25.4235 H         1 UNK         0.0000 
     38 H38         0.2942   49.0710   21.0015 H         1 UNK         0.0000 
     39 H39         1.6158   50.1014   20.5859 H         1 UNK         0.0000 
     40 H40         0.4793   51.1014   27.4620 H         1 UNK         0.0000 
     41 H41        -0.0987   51.4639   29.7923 H         1 UNK         0.0000 
     42 H42         1.7449   55.3333   29.6736 H         1 UNK         0.0000 
     43 H43         2.3090   55.0006   27.3139 H         1 UNK         0.0000 
@<TRIPOS>BOND
     1    1    2 1    
     2    1   32 1    
     3    1   33 1    
     4    1   34 1    
     5    2    3 1    
     6    3    8 ar   
     7    3    4 ar   
     8    4    5 ar   
     9    4   35 1    
    10    5    6 ar   
    11    5   11 1    
    12    6    7 ar   
    13    6   36 1    
    14    7    8 ar   
    15    7   10 1    
    16    8    9 1    
    17    9   37 1    
    18   11   12 1    
    19   11   21 1    
    20   11   13 1    
    21   13   18 ar   
    22   13   14 ar   
    23   14   15 ar   
    24   14   25 1    
    25   15   16 ar   
    26   16   17 1    
    27   16   18 ar   
    28   18   19 1    
    29   19   20 1    
    30   20   21 2    
    31   20   24 1    
    32   21   22 1    
    33   22   23 3    
    34   24   38 1    
    35   24   39 1    
    36   25   30 ar   
    37   25   26 ar   
    38   26   27 ar   
    39   26   40 1    
    40   27   28 ar   
    41   27   41 1    
    42   28   29 ar   
    43   28   31 1    
    44   29   30 ar   
    45   29   42 1    
    46   30   43 1    
@<TRIPOS>SUBSTRUCTURE
     1 UNK         1 GROUP             0       ****    0 ROOT    
