@<TRIPOS>MOLECULE
ZINC44491443_4049
65   69    1
SMALL
USER_CHARGES


@<TRIPOS>ATOM
      1 C1          3.1046   54.1124   25.9749 C.3       1 UNK         0.0000 
      2 C2          2.0732   52.9665   25.7843 C.3       1 UNK         0.0000 
      3 H3          2.5960   52.0967   25.3971 H         1 UNK         0.0000 
      4 C4          1.0729   53.3133   24.6931 C.3       1 UNK         0.0000 
      5 C5         -0.1138   52.3407   24.8178 C.3       1 UNK         0.0000 
      6 H6         -1.0082   52.9473   24.6777 H         1 UNK         0.0000 
      7 C7         -0.1385   51.2550   23.6825 C.3       1 UNK         0.0000 
      8 H8          0.8625   50.8195   23.7291 H         1 UNK         0.0000 
      9 C9         -0.2419   51.8190   22.2335 C.3       1 UNK         0.0000 
     10 C10        -1.6712   52.0799   21.7454 C.3       1 UNK         0.0000 
     11 C11        -2.4712   50.7894   21.8677 C.2       1 UNK         0.0000 
     12 C12        -3.0024   50.1627   20.7905 C.2       1 UNK         0.0000 
     13 C13        -3.7611   48.9135   20.8334 C.2       1 UNK         0.0000 
     14 O14        -4.2278   48.3741   19.8328 O.2       1 UNK         0.0000 
     15 C15        -3.9098   48.3652   22.1770 C.2       1 UNK         0.0000 
     16 C16        -3.4027   48.9436   23.2847 C.2       1 UNK         0.0000 
     17 C17        -2.5994   50.2580   23.3211 C.3       1 UNK         0.0000 
     18 C18        -1.1323   50.0398   23.9190 C.3       1 UNK         0.0000 
     19 C19        -1.1497   49.5935   25.4350 C.3       1 UNK         0.0000 
     20 H20        -2.0839   49.9132   25.8782 H         1 UNK         0.0000 
     21 C21        -0.0001   50.2258   26.2553 C.3       1 UNK         0.0000 
     22 C22        -0.0866   51.7883   26.3050 C.3       1 UNK         0.0000 
     23 C23         1.1944   52.5020   26.9975 C.3       1 UNK         0.0000 
     24 C24         2.0471   51.7273   28.0817 C.2       1 UNK         0.0000 
     25 O25         1.5176   50.8967   28.7918 O.2       1 UNK         0.0000 
     26 C26         3.5045   52.0967   28.4184 C.3       1 UNK         0.0000 
     27 Cl27        3.6935   53.6146   29.3330 Cl        1 UNK         0.0000 
     28 O28         0.8093   53.6967   27.7058 O.3       1 UNK         0.0000 
     29 C29         0.3043   53.7850   28.9968 C.2       1 UNK         0.0000 
     30 O30        -0.3559   52.9474   29.6106 O.2       1 UNK         0.0000 
     31 C31         0.7729   54.9854   29.5900 C.2       1 UNK         0.0000 
     32 C32         0.7092   55.4385   30.8817 C.2       1 UNK         0.0000 
     33 C33         1.3904   56.6529   30.8817 C.2       1 UNK         0.0000 
     34 C34         1.7697   56.8966   29.5850 C.2       1 UNK         0.0000 
     35 O35         1.4131   55.8775   28.7947 O.3       1 UNK         0.0000 
     36 C36        -1.4444   52.1661   26.9769 C.3       1 UNK         0.0000 
     37 O37        -1.2241   48.2038   25.6817 O.3       1 UNK         0.0000 
     38 Cl38       -0.3768   48.7049   22.9663 Cl        1 UNK         0.0000 
     39 C39        -3.5040   51.2600   24.0905 C.3       1 UNK         0.0000 
     40 H40         2.7395   54.8967   26.6358 H         1 UNK         0.0000 
     41 H41         4.0564   53.7730   26.3734 H         1 UNK         0.0000 
     42 H42         3.3470   54.5836   25.0214 H         1 UNK         0.0000 
     43 H43         0.7044   54.3185   24.8816 H         1 UNK         0.0000 
     44 H44         1.5401   53.3915   23.7128 H         1 UNK         0.0000 
     45 H45         0.3824   52.6961   22.0764 H         1 UNK         0.0000 
     46 H46         0.1971   51.0823   21.5574 H         1 UNK         0.0000 
     47 H47        -1.6364   52.4134   20.7075 H         1 UNK         0.0000 
     48 H48        -2.1285   52.8967   22.3014 H         1 UNK         0.0000 
     49 H49        -2.8445   50.6102   19.8208 H         1 UNK         0.0000 
     50 H50        -4.4546   47.4411   22.2970 H         1 UNK         0.0000 
     51 H51        -3.5786   48.4359   24.2228 H         1 UNK         0.0000 
     52 H52         0.9561   49.9028   25.8436 H         1 UNK         0.0000 
     53 H53        -0.0374   49.8115   27.2615 H         1 UNK         0.0000 
     54 H54         3.9030   51.3204   29.0709 H         1 UNK         0.0000 
     55 H55         4.1463   52.1168   27.5460 H         1 UNK         0.0000 
     56 H56         0.2679   54.9254   31.7252 H         1 UNK         0.0000 
     57 H57         1.5658   57.2965   31.7310 H         1 UNK         0.0000 
     58 H58         2.2630   57.6957   29.0740 H         1 UNK         0.0000 
     59 H59        -2.3130   51.9120   26.3841 H         1 UNK         0.0000 
     60 H60        -1.5806   51.6643   27.9347 H         1 UNK         0.0000 
     61 H61        -1.5492   53.2399   27.1090 H         1 UNK         0.0000 
     62 H62        -1.2956   48.0967   26.6496 H         1 UNK         0.0000 
     63 H63        -4.4237   51.4604   23.5378 H         1 UNK         0.0000 
     64 H64        -3.8267   50.8812   25.0596 H         1 UNK         0.0000 
     65 H65        -3.0308   52.2243   24.2532 H         1 UNK         0.0000 
@<TRIPOS>BOND
     1    1    2 1    
     2    1   40 1    
     3    1   41 1    
     4    1   42 1    
     5    2    3 1    
     6    2   23 1    
     7    2    4 1    
     8    4    5 1    
     9    4   43 1    
    10    4   44 1    
    11    5    6 1    
    12    5   22 1    
    13    5    7 1    
    14    7    8 1    
    15    7   18 1    
    16    7    9 1    
    17    9   10 1    
    18    9   45 1    
    19    9   46 1    
    20   10   11 1    
    21   10   47 1    
    22   10   48 1    
    23   11   17 1    
    24   11   12 2    
    25   12   13 1    
    26   12   49 1    
    27   13   14 2    
    28   13   15 1    
    29   15   16 2    
    30   15   50 1    
    31   16   17 1    
    32   16   51 1    
    33   17   18 1    
    34   17   39 1    
    35   18   19 1    
    36   18   38 1    
    37   19   20 1    
    38   19   21 1    
    39   19   37 1    
    40   21   22 1    
    41   21   52 1    
    42   21   53 1    
    43   22   23 1    
    44   22   36 1    
    45   23   24 1    
    46   23   28 1    
    47   24   25 2    
    48   24   26 1    
    49   26   27 1    
    50   26   54 1    
    51   26   55 1    
    52   28   29 1    
    53   29   30 2    
    54   29   31 1    
    55   31   35 1    
    56   31   32 2    
    57   32   33 1    
    58   32   56 1    
    59   33   34 2    
    60   33   57 1    
    61   34   35 1    
    62   34   58 1    
    63   36   59 1    
    64   36   60 1    
    65   36   61 1    
    66   37   62 1    
    67   39   63 1    
    68   39   64 1    
    69   39   65 1    
@<TRIPOS>SUBSTRUCTURE
     1 UNK         1 GROUP             0       ****    0 ROOT    
