@<TRIPOS>MOLECULE
ZINC34923501_5952
57   60    1
SMALL
USER_CHARGES


@<TRIPOS>ATOM
      1 C1          2.6952   53.1641   24.0108 C.3       1 UNK         0.0000 
      2 C2          1.5044   52.2344   24.2307 C.2       1 UNK         0.0000 
      3 C3          0.8085   52.0442   25.3977 C.2       1 UNK         0.0000 
      4 C4         -0.3664   51.0137   25.4253 C.3       1 UNK         0.0000 
      5 H5         -0.2659   50.3843   26.3119 H         1 UNK         0.0000 
      6 N6         -0.2485   50.0876   24.2627 N.pl3     1 UNK         0.0000 
      7 C7         -0.9851   48.9216   24.0881 C.2       1 UNK         0.0000 
      8 C8         -0.9485   48.5029   22.8083 C.2       1 UNK         0.0000 
      9 S9          0.0428   49.5112   21.7564 S.3       1 UNK         0.0000 
     10 C10         0.4627   50.5255   23.1478 C.2       1 UNK         0.0000 
     11 N11         1.2320   51.5443   23.0821 N.2       1 UNK         0.0000 
     12 C12        -1.6937   48.2307   25.1636 C.2       1 UNK         0.0000 
     13 C13        -2.2269   46.9931   25.1805 C.2       1 UNK         0.0000 
     14 O14        -2.3043   46.0975   24.2598 O.co2     1 UNK         0.0000 
     15 N15        -2.7919   46.5263   26.3482 N.pl3     1 UNK         0.0000 
     16 C16        -3.9425   45.6439   26.5586 C.3       1 UNK         0.0000 
     17 C17        -4.8874   46.1056   27.6713 C.ar      1 UNK         0.0000 
     18 C18        -4.4616   46.9469   28.7109 C.ar      1 UNK         0.0000 
     19 C19        -5.3444   47.3412   29.7158 C.ar      1 UNK         0.0000 
     20 C20        -6.6654   46.8943   29.7004 C.ar      1 UNK         0.0000 
     21 C21        -7.0920   46.0393   28.6840 C.ar      1 UNK         0.0000 
     22 C22        -6.2094   45.6417   27.6774 C.ar      1 UNK         0.0000 
     23 F23        -6.6446   44.8027   26.7074 F         1 UNK         0.0000 
     24 C24        -1.7489   51.6850   25.4714 C.ar      1 UNK         0.0000 
     25 C25        -2.1546   52.5271   24.4308 C.ar      1 UNK         0.0000 
     26 C26        -3.3935   53.1589   24.4817 C.ar      1 UNK         0.0000 
     27 C27        -4.2501   52.9519   25.5618 C.ar      1 UNK         0.0000 
     28 C28        -3.8511   52.0935   26.5983 C.ar      1 UNK         0.0000 
     29 C29        -2.6049   51.4672   26.5548 C.ar      1 UNK         0.0000 
     30 O30        -5.4521   53.6323   25.5229 O.3       1 UNK         0.0000 
     31 C31        -6.4306   53.3769   26.5238 C.3       1 UNK         0.0000 
     32 C32         1.1040   52.7795   26.6544 C.2       1 UNK         0.0000 
     33 O33         1.9239   53.6985   26.7386 O.2       1 UNK         0.0000 
     34 O34         0.3687   52.3547   27.7117 O.3       1 UNK         0.0000 
     35 C35         0.4911   52.9691   28.9849 C.3       1 UNK         0.0000 
     36 H36         3.4146   53.0820   24.8271 H         1 UNK         0.0000 
     37 H37         3.2436   52.9449   23.0888 H         1 UNK         0.0000 
     38 H38         2.3510   54.1975   23.9518 H         1 UNK         0.0000 
     39 H39        -1.4364   47.6280   22.4080 H         1 UNK         0.0000 
     40 H40        -1.7884   48.7840   26.0822 H         1 UNK         0.0000 
     41 H41        -2.3848   46.8768   27.2074 H         1 UNK         0.0000 
     42 H42        -3.5594   44.6744   26.8790 H         1 UNK         0.0000 
     43 H43        -4.4901   45.4837   25.6292 H         1 UNK         0.0000 
     44 H44        -3.4396   47.2968   28.7575 H         1 UNK         0.0000 
     45 H45        -4.9978   47.9955   30.5025 H         1 UNK         0.0000 
     46 H46        -7.3533   47.2055   30.4747 H         1 UNK         0.0000 
     47 H47        -8.1113   45.6821   28.6711 H         1 UNK         0.0000 
     48 H48        -1.5015   52.7031   23.5883 H         1 UNK         0.0000 
     49 H49        -3.6928   53.8181   23.6803 H         1 UNK         0.0000 
     50 H50        -4.4904   51.9065   27.4466 H         1 UNK         0.0000 
     51 H51        -2.3099   50.8071   27.3617 H         1 UNK         0.0000 
     52 H52        -7.3313   53.9454   26.2913 H         1 UNK         0.0000 
     53 H53        -6.7049   52.3221   26.5586 H         1 UNK         0.0000 
     54 H54        -6.0954   53.6927   27.5111 H         1 UNK         0.0000 
     55 H55        -0.1875   52.4912   29.6922 H         1 UNK         0.0000 
     56 H56         1.5067   52.8718   29.3725 H         1 UNK         0.0000 
     57 H57         0.2403   54.0289   28.9351 H         1 UNK         0.0000 
@<TRIPOS>BOND
     1    1    2 1    
     2    1   36 1    
     3    1   37 1    
     4    1   38 1    
     5    2   11 1    
     6    2    3 2    
     7    3    4 1    
     8    3   32 1    
     9    4    5 1    
    10    4    6 1    
    11    4   24 1    
    12    6   10 1    
    13    6    7 1    
    14    7    8 2    
    15    7   12 1    
    16    8    9 1    
    17    8   39 1    
    18    9   10 1    
    19   10   11 2    
    20   12   13 2    
    21   12   40 1    
    22   13   14 1    
    23   13   15 1    
    24   15   16 1    
    25   15   41 1    
    26   16   17 1    
    27   16   42 1    
    28   16   43 1    
    29   17   22 ar   
    30   17   18 ar   
    31   18   19 ar   
    32   18   44 1    
    33   19   20 ar   
    34   19   45 1    
    35   20   21 ar   
    36   20   46 1    
    37   21   22 ar   
    38   21   47 1    
    39   22   23 1    
    40   24   29 ar   
    41   24   25 ar   
    42   25   26 ar   
    43   25   48 1    
    44   26   27 ar   
    45   26   49 1    
    46   27   28 ar   
    47   27   30 1    
    48   28   29 ar   
    49   28   50 1    
    50   29   51 1    
    51   30   31 1    
    52   31   52 1    
    53   31   53 1    
    54   31   54 1    
    55   32   33 2    
    56   32   34 1    
    57   34   35 1    
    58   35   55 1    
    59   35   56 1    
    60   35   57 1    
@<TRIPOS>SUBSTRUCTURE
     1 UNK         1 GROUP             0       ****    0 ROOT    
