@<TRIPOS>MOLECULE
ZINC60775132_1392
42   45    1
SMALL
USER_CHARGES


@<TRIPOS>ATOM
      1 C1          0.0239   52.4971   30.7434 C.ar      1 UNK         0.0000 
      2 C2         -0.8956   51.6968   30.0806 C.ar      1 UNK         0.0000 
      3 C3         -0.7545   51.4518   28.7204 C.ar      1 UNK         0.0000 
      4 C4          0.3409   51.9593   28.0135 C.ar      1 UNK         0.0000 
      5 C5          1.3012   52.7513   28.6886 C.ar      1 UNK         0.0000 
      6 C6          1.1118   53.0176   30.0565 C.ar      1 UNK         0.0000 
      7 N7          2.4404   53.1903   27.9853 N.am      1 UNK         0.0000 
      8 C8          3.4329   54.0228   28.3650 C.2       1 UNK         0.0000 
      9 O9          3.5034   54.6042   29.4510 O.2       1 UNK         0.0000 
     10 C10         4.5440   54.1778   27.3607 C.ar      1 UNK         0.0000 
     11 C11         5.8515   54.3888   27.8142 C.ar      1 UNK         0.0000 
     12 C12         6.9022   54.4967   26.9118 C.ar      1 UNK         0.0000 
     13 C13         6.6647   54.4326   25.5406 C.ar      1 UNK         0.0000 
     14 C14         5.3594   54.2388   25.0620 C.ar      1 UNK         0.0000 
     15 C15         4.3101   54.1074   25.9756 C.ar      1 UNK         0.0000 
     16 N16         5.0391   54.0964   23.6984 N.am      1 UNK         0.0000 
     17 C17         5.7513   54.4963   22.6243 C.2       1 UNK         0.0000 
     18 O18         6.7701   55.1830   22.6716 O.2       1 UNK         0.0000 
     19 C19         5.2068   54.0989   21.3516 C.2       1 UNK         0.0000 
     20 C20         5.4972   54.6756   20.1134 C.2       1 UNK         0.0000 
     21 C21         4.8969   54.0092   19.0403 C.2       1 UNK         0.0000 
     22 C22         4.1744   52.8971   19.4432 C.2       1 UNK         0.0000 
     23 S23         4.2296   52.6622   21.1593 S.3       1 UNK         0.0000 
     24 N24         0.4335   51.6095   26.6452 N.pl3     1 UNK         0.0000 
     25 C25         0.1936   50.3877   26.0547 C.ar      1 UNK         0.0000 
     26 N26         0.3551   50.4571   24.7576 N.2       1 UNK         0.0000 
     27 N27         0.7109   51.7797   24.5066 N.2       1 UNK         0.0000 
     28 N28         0.7509   52.4961   25.6876 N.2       1 UNK         0.0000 
     29 H29        -0.0954   52.6837   31.8003 H         1 UNK         0.0000 
     30 H30        -1.7035   51.2426   30.6358 H         1 UNK         0.0000 
     31 H31        -1.4871   50.8223   28.2334 H         1 UNK         0.0000 
     32 H32         1.8010   53.6004   30.6378 H         1 UNK         0.0000 
     33 H33         2.5285   52.8005   27.0598 H         1 UNK         0.0000 
     34 H34         6.0695   54.4524   28.8724 H         1 UNK         0.0000 
     35 H35         7.9038   54.6205   27.2926 H         1 UNK         0.0000 
     36 H36         7.5039   54.4986   24.8673 H         1 UNK         0.0000 
     37 H37         3.3096   53.9492   25.5965 H         1 UNK         0.0000 
     38 H38         4.1684   53.6258   23.5032 H         1 UNK         0.0000 
     39 H39         6.1233   55.5468   19.9928 H         1 UNK         0.0000 
     40 H40         5.0050   54.3111   18.0083 H         1 UNK         0.0000 
     41 H41         3.6549   52.1872   18.8135 H         1 UNK         0.0000 
     42 H42        -0.0968   49.5253   26.6429 H         1 UNK         0.0000 
@<TRIPOS>BOND
     1    1    6 ar   
     2    1    2 ar   
     3    1   29 1    
     4    2    3 ar   
     5    2   30 1    
     6    3    4 ar   
     7    3   31 1    
     8    4    5 ar   
     9    4   24 1    
    10    5    6 ar   
    11    5    7 1    
    12    6   32 1    
    13    7    8 am   BACKBONE|DICT|INTERRES
    14    7   33 1    
    15    8    9 2    
    16    8   10 1    
    17   10   15 ar   
    18   10   11 ar   
    19   11   12 ar   
    20   11   34 1    
    21   12   13 ar   
    22   12   35 1    
    23   13   14 ar   
    24   13   36 1    
    25   14   15 ar   
    26   14   16 1    
    27   15   37 1    
    28   16   17 am   BACKBONE|DICT|INTERRES
    29   16   38 1    
    30   17   18 2    
    31   17   19 1    
    32   19   23 1    
    33   19   20 2    
    34   20   21 1    
    35   20   39 1    
    36   21   22 2    
    37   21   40 1    
    38   22   23 1    
    39   22   41 1    
    40   24   28 ar   
    41   24   25 ar   
    42   25   26 ar   
    43   25   42 1    
    44   26   27 ar   
    45   27   28 ar   
@<TRIPOS>SUBSTRUCTURE
     1 UNK         1 GROUP             0       ****    0 ROOT    
