ZINC50321138_1859
                    3D
 Schrodinger Suite 2024-2.
 42 44  0  0  1  0            999 V2000
   -2.4669   48.4034   24.8513 C   0  0  0  0  0  0
   -2.6765   49.8843   25.2190 C   0  0  0  0  0  0
   -3.6764   50.0372   26.3779 C   0  0  0  0  0  0
   -1.3607   50.5766   25.5387 C   0  0  0  0  0  0
   -0.7650   51.7475   25.0808 C   0  0  0  0  0  0
    0.4656   51.8386   25.7836 C   0  0  0  0  0  0
    0.5887   50.8567   26.6523 N   0  0  0  0  0  0
   -0.4936   50.0973   26.4817 N   0  0  0  0  0  0
   -0.7004   49.3008   27.0859 H   0  0  0  0  0  0
    1.4485   52.8968   25.6613 C   0  0  0  0  0  0
    1.6535   53.6369   26.6269 O   0  0  0  0  0  0
    2.0847   53.0433   24.4640 N   0  0  0  0  0  0
    1.9026   52.1660   23.2939 C   0  0  0  0  0  0
    2.8196   52.7787   22.2367 C   0  0  0  0  0  0
    2.8497   54.2484   22.6047 C   0  0  0  0  0  0
    2.8683   54.2542   24.1386 C   0  0  2  0  0  0
    2.3036   55.1205   24.4820 H   0  0  0  0  0  0
    4.2551   54.3331   24.7769 C   0  0  0  0  0  0
    4.6553   54.6620   26.0699 C   0  0  0  0  0  0
    6.0519   54.6287   26.1399 C   0  0  0  0  0  0
    6.5106   54.2857   24.8815 C   0  0  0  0  0  0
    5.4175   54.0974   24.0787 N   0  0  0  0  0  0
    5.4539   53.8346   23.1051 H   0  0  0  0  0  0
   -1.2935   52.6169   24.1627 N   0  0  0  0  0  0
   -1.7836   48.2976   24.0074 H   0  0  0  0  0  0
   -3.4089   47.9304   24.5724 H   0  0  0  0  0  0
   -2.0536   47.8401   25.6899 H   0  0  0  0  0  0
   -3.1190   50.3701   24.3487 H   0  0  0  0  0  0
   -3.8693   51.0878   26.6005 H   0  0  0  0  0  0
   -4.6334   49.5709   26.1416 H   0  0  0  0  0  0
   -3.2990   49.5730   27.2906 H   0  0  0  0  0  0
    2.1753   51.1313   23.5080 H   0  0  0  0  0  0
    0.8782   52.2131   22.9294 H   0  0  0  0  0  0
    3.8221   52.3584   22.3108 H   0  0  0  0  0  0
    2.4699   52.5934   21.2195 H   0  0  0  0  0  0
    3.6734   54.7931   22.1410 H   0  0  0  0  0  0
    1.9260   54.7141   22.2646 H   0  0  0  0  0  0
    3.9886   54.8964   26.8861 H   0  0  0  0  0  0
    6.6513   54.8291   27.0164 H   0  0  0  0  0  0
    7.5043   54.1422   24.4829 H   0  0  0  0  0  0
   -0.8194   53.4740   23.9213 H   0  0  0  0  0  0
   -2.1994   52.4576   23.7479 H   0  0  0  0  0  0
  1  2  1  0  0  0
  1 25  1  0  0  0
  1 26  1  0  0  0
  1 27  1  0  0  0
  2  3  1  0  0  0
  2  4  1  0  0  0
  2 28  1  0  0  0
  3 29  1  0  0  0
  3 30  1  0  0  0
  3 31  1  0  0  0
  4  8  1  0  0  0
  4  5  2  0  0  0
  5  6  1  0  0  0
  5 24  1  0  0  0
  6  7  2  0  0  0
  6 10  1  0  0  0
  7  8  1  0  0  0
  8  9  1  0  0  0
 10 11  2  0  0  0
 10 12  1  0  0  0
 12 16  1  0  0  0
 12 13  1  0  0  0
 13 14  1  0  0  0
 13 32  1  0  0  0
 13 33  1  0  0  0
 14 15  1  0  0  0
 14 34  1  0  0  0
 14 35  1  0  0  0
 15 16  1  0  0  0
 15 36  1  0  0  0
 15 37  1  0  0  0
 16 17  1  0  0  0
 16 18  1  0  0  0
 18 22  1  0  0  0
 18 19  2  0  0  0
 19 20  1  0  0  0
 19 38  1  0  0  0
 20 21  2  0  0  0
 20 39  1  0  0  0
 21 22  1  0  0  0
 21 40  1  0  0  0
 22 23  1  0  0  0
 24 41  1  0  0  0
 24 42  1  0  0  0
M  END
> <i_i_glide_confnum>
21

> <i_i_glide_lignum>
1860

> <i_i_glide_posenum>
159

> <i_i_glide_rotatable_bonds>
4

> <i_m_Source_File_Index>
1877

> <b_m_subgroup_collapsed>
0

> <r_i_docking_score>
-5.33229

> <r_i_glide_ecoul>
-4.67566

> <r_i_glide_eff_state_penalty>
0

> <r_i_glide_einternal>
4.27842

> <r_i_glide_emodel>
-40.9852

> <r_i_glide_energy>
-31.5402

> <r_i_glide_erotb>
0.660307

> <r_i_glide_esite>
-0.1

> <r_i_glide_evdw>
-26.8646

> <r_i_glide_gscore>
-5.33229

> <r_i_glide_hbond>
-0.16

> <r_i_glide_ligand_efficiency>
-0.253919

> <r_i_glide_ligand_efficiency_ln>
-1.3184

> <r_i_glide_ligand_efficiency_sa>
-0.700542

> <r_i_glide_lipo>
-1.69543

> <r_i_glide_metal>
0

> <r_i_glide_rewards>
-1.99259

> <s_i_glide_gridfile>
wee1_glide-grid

> <s_m_Source_File>
wee1_decoys_glide_SP.sdf

> <s_m_Source_Path>
/Users/zhangxujun/Desktop

> <s_m_entry_id>
2152

> <s_m_entry_name>
wee1_decoys_glide_SP.1877

> <s_m_subgroup_title>
wee1_decoys_glide_SP

> <s_m_subgroupid>
wee1_decoys_glide_SP


$$$$
