@<TRIPOS>MOLECULE
ZINC00735867_4129
73   77    1
SMALL
USER_CHARGES


@<TRIPOS>ATOM
      1 C1          2.7153   53.8627   29.0904 C.ar      1 UNK         0.0000 
      2 C2          1.4777   54.4560   28.8529 C.ar      1 UNK         0.0000 
      3 C3          0.3940   53.6627   28.4818 C.ar      1 UNK         0.0000 
      4 C4          0.5412   52.2800   28.3412 C.ar      1 UNK         0.0000 
      5 C5          1.7849   51.6964   28.5932 C.ar      1 UNK         0.0000 
      6 C6          2.8722   52.4842   28.9641 C.ar      1 UNK         0.0000 
      7 C7         -0.6537   51.4206   27.9093 C.3       1 UNK         0.0000 
      8 C8         -0.7197   51.0981   26.3918 C.3       1 UNK         0.0000 
      9 C9         -0.7883   52.3270   25.4623 C.3       1 UNK         0.0000 
     10 C10        -0.2606   52.1236   24.0301 C.3       1 UNK         0.0000 
     11 N11         1.0214   51.3994   24.0411 N.pl3     1 UNK         0.0000 
     12 C12         0.6562   50.0249   24.4218 C.3       1 UNK         0.0000 
     13 C13         0.1842   49.9413   25.8982 C.3       1 UNK         0.0000 
     14 C14         1.8917   51.6991   22.9882 C.ar      1 UNK         0.0000 
     15 C15         1.9570   50.8300   21.8869 C.ar      1 UNK         0.0000 
     16 C16         2.7643   51.1096   20.7862 C.ar      1 UNK         0.0000 
     17 C17         3.4954   52.2933   20.7341 C.ar      1 UNK         0.0000 
     18 C18         3.4087   53.1857   21.8060 C.ar      1 UNK         0.0000 
     19 C19         2.7046   52.8684   22.9749 C.ar      1 UNK         0.0000 
     20 C20         2.8535   53.7858   24.1818 C.2       1 UNK         0.0000 
     21 O21         1.8625   54.0966   24.8353 O.2       1 UNK         0.0000 
     22 N22         4.0953   54.2110   24.5565 N.am      1 UNK         0.0000 
     23 C23         5.3822   53.9218   23.8979 C.3       1 UNK         0.0000 
     24 C24         6.4066   54.1855   24.9994 C.3       1 UNK         0.0000 
     25 C25         5.7704   55.2964   25.8063 C.3       1 UNK         0.0000 
     26 C26         4.2961   54.8996   25.8397 C.3       1 UNK         0.0000 
     27 N27         4.2977   52.4969   19.5969 N.am      1 UNK         0.0000 
     28 C28         5.2003   53.4674   19.3482 C.2       1 UNK         0.0000 
     29 O29         5.5048   54.3881   20.1079 O.2       1 UNK         0.0000 
     30 N30         5.7543   53.2967   18.1393 N.am      1 UNK         0.0000 
     31 C31         6.6980   54.2125   17.4925 C.3       1 UNK         0.0000 
     32 C32         6.1963   55.6434   17.3030 C.ar      1 UNK         0.0000 
     33 C33         5.2452   55.9224   16.3160 C.ar      1 UNK         0.0000 
     34 C34         4.8189   57.2327   16.1095 C.ar      1 UNK         0.0000 
     35 C35         5.3522   58.2618   16.8826 C.ar      1 UNK         0.0000 
     36 C36         6.3055   57.9924   17.8633 C.ar      1 UNK         0.0000 
     37 C37         6.7314   56.6823   18.0727 C.ar      1 UNK         0.0000 
     38 H38         3.5616   54.4751   29.3656 H         1 UNK         0.0000 
     39 H39         1.3589   55.5257   28.9455 H         1 UNK         0.0000 
     40 H40        -0.5562   54.1268   28.2782 H         1 UNK         0.0000 
     41 H41         1.9143   50.6296   28.4917 H         1 UNK         0.0000 
     42 H42         3.8347   52.0275   29.1406 H         1 UNK         0.0000 
     43 H43        -0.6397   50.4968   28.4824 H         1 UNK         0.0000 
     44 H44        -1.5742   51.9178   28.2182 H         1 UNK         0.0000 
     45 H45        -1.7079   50.6557   26.2511 H         1 UNK         0.0000 
     46 H46        -1.7579   52.8241   25.5001 H         1 UNK         0.0000 
     47 H47        -0.0847   53.0482   25.8579 H         1 UNK         0.0000 
     48 H48        -0.9937   51.6075   23.4064 H         1 UNK         0.0000 
     49 H49        -0.1306   53.1096   23.5801 H         1 UNK         0.0000 
     50 H50        -0.0822   49.5948   23.7423 H         1 UNK         0.0000 
     51 H51         1.5483   49.4042   24.3254 H         1 UNK         0.0000 
     52 H52         1.1045   49.9904   26.4630 H         1 UNK         0.0000 
     53 H53        -0.2282   48.9632   26.1539 H         1 UNK         0.0000 
     54 H54         1.3708   49.9233   21.8706 H         1 UNK         0.0000 
     55 H55         2.8039   50.4079   19.9643 H         1 UNK         0.0000 
     56 H56         3.9238   54.1300   21.7644 H         1 UNK         0.0000 
     57 H57         5.4774   52.8966   23.5472 H         1 UNK         0.0000 
     58 H58         5.5626   54.6445   23.0997 H         1 UNK         0.0000 
     59 H59         6.5279   53.2968   25.6222 H         1 UNK         0.0000 
     60 H60         7.3905   54.4405   24.6010 H         1 UNK         0.0000 
     61 H61         5.8882   56.2465   25.2813 H         1 UNK         0.0000 
     62 H62         6.1963   55.4122   26.8039 H         1 UNK         0.0000 
     63 H63         3.6313   55.7515   25.9604 H         1 UNK         0.0000 
     64 H64         4.1255   54.1862   26.6489 H         1 UNK         0.0000 
     65 H65         4.2629   51.7532   18.9083 H         1 UNK         0.0000 
     66 H66         5.6630   52.3756   17.7254 H         1 UNK         0.0000 
     67 H67         7.6478   54.1993   18.0296 H         1 UNK         0.0000 
     68 H68         6.9236   53.8017   16.5073 H         1 UNK         0.0000 
     69 H69         4.8380   55.1243   15.7111 H         1 UNK         0.0000 
     70 H70         4.0820   57.4525   15.3506 H         1 UNK         0.0000 
     71 H71         5.0273   59.2827   16.7232 H         1 UNK         0.0000 
     72 H72         6.7088   58.8033   18.4520 H         1 UNK         0.0000 
     73 H73         7.4726   56.4733   18.8322 H         1 UNK         0.0000 
@<TRIPOS>BOND
     1    1    6 ar   
     2    1    2 ar   
     3    1   38 1    
     4    2    3 ar   
     5    2   39 1    
     6    3    4 ar   
     7    3   40 1    
     8    4    5 ar   
     9    4    7 1    
    10    5    6 ar   
    11    5   41 1    
    12    6   42 1    
    13    7    8 1    
    14    7   43 1    
    15    7   44 1    
    16    8   13 1    
    17    8    9 1    
    18    8   45 1    
    19    9   10 1    
    20    9   46 1    
    21    9   47 1    
    22   10   11 1    
    23   10   48 1    
    24   10   49 1    
    25   11   12 1    
    26   11   14 1    
    27   12   13 1    
    28   12   50 1    
    29   12   51 1    
    30   13   52 1    
    31   13   53 1    
    32   14   19 ar   
    33   14   15 ar   
    34   15   16 ar   
    35   15   54 1    
    36   16   17 ar   
    37   16   55 1    
    38   17   18 ar   
    39   17   27 1    
    40   18   19 ar   
    41   18   56 1    
    42   19   20 1    
    43   20   21 2    
    44   20   22 am   BACKBONE|DICT|INTERRES
    45   22   26 1    
    46   22   23 1    
    47   23   24 1    
    48   23   57 1    
    49   23   58 1    
    50   24   25 1    
    51   24   59 1    
    52   24   60 1    
    53   25   26 1    
    54   25   61 1    
    55   25   62 1    
    56   26   63 1    
    57   26   64 1    
    58   27   28 am   BACKBONE|DICT|INTERRES
    59   27   65 1    
    60   28   29 2    
    61   28   30 am   BACKBONE|DICT|INTERRES
    62   30   31 1    
    63   30   66 1    
    64   31   32 1    
    65   31   67 1    
    66   31   68 1    
    67   32   37 ar   
    68   32   33 ar   
    69   33   34 ar   
    70   33   69 1    
    71   34   35 ar   
    72   34   70 1    
    73   35   36 ar   
    74   35   71 1    
    75   36   37 ar   
    76   36   72 1    
    77   37   73 1    
@<TRIPOS>SUBSTRUCTURE
     1 UNK         1 GROUP             0       ****    0 ROOT    
