@<TRIPOS>MOLECULE
ZINC00818633_5826
59   61    1
SMALL
USER_CHARGES


@<TRIPOS>ATOM
      1 C1          6.0721   54.4971   28.0839 C.3       1 UNK         0.0000 
      2 C2          4.9123   54.3780   27.0944 C.3       1 UNK         0.0000 
      3 O3          3.7262   54.0748   27.8250 O.3       1 UNK         0.0000 
      4 C4          2.7147   53.4159   27.1553 C.ar      1 UNK         0.0000 
      5 C5          2.4274   53.6966   25.8157 C.ar      1 UNK         0.0000 
      6 C6          1.3911   53.0564   25.1369 C.ar      1 UNK         0.0000 
      7 C7          0.6646   52.0314   25.7778 C.ar      1 UNK         0.0000 
      8 C8          0.9677   51.7511   27.1210 C.ar      1 UNK         0.0000 
      9 C9          1.9324   52.4723   27.8387 C.ar      1 UNK         0.0000 
     10 C10         2.0620   52.2296   29.3554 C.3       1 UNK         0.0000 
     11 C11         3.5010   52.0227   29.8806 C.3       1 UNK         0.0000 
     12 C12         1.3321   53.3262   30.1534 C.3       1 UNK         0.0000 
     13 C13        -0.4531   51.2110   25.0759 C.3       1 UNK         0.0000 
     14 H14        -0.4636   50.2800   25.6489 H         1 UNK         0.0000 
     15 C15        -0.1750   50.7982   23.6157 C.2       1 UNK         0.0000 
     16 C16        -1.0583   51.0740   22.6333 C.2       1 UNK         0.0000 
     17 O17        -2.2403   51.7002   22.8280 O.3       1 UNK         0.0000 
     18 C18        -2.6599   51.9749   24.0874 C.2       1 UNK         0.0000 
     19 C19        -1.8944   51.7855   25.1971 C.2       1 UNK         0.0000 
     20 C20        -2.4764   52.0397   26.5293 C.2       1 UNK         0.0000 
     21 O21        -1.9381   51.6946   27.5747 O.2       1 UNK         0.0000 
     22 C22        -3.8673   52.6959   26.5706 C.3       1 UNK         0.0000 
     23 C23        -4.8085   52.2604   25.4209 C.3       1 UNK         0.0000 
     24 C24        -4.0823   52.5252   24.0757 C.3       1 UNK         0.0000 
     25 C25        -5.1518   50.7536   25.5529 C.3       1 UNK         0.0000 
     26 C26        -6.0635   53.1577   25.4743 C.3       1 UNK         0.0000 
     27 N27        -0.9229   50.8099   21.2972 N.pl3     1 UNK         0.0000 
     28 C28         1.0640   50.1844   23.2670 C.1       1 UNK         0.0000 
     29 N29         2.0471   49.7142   22.8818 N.1       1 UNK         0.0000 
     30 C30         1.0619   53.5578   23.7369 C.3       1 UNK         0.0000 
     31 H31         6.9969   54.7709   27.5775 H         1 UNK         0.0000 
     32 H32         5.8660   55.2560   28.8378 H         1 UNK         0.0000 
     33 H33         6.2453   53.5538   28.6017 H         1 UNK         0.0000 
     34 H34         5.1481   53.5958   26.3689 H         1 UNK         0.0000 
     35 H35         4.7825   55.3103   26.5466 H         1 UNK         0.0000 
     36 H36         2.9881   54.4651   25.3064 H         1 UNK         0.0000 
     37 H37         0.4078   50.9814   27.6361 H         1 UNK         0.0000 
     38 H38         1.5399   51.2968   29.5695 H         1 UNK         0.0000 
     39 H39         4.0503   51.2965   29.2818 H         1 UNK         0.0000 
     40 H40         4.0782   52.9465   29.8956 H         1 UNK         0.0000 
     41 H41         3.4941   51.6686   30.9120 H         1 UNK         0.0000 
     42 H42         0.2989   53.4304   29.8219 H         1 UNK         0.0000 
     43 H43         1.3077   53.0912   31.2186 H         1 UNK         0.0000 
     44 H44         1.8167   54.2952   30.0352 H         1 UNK         0.0000 
     45 H45        -4.3091   52.4961   27.5456 H         1 UNK         0.0000 
     46 H46        -3.6906   53.7684   26.5059 H         1 UNK         0.0000 
     47 H47        -4.6677   52.0589   23.2856 H         1 UNK         0.0000 
     48 H48        -3.9947   53.5895   23.8521 H         1 UNK         0.0000 
     49 H49        -5.8513   50.4381   24.7781 H         1 UNK         0.0000 
     50 H50        -4.2767   50.1095   25.4724 H         1 UNK         0.0000 
     51 H51        -5.6207   50.5390   26.5136 H         1 UNK         0.0000 
     52 H52        -6.7569   52.9225   24.6634 H         1 UNK         0.0000 
     53 H53        -6.6075   53.0245   26.4116 H         1 UNK         0.0000 
     54 H54        -5.8151   54.2171   25.3905 H         1 UNK         0.0000 
     55 H55        -0.1187   50.3022   20.9591 H         1 UNK         0.0000 
     56 H56        -1.4805   51.3022   20.6167 H         1 UNK         0.0000 
     57 H57         1.4474   54.5651   23.5645 H         1 UNK         0.0000 
     58 H58         1.4696   52.8925   22.9741 H         1 UNK         0.0000 
     59 H59        -0.0180   53.6239   23.6091 H         1 UNK         0.0000 
@<TRIPOS>BOND
     1    1    2 1    
     2    1   31 1    
     3    1   32 1    
     4    1   33 1    
     5    2    3 1    
     6    2   34 1    
     7    2   35 1    
     8    3    4 1    
     9    4    9 ar   
    10    4    5 ar   
    11    5    6 ar   
    12    5   36 1    
    13    6    7 ar   
    14    6   30 1    
    15    7    8 ar   
    16    7   13 1    
    17    8    9 ar   
    18    8   37 1    
    19    9   10 1    
    20   10   11 1    
    21   10   12 1    
    22   10   38 1    
    23   11   39 1    
    24   11   40 1    
    25   11   41 1    
    26   12   42 1    
    27   12   43 1    
    28   12   44 1    
    29   13   14 1    
    30   13   19 1    
    31   13   15 1    
    32   15   16 2    
    33   15   28 1    
    34   16   17 1    
    35   16   27 1    
    36   17   18 1    
    37   18   24 1    
    38   18   19 2    
    39   19   20 1    
    40   20   21 2    
    41   20   22 1    
    42   22   23 1    
    43   22   45 1    
    44   22   46 1    
    45   23   24 1    
    46   23   25 1    
    47   23   26 1    
    48   24   47 1    
    49   24   48 1    
    50   25   49 1    
    51   25   50 1    
    52   25   51 1    
    53   26   52 1    
    54   26   53 1    
    55   26   54 1    
    56   27   55 1    
    57   27   56 1    
    58   28   29 3    
    59   30   57 1    
    60   30   58 1    
    61   30   59 1    
@<TRIPOS>SUBSTRUCTURE
     1 UNK         1 GROUP             0       ****    0 ROOT    
