@<TRIPOS>MOLECULE
ZINC13352313_5889
57   60    1
SMALL
USER_CHARGES


@<TRIPOS>ATOM
      1 C1         -2.3793   51.6259   18.9566 C.3       1 UNK         0.0000 
      2 C2         -1.9754   50.5905   20.0234 C.3       1 UNK         0.0000 
      3 H3         -2.8886   50.0488   20.2719 H         1 UNK         0.0000 
      4 C4         -1.5261   51.2859   21.3267 C.2       1 UNK         0.0000 
      5 O5         -2.3893   51.7340   22.0841 O.2       1 UNK         0.0000 
      6 N6         -0.2018   51.4344   21.5425 N.am      1 UNK         0.0000 
      7 C7          0.3930   51.9630   22.6975 C.ar      1 UNK         0.0000 
      8 C8          1.4254   52.8891   22.5551 C.ar      1 UNK         0.0000 
      9 C9          2.0841   53.3731   23.6844 C.ar      1 UNK         0.0000 
     10 C10         1.7396   52.9271   24.9718 C.ar      1 UNK         0.0000 
     11 C11         0.6983   51.9958   25.0921 C.ar      1 UNK         0.0000 
     12 C12         0.0260   51.5192   23.9708 C.ar      1 UNK         0.0000 
     13 N13         2.4463   53.3278   26.1099 N.pl3     1 UNK         0.0000 
     14 C14         3.7150   54.0803   26.0221 C.3       1 UNK         0.0000 
     15 C15         4.6195   53.9071   27.2626 C.3       1 UNK         0.0000 
     16 C16         3.8916   54.2261   28.5722 C.3       1 UNK         0.0000 
     17 C17         2.5665   53.4596   28.6186 C.3       1 UNK         0.0000 
     18 C18         1.7260   53.6957   27.3468 C.3       1 UNK         0.0000 
     19 S19        -0.7979   49.3495   19.3552 S.3       1 UNK         0.0000 
     20 C20        -1.2365   47.8596   20.2310 C.ar      1 UNK         0.0000 
     21 N21        -1.9567   47.8649   21.3282 N.2       1 UNK         0.0000 
     22 C22        -2.1191   46.6046   21.6550 C.ar      1 UNK         0.0000 
     23 C23        -1.4873   45.7370   20.7740 C.ar      1 UNK         0.0000 
     24 N24        -0.8975   46.5691   19.8198 N.pl3     1 UNK         0.0000 
     25 C25        -0.1436   46.2597   18.6561 C.ar      1 UNK         0.0000 
     26 C26         1.1044   46.8636   18.4550 C.ar      1 UNK         0.0000 
     27 C27         1.8158   46.6235   17.2818 C.ar      1 UNK         0.0000 
     28 C28         1.2935   45.7603   16.3222 C.ar      1 UNK         0.0000 
     29 C29         0.0557   45.1509   16.5173 C.ar      1 UNK         0.0000 
     30 C30        -0.6697   45.4071   17.6790 C.ar      1 UNK         0.0000 
     31 F31         1.9924   45.5115   15.1911 F         1 UNK         0.0000 
     32 C32        -1.3936   44.2610   20.8110 C.2       1 UNK         0.0000 
     33 O33        -0.6196   43.6539   20.0381 O.co2     1 UNK         0.0000 
     34 H34        -3.1330   52.3218   19.3268 H         1 UNK         0.0000 
     35 H35        -1.5206   52.2081   18.6185 H         1 UNK         0.0000 
     36 H36        -2.8038   51.1330   18.0810 H         1 UNK         0.0000 
     37 H37         0.4209   51.1698   20.7929 H         1 UNK         0.0000 
     38 H38         1.7229   53.2369   21.5754 H         1 UNK         0.0000 
     39 H39         2.8759   54.0912   23.5384 H         1 UNK         0.0000 
     40 H40         0.4222   51.5947   26.0555 H         1 UNK         0.0000 
     41 H41        -0.7547   50.7820   24.0934 H         1 UNK         0.0000 
     42 H42         3.5053   55.1334   25.8280 H         1 UNK         0.0000 
     43 H43         4.2863   53.7038   25.1727 H         1 UNK         0.0000 
     44 H44         5.4854   54.5633   27.1668 H         1 UNK         0.0000 
     45 H45         5.0319   52.8967   27.2763 H         1 UNK         0.0000 
     46 H46         4.5162   53.9699   29.4288 H         1 UNK         0.0000 
     47 H47         3.6978   55.2967   28.6354 H         1 UNK         0.0000 
     48 H48         2.7374   52.3899   28.7517 H         1 UNK         0.0000 
     49 H49         1.9947   53.7737   29.4924 H         1 UNK         0.0000 
     50 H50         1.4316   54.7437   27.2817 H         1 UNK         0.0000 
     51 H51         0.8027   53.1281   27.4547 H         1 UNK         0.0000 
     52 H52        -2.6790   46.3182   22.5333 H         1 UNK         0.0000 
     53 H53         1.5210   47.5343   19.1934 H         1 UNK         0.0000 
     54 H54         2.7716   47.1028   17.1186 H         1 UNK         0.0000 
     55 H55        -0.3413   44.4872   15.7643 H         1 UNK         0.0000 
     56 H56        -1.6347   44.9412   17.8179 H         1 UNK         0.0000 
     57 O57        -2.0956   43.6967   21.6817 O.co2     1 UNK         0.0000 
@<TRIPOS>BOND
     1    1    2 1    
     2    1   34 1    
     3    1   35 1    
     4    1   36 1    
     5    2    3 1    
     6    2    4 1    
     7    2   19 1    
     8    4    5 2    
     9    4    6 am   BACKBONE|DICT|INTERRES
    10    6    7 1    
    11    6   37 1    
    12    7   12 ar   
    13    7    8 ar   
    14    8    9 ar   
    15    8   38 1    
    16    9   10 ar   
    17    9   39 1    
    18   10   11 ar   
    19   10   13 1    
    20   11   12 ar   
    21   11   40 1    
    22   12   41 1    
    23   13   18 1    
    24   13   14 1    
    25   14   15 1    
    26   14   42 1    
    27   14   43 1    
    28   15   16 1    
    29   15   44 1    
    30   15   45 1    
    31   16   17 1    
    32   16   46 1    
    33   16   47 1    
    34   17   18 1    
    35   17   48 1    
    36   17   49 1    
    37   18   50 1    
    38   18   51 1    
    39   19   20 1    
    40   20   24 ar   
    41   20   21 ar   
    42   21   22 ar   
    43   22   23 ar   
    44   22   52 1    
    45   23   24 ar   
    46   23   32 1    
    47   24   25 1    
    48   25   30 ar   
    49   25   26 ar   
    50   26   27 ar   
    51   26   53 1    
    52   27   28 ar   
    53   27   54 1    
    54   28   29 ar   
    55   28   31 1    
    56   29   30 ar   
    57   29   55 1    
    58   30   56 1    
    59   32   33 2    
    60   32   57 1    
@<TRIPOS>SUBSTRUCTURE
     1 UNK         1 GROUP             0       ****    0 ROOT    
