@<TRIPOS>MOLECULE
ZINC45811942_2214
60   62    1
SMALL
USER_CHARGES


@<TRIPOS>ATOM
      1 C1          2.6959   55.1678   16.7675 C.3       1 UNK         0.0000 
      2 C2          4.0387   54.4415   16.5438 C.3       1 UNK         0.0000 
      3 N3          4.8303   54.1695   17.8510 N.4       1 UNK         0.0000 
      4 C4          5.2208   55.4634   18.6021 C.3       1 UNK         0.0000 
      5 C5          6.0776   55.1089   19.8387 C.3       1 UNK         0.0000 
      6 N6          5.4574   54.0981   20.7051 N.pl3     1 UNK         0.0000 
      7 C7          5.0012   52.8917   19.9961 C.3       1 UNK         0.0000 
      8 C8          4.0895   53.1996   18.7945 C.3       1 UNK         0.0000 
      9 C9          5.3749   54.2132   22.0818 C.ar      1 UNK         0.0000 
     10 C10         6.4909   54.5405   22.8554 C.ar      1 UNK         0.0000 
     11 C11         6.3992   54.6004   24.2443 C.ar      1 UNK         0.0000 
     12 C12         5.1804   54.3322   24.8904 C.ar      1 UNK         0.0000 
     13 C13         4.0447   54.0357   24.1119 C.ar      1 UNK         0.0000 
     14 C14         4.1544   53.9846   22.7204 C.ar      1 UNK         0.0000 
     15 C15         2.6856   53.7262   24.7406 C.3       1 UNK         0.0000 
     16 N16         5.0222   54.3022   26.2850 N.am      1 UNK         0.0000 
     17 C17         5.9080   54.4612   27.2944 C.2       1 UNK         0.0000 
     18 O18         7.1026   54.7042   27.1292 O.2       1 UNK         0.0000 
     19 C19         5.3697   54.3479   28.7439 C.3       1 UNK         0.0000 
     20 N20         3.9408   54.0035   28.7693 N.am      1 UNK         0.0000 
     21 C21         3.4302   52.8122   29.1291 C.2       1 UNK         0.0000 
     22 O22         4.0829   51.9268   29.6817 O.2       1 UNK         0.0000 
     23 C23         2.0118   52.5693   28.6790 C.ar      1 UNK         0.0000 
     24 C24         1.0684   53.5982   28.6227 C.ar      1 UNK         0.0000 
     25 C25        -0.1948   53.3442   28.1012 C.ar      1 UNK         0.0000 
     26 C26        -0.5475   52.0822   27.6127 C.ar      1 UNK         0.0000 
     27 C27         0.3882   51.0618   27.6805 C.ar      1 UNK         0.0000 
     28 C28         1.6376   51.2967   28.2383 C.ar      1 UNK         0.0000 
     29 C29        -1.9149   51.7976   26.9903 C.3       1 UNK         0.0000 
     30 F30        -1.8115   50.9127   25.9956 F         1 UNK         0.0000 
     31 F31        -2.7303   51.2985   27.9199 F         1 UNK         0.0000 
     32 F32        -2.4690   52.8971   26.4818 F         1 UNK         0.0000 
     33 H33         2.1815   55.2976   15.8143 H         1 UNK         0.0000 
     34 H34         2.0213   54.6096   17.4151 H         1 UNK         0.0000 
     35 H35         2.8274   56.1628   17.1900 H         1 UNK         0.0000 
     36 H36         4.7173   55.0186   15.9122 H         1 UNK         0.0000 
     37 H37         3.9057   53.4598   16.0842 H         1 UNK         0.0000 
     38 H38         5.8037   56.0571   17.8959 H         1 UNK         0.0000 
     39 H39         4.3054   55.9861   18.8816 H         1 UNK         0.0000 
     40 H40         6.3227   56.0091   20.4034 H         1 UNK         0.0000 
     41 H41         7.0250   54.6695   19.5207 H         1 UNK         0.0000 
     42 H42         5.9039   52.3850   19.6516 H         1 UNK         0.0000 
     43 H43         4.5095   52.1899   20.6725 H         1 UNK         0.0000 
     44 H44         3.9077   52.2867   18.2217 H         1 UNK         0.0000 
     45 H45         3.1452   53.6551   19.0998 H         1 UNK         0.0000 
     46 H46         7.4475   54.7269   22.3885 H         1 UNK         0.0000 
     47 H47         7.2988   54.8372   24.7883 H         1 UNK         0.0000 
     48 H48         3.2823   53.7487   22.1257 H         1 UNK         0.0000 
     49 H49         1.8875   53.6760   23.9958 H         1 UNK         0.0000 
     50 H50         2.7220   52.7772   25.2783 H         1 UNK         0.0000 
     51 H51         2.4105   54.4958   25.4581 H         1 UNK         0.0000 
     52 H52         4.0887   54.0657   26.5786 H         1 UNK         0.0000 
     53 H53         5.5055   55.2963   29.2586 H         1 UNK         0.0000 
     54 H54         5.9710   53.6056   29.2655 H         1 UNK         0.0000 
     55 H55         3.3087   54.7005   28.4135 H         1 UNK         0.0000 
     56 H56         1.2966   54.5975   28.9714 H         1 UNK         0.0000 
     57 H57        -0.8955   54.1606   28.0816 H         1 UNK         0.0000 
     58 H58         0.1371   50.0720   27.3215 H         1 UNK         0.0000 
     59 H59         2.3046   50.4583   28.2901 H         1 UNK         0.0000 
     60 H60         5.6880   53.7047   17.5845 H         1 UNK         0.0000 
@<TRIPOS>BOND
     1    1    2 1    
     2    1   33 1    
     3    1   34 1    
     4    1   35 1    
     5    2    3 1    
     6    2   36 1    
     7    2   37 1    
     8    3    8 1    
     9    3    4 1    
    10    3   60 1    
    11    4    5 1    
    12    4   38 1    
    13    4   39 1    
    14    5    6 1    
    15    5   40 1    
    16    5   41 1    
    17    6    7 1    
    18    6    9 1    
    19    7    8 1    
    20    7   42 1    
    21    7   43 1    
    22    8   44 1    
    23    8   45 1    
    24    9   14 ar   
    25    9   10 ar   
    26   10   11 ar   
    27   10   46 1    
    28   11   12 ar   
    29   11   47 1    
    30   12   13 ar   
    31   12   16 1    
    32   13   14 ar   
    33   13   15 1    
    34   14   48 1    
    35   15   49 1    
    36   15   50 1    
    37   15   51 1    
    38   16   17 am   BACKBONE|DICT|INTERRES
    39   16   52 1    
    40   17   18 2    
    41   17   19 1    
    42   19   20 1    
    43   19   53 1    
    44   19   54 1    
    45   20   21 am   BACKBONE|DICT|INTERRES
    46   20   55 1    
    47   21   22 2    
    48   21   23 1    
    49   23   28 ar   
    50   23   24 ar   
    51   24   25 ar   
    52   24   56 1    
    53   25   26 ar   
    54   25   57 1    
    55   26   27 ar   
    56   26   29 1    
    57   27   28 ar   
    58   27   58 1    
    59   28   59 1    
    60   29   30 1    
    61   29   31 1    
    62   29   32 1    
@<TRIPOS>SUBSTRUCTURE
     1 UNK         1 GROUP             0       ****    0 ROOT    
