@<TRIPOS>MOLECULE
ZINC39666869_383
82   85    1
SMALL
USER_CHARGES


@<TRIPOS>ATOM
      1 C1          0.5459   50.4568   18.6048 C.3       1 UNK         0.0000 
      2 C2          0.5623   48.9715   19.0019 C.3       1 UNK         0.0000 
      3 C3         -0.6053   48.5067   19.9212 C.3       1 UNK         0.0000 
      4 C4         -0.6234   46.9571   19.9963 C.3       1 UNK         0.0000 
      5 C5         -1.8508   46.3424   20.6928 C.3       1 UNK         0.0000 
      6 C6         -0.5705   49.1703   21.3257 C.3       1 UNK         0.0000 
      7 N7         -1.0753   50.5419   21.3157 N.am      1 UNK         0.0000 
      8 C8         -1.0898   51.4355   22.3169 C.2       1 UNK         0.0000 
      9 O9         -1.6968   52.4933   22.1503 O.2       1 UNK         0.0000 
     10 C10        -0.4364   51.1054   23.6911 C.3       1 UNK         0.0000 
     11 H11        -0.1930   50.0462   23.7447 H         1 UNK         0.0000 
     12 C12        -1.5069   51.3914   24.7740 C.3       1 UNK         0.0000 
     13 N13        -0.7373   51.7886   25.9568 N.am      1 UNK         0.0000 
     14 C14         0.6787   51.9078   25.6597 C.3       1 UNK         0.0000 
     15 C15         0.7992   51.9539   24.1222 C.3       1 UNK         0.0000 
     16 C16         2.2002   51.4296   23.7518 C.3       1 UNK         0.0000 
     17 C17         2.5462   51.4855   22.2670 C.3       1 UNK         0.0000 
     18 N18         2.6464   52.9764   21.9318 N.4       1 UNK         0.0000 
     19 C19         1.3251   53.6963   22.2386 C.3       1 UNK         0.0000 
     20 C20         0.8063   53.4509   23.6835 C.3       1 UNK         0.0000 
     21 C21        -1.3143   51.9026   27.1818 C.2       1 UNK         0.0000 
     22 O22        -2.5223   51.6967   27.3170 O.2       1 UNK         0.0000 
     23 C23        -0.5330   52.3847   28.4429 C.3       1 UNK         0.0000 
     24 C24         0.6413   51.4896   28.8851 C.3       1 UNK         0.0000 
     25 C25         1.2686   52.0490   30.2006 C.3       1 UNK         0.0000 
     26 N26         1.5635   53.4802   29.9874 N.am      1 UNK         0.0000 
     27 C27         0.4304   54.3550   29.6963 C.3       1 UNK         0.0000 
     28 C28        -0.0822   53.8574   28.3366 C.3       1 UNK         0.0000 
     29 C29         2.8495   53.9839   29.7447 C.2       1 UNK         0.0000 
     30 O30         3.1174   55.1615   29.5125 O.2       1 UNK         0.0000 
     31 O31         3.8123   53.0622   29.8900 O.3       1 UNK         0.0000 
     32 C32         4.3096   52.3736   28.7529 C.3       1 UNK         0.0000 
     33 C33         4.9825   53.2964   27.7475 C.ar      1 UNK         0.0000 
     34 C34         6.2846   53.7192   27.9857 C.ar      1 UNK         0.0000 
     35 C35         6.9084   54.5490   27.0677 C.ar      1 UNK         0.0000 
     36 C36         6.2443   54.9404   25.9062 C.ar      1 UNK         0.0000 
     37 C37         4.9376   54.5176   25.6689 C.ar      1 UNK         0.0000 
     38 C38         4.3034   53.6969   26.5971 C.ar      1 UNK         0.0000 
     39 H39         1.3148   50.6603   17.8604 H         1 UNK         0.0000 
     40 H40         0.7482   51.1089   19.4536 H         1 UNK         0.0000 
     41 H41        -0.4093   50.7508   18.1742 H         1 UNK         0.0000 
     42 H42         0.5531   48.3922   18.0779 H         1 UNK         0.0000 
     43 H43         1.5181   48.7447   19.4718 H         1 UNK         0.0000 
     44 H44        -1.5389   48.7963   19.4342 H         1 UNK         0.0000 
     45 H45        -0.5845   46.5540   18.9848 H         1 UNK         0.0000 
     46 H46         0.2838   46.6037   20.4806 H         1 UNK         0.0000 
     47 H47        -1.8656   45.2604   20.5591 H         1 UNK         0.0000 
     48 H48        -1.8503   46.5293   21.7672 H         1 UNK         0.0000 
     49 H49        -2.7802   46.7366   20.2820 H         1 UNK         0.0000 
     50 H50        -1.2007   48.6204   22.0253 H         1 UNK         0.0000 
     51 H51         0.4403   49.1194   21.7328 H         1 UNK         0.0000 
     52 H52        -1.5373   50.8298   20.4659 H         1 UNK         0.0000 
     53 H53        -2.1129   52.2661   24.5288 H         1 UNK         0.0000 
     54 H54        -2.1180   50.5056   24.9579 H         1 UNK         0.0000 
     55 H55         1.1032   50.9684   26.0072 H         1 UNK         0.0000 
     56 H56         1.2383   52.6906   26.1611 H         1 UNK         0.0000 
     57 H57         2.8779   52.0914   24.3102 H         1 UNK         0.0000 
     58 H58         2.3110   50.3963   24.0821 H         1 UNK         0.0000 
     59 H59         3.5188   51.0478   22.0404 H         1 UNK         0.0000 
     60 H60         1.7904   51.0453   21.6172 H         1 UNK         0.0000 
     61 H61         3.4019   53.3984   22.4560 H         1 UNK         0.0000 
     62 H62         1.5442   54.7408   22.0817 H         1 UNK         0.0000 
     63 H63         0.6686   53.3196   21.4540 H         1 UNK         0.0000 
     64 H64        -0.1653   53.9163   23.8671 H         1 UNK         0.0000 
     65 H65         1.4837   54.0099   24.3332 H         1 UNK         0.0000 
     66 H66        -1.2838   52.3219   29.2356 H         1 UNK         0.0000 
     67 H67         0.2702   50.4968   29.1200 H         1 UNK         0.0000 
     68 H68         1.4346   51.4340   28.1456 H         1 UNK         0.0000 
     69 H69         0.5076   52.0093   30.9823 H         1 UNK         0.0000 
     70 H70         2.1170   51.4851   30.5772 H         1 UNK         0.0000 
     71 H71        -0.3402   54.1843   30.4488 H         1 UNK         0.0000 
     72 H72         0.6856   55.4163   29.7282 H         1 UNK         0.0000 
     73 H73         0.7187   54.0165   27.6170 H         1 UNK         0.0000 
     74 H74        -0.8993   54.4965   28.0821 H         1 UNK         0.0000 
     75 H75         5.0382   51.6421   29.0995 H         1 UNK         0.0000 
     76 H76         3.5162   51.8088   28.2657 H         1 UNK         0.0000 
     77 H77         6.8099   53.4284   28.8820 H         1 UNK         0.0000 
     78 H78         7.9039   54.8921   27.2852 H         1 UNK         0.0000 
     79 H79         6.7339   55.5859   25.1920 H         1 UNK         0.0000 
     80 H80         4.4165   54.8338   24.7780 H         1 UNK         0.0000 
     81 H81         3.2893   53.3725   26.4216 H         1 UNK         0.0000 
     82 H82         2.8689   53.1030   20.9518 H         1 UNK         0.0000 
@<TRIPOS>BOND
     1    1    2 1    
     2    1   39 1    
     3    1   40 1    
     4    1   41 1    
     5    2    3 1    
     6    2   42 1    
     7    2   43 1    
     8    3    4 1    
     9    3    6 1    
    10    3   44 1    
    11    4    5 1    
    12    4   45 1    
    13    4   46 1    
    14    5   47 1    
    15    5   48 1    
    16    5   49 1    
    17    6    7 1    
    18    6   50 1    
    19    6   51 1    
    20    7    8 am   BACKBONE|DICT|INTERRES
    21    7   52 1    
    22    8    9 2    
    23    8   10 1    
    24   10   11 1    
    25   10   15 1    
    26   10   12 1    
    27   12   13 1    
    28   12   53 1    
    29   12   54 1    
    30   13   14 1    
    31   13   21 am   BACKBONE|DICT|INTERRES
    32   14   15 1    
    33   14   55 1    
    34   14   56 1    
    35   15   20 1    
    36   15   16 1    
    37   16   17 1    
    38   16   57 1    
    39   16   58 1    
    40   17   18 1    
    41   17   59 1    
    42   17   60 1    
    43   18   19 1    
    44   18   61 1    
    45   18   82 1    
    46   19   20 1    
    47   19   62 1    
    48   19   63 1    
    49   20   64 1    
    50   20   65 1    
    51   21   22 2    
    52   21   23 1    
    53   23   28 1    
    54   23   24 1    
    55   23   66 1    
    56   24   25 1    
    57   24   67 1    
    58   24   68 1    
    59   25   26 1    
    60   25   69 1    
    61   25   70 1    
    62   26   27 1    
    63   26   29 am   BACKBONE|DICT|INTERRES
    64   27   28 1    
    65   27   71 1    
    66   27   72 1    
    67   28   73 1    
    68   28   74 1    
    69   29   30 2    
    70   29   31 1    
    71   31   32 1    
    72   32   33 1    
    73   32   75 1    
    74   32   76 1    
    75   33   38 ar   
    76   33   34 ar   
    77   34   35 ar   
    78   34   77 1    
    79   35   36 ar   
    80   35   78 1    
    81   36   37 ar   
    82   36   79 1    
    83   37   38 ar   
    84   37   80 1    
    85   38   81 1    
@<TRIPOS>SUBSTRUCTURE
     1 UNK         1 GROUP             0       ****    0 ROOT    
