@<TRIPOS>MOLECULE
ZINC02378802_4522
64   68    1
SMALL
USER_CHARGES


@<TRIPOS>ATOM
      1 C1          0.3166   48.4824   16.5932 C.3       1 UNK         0.0000 
      2 C2          0.4372   49.9892   16.4859 C.ar      1 UNK         0.0000 
      3 C3         -0.5142   50.7306   15.7820 C.ar      1 UNK         0.0000 
      4 C4         -0.3951   52.1198   15.6885 C.ar      1 UNK         0.0000 
      5 C5          0.6853   52.7692   16.2931 C.ar      1 UNK         0.0000 
      6 C6          1.6526   52.0331   16.9992 C.ar      1 UNK         0.0000 
      7 C7          1.5046   50.6465   17.0991 C.ar      1 UNK         0.0000 
      8 N8          2.7754   52.5852   17.6482 N.am      1 UNK         0.0000 
      9 C9          3.2256   53.8592   17.6496 C.2       1 UNK         0.0000 
     10 O10         2.8145   54.7687   16.9292 O.2       1 UNK         0.0000 
     11 C11         4.2727   54.1170   18.6085 C.ar      1 UNK         0.0000 
     12 C12         5.4471   54.9169   18.4621 C.ar      1 UNK         0.0000 
     13 C13         6.1185   54.9716   19.7056 C.ar      1 UNK         0.0000 
     14 N14         7.2827   55.6095   19.8742 N.ar      1 UNK         0.0000 
     15 C15         7.8406   56.2148   18.7875 C.ar      1 UNK         0.0000 
     16 C16         9.0996   56.8582   18.8811 C.ar      1 UNK         0.0000 
     17 C17         9.6533   57.4765   17.7622 C.ar      1 UNK         0.0000 
     18 C18         8.9846   57.4661   16.5418 C.ar      1 UNK         0.0000 
     19 C19         7.7470   56.8343   16.4130 C.ar      1 UNK         0.0000 
     20 C20         7.1642   56.1927   17.5301 C.ar      1 UNK         0.0000 
     21 N21         5.9721   55.5466   17.4050 N.ar      1 UNK         0.0000 
     22 N22         5.3619   54.3009   20.6523 N.pl3     1 UNK         0.0000 
     23 C23         4.2843   53.7199   19.9551 C.ar      1 UNK         0.0000 
     24 N24         3.3861   52.8973   20.5984 N.pl3     1 UNK         0.0000 
     25 N25         5.6511   54.1875   22.0138 N.2       1 UNK         0.0000 
     26 C26         4.7212   54.4735   22.8416 C.2       1 UNK         0.0000 
     27 C27         4.8340   54.3261   24.2947 C.ar      1 UNK         0.0000 
     28 C28         3.6636   54.3171   25.0601 C.ar      1 UNK         0.0000 
     29 C29         3.7204   54.1044   26.4356 C.ar      1 UNK         0.0000 
     30 C30         4.9501   53.9057   27.0651 C.ar      1 UNK         0.0000 
     31 C31         6.1277   53.9630   26.3134 C.ar      1 UNK         0.0000 
     32 C32         6.0700   54.1656   24.9369 C.ar      1 UNK         0.0000 
     33 C33         5.0288   53.6702   28.5737 C.3       1 UNK         0.0000 
     34 C34         3.9958   52.6582   29.1175 C.3       1 UNK         0.0000 
     35 C35         4.9375   55.0058   29.3108 C.3       1 UNK         0.0000 
     36 C36        -1.4192   52.9207   14.9028 C.3       1 UNK         0.0000 
     37 H37        -0.7172   48.1529   16.4672 H         1 UNK         0.0000 
     38 H38         0.9427   47.9959   15.8419 H         1 UNK         0.0000 
     39 H39         0.6406   48.1413   17.5782 H         1 UNK         0.0000 
     40 H40        -1.3407   50.2267   15.3044 H         1 UNK         0.0000 
     41 H41         0.7495   53.8420   16.2074 H         1 UNK         0.0000 
     42 H42         2.2484   50.0663   17.6324 H         1 UNK         0.0000 
     43 H43         3.3219   51.9301   18.1897 H         1 UNK         0.0000 
     44 H44         9.6232   56.8685   19.8271 H         1 UNK         0.0000 
     45 H45        10.6150   57.9638   17.8451 H         1 UNK         0.0000 
     46 H46         9.4284   57.9501   15.6840 H         1 UNK         0.0000 
     47 H47         7.2331   56.8226   15.4618 H         1 UNK         0.0000 
     48 H48         2.5036   52.6567   20.1671 H         1 UNK         0.0000 
     49 H49         3.5114   52.6207   21.5604 H         1 UNK         0.0000 
     50 H50         3.7543   54.8391   22.5019 H         1 UNK         0.0000 
     51 H51         2.6941   54.4559   24.5987 H         1 UNK         0.0000 
     52 H52         2.8027   54.0897   27.0054 H         1 UNK         0.0000 
     53 H53         7.0884   53.8253   26.7876 H         1 UNK         0.0000 
     54 H54         6.9907   54.1830   24.3691 H         1 UNK         0.0000 
     55 H55         6.0146   53.2531   28.7883 H         1 UNK         0.0000 
     56 H56         4.0374   51.7088   28.5860 H         1 UNK         0.0000 
     57 H57         2.9747   53.0327   29.0393 H         1 UNK         0.0000 
     58 H58         4.1798   52.4443   30.1710 H         1 UNK         0.0000 
     59 H59         5.7061   55.6873   28.9493 H         1 UNK         0.0000 
     60 H60         3.9616   55.4757   29.1722 H         1 UNK         0.0000 
     61 H61         5.0995   54.8930   30.3772 H         1 UNK         0.0000 
     62 H62        -1.8479   52.3257   14.0949 H         1 UNK         0.0000 
     63 H63        -2.2237   53.2627   15.5549 H         1 UNK         0.0000 
     64 H64        -0.9529   53.7902   14.4356 H         1 UNK         0.0000 
@<TRIPOS>BOND
     1    1    2 1    
     2    1   37 1    
     3    1   38 1    
     4    1   39 1    
     5    2    7 ar   
     6    2    3 ar   
     7    3    4 ar   
     8    3   40 1    
     9    4    5 ar   
    10    4   36 1    
    11    5    6 ar   
    12    5   41 1    
    13    6    7 ar   
    14    6    8 1    
    15    7   42 1    
    16    8    9 am   BACKBONE|DICT|INTERRES
    17    8   43 1    
    18    9   10 2    
    19    9   11 1    
    20   11   23 ar   
    21   11   12 ar   
    22   12   21 ar   
    23   12   13 ar   
    24   13   14 ar   
    25   13   22 ar   
    26   14   15 ar   
    27   15   20 ar   
    28   15   16 ar   
    29   16   17 ar   
    30   16   44 1    
    31   17   18 ar   
    32   17   45 1    
    33   18   19 ar   
    34   18   46 1    
    35   19   20 ar   
    36   19   47 1    
    37   20   21 ar   
    38   22   23 ar   
    39   22   25 1    
    40   23   24 1    
    41   24   48 1    
    42   24   49 1    
    43   25   26 2    
    44   26   27 1    
    45   26   50 1    
    46   27   32 ar   
    47   27   28 ar   
    48   28   29 ar   
    49   28   51 1    
    50   29   30 ar   
    51   29   52 1    
    52   30   31 ar   
    53   30   33 1    
    54   31   32 ar   
    55   31   53 1    
    56   32   54 1    
    57   33   34 1    
    58   33   35 1    
    59   33   55 1    
    60   34   56 1    
    61   34   57 1    
    62   34   58 1    
    63   35   59 1    
    64   35   60 1    
    65   35   61 1    
    66   36   62 1    
    67   36   63 1    
    68   36   64 1    
@<TRIPOS>SUBSTRUCTURE
     1 UNK         1 GROUP             0       ****    0 ROOT    
