ZINC66981386_1360
                    3D
 Schrodinger Suite 2024-2.
 51 53  0  0  1  0            999 V2000
    2.0375   58.5073   15.6280 C   0  0  0  0  0  0
    2.8507   57.4608   16.3783 C   0  0  0  0  0  0
    2.2763   56.4948   16.8812 O   0  0  0  0  0  0
    4.1784   57.6796   16.4184 N   0  0  0  0  0  0
    5.1672   56.9232   17.0753 C   0  0  0  0  0  0
    4.9108   56.1655   18.2297 C   0  0  0  0  0  0
    5.9564   55.5394   18.9113 C   0  0  0  0  0  0
    7.2526   55.5602   18.3672 C   0  0  0  0  0  0
    7.5018   56.2798   17.1999 C   0  0  0  0  0  0
    6.4730   56.9747   16.5672 C   0  0  0  0  0  0
    6.7535   57.6967   15.4547 F   0  0  0  0  0  0
    8.2755   54.9032   18.9642 F   0  0  0  0  0  0
    5.6685   54.9127   20.1354 N   0  0  0  0  0  0
    6.2601   55.2462   21.3084 C   0  0  0  0  0  0
    7.1055   56.1423   21.3672 O   0  0  0  0  0  0
    5.8717   54.5437   22.4149 N   0  0  0  0  0  0
    4.6513   53.7000   22.4691 C   0  0  0  0  0  0
    3.8177   54.0959   23.7157 C   0  0  0  0  0  0
    4.6369   54.0980   25.0246 C   0  0  0  0  0  0
    5.8468   55.0237   24.8568 C   0  0  0  0  0  0
    6.7060   54.6302   23.6399 C   0  0  0  0  0  0
    3.7768   54.5489   26.2311 N   0  3  0  0  0  0
    2.5108   53.6959   26.4707 C   0  0  0  0  0  0
    2.1756   53.8599   27.9574 C   0  0  0  0  0  0
    3.3963   54.4935   28.6256 C   0  0  0  0  0  0
    4.5127   54.4624   27.5844 C   0  0  0  0  0  0
    2.4304   59.5115   15.8081 H   0  0  0  0  0  0
    0.9977   58.4910   15.9600 H   0  0  0  0  0  0
    2.0607   58.3076   14.5565 H   0  0  0  0  0  0
    4.5270   58.4472   15.8611 H   0  0  0  0  0  0
    3.9128   56.1044   18.6355 H   0  0  0  0  0  0
    8.5030   56.3130   16.7961 H   0  0  0  0  0  0
    4.9409   54.2148   20.1293 H   0  0  0  0  0  0
    4.0068   53.8289   21.5992 H   0  0  0  0  0  0
    4.9642   52.6580   22.5348 H   0  0  0  0  0  0
    3.3839   55.0828   23.5526 H   0  0  0  0  0  0
    2.9457   53.4473   23.8023 H   0  0  0  0  0  0
    5.0114   53.0972   25.2143 H   0  0  0  0  0  0
    6.4595   55.0417   25.7579 H   0  0  0  0  0  0
    5.5089   56.0551   24.7506 H   0  0  0  0  0  0
    7.1554   53.6511   23.8091 H   0  0  0  0  0  0
    7.5042   55.3669   23.5524 H   0  0  0  0  0  0
    1.7314   54.0279   25.7833 H   0  0  0  0  0  0
    2.7805   52.6649   26.2359 H   0  0  0  0  0  0
    1.2906   54.4830   28.0894 H   0  0  0  0  0  0
    1.9478   52.8878   28.3989 H   0  0  0  0  0  0
    3.6885   53.9545   29.5279 H   0  0  0  0  0  0
    3.1836   55.5232   28.9193 H   0  0  0  0  0  0
    5.0569   53.5145   27.5823 H   0  0  0  0  0  0
    5.2301   55.2803   27.6611 H   0  0  0  0  0  0
    3.5006   55.5073   26.0730 H   0  0  0  0  0  0
  1  2  1  0  0  0
  1 27  1  0  0  0
  1 28  1  0  0  0
  1 29  1  0  0  0
  2  3  2  0  0  0
  2  4  1  0  0  0
  4  5  1  0  0  0
  4 30  1  0  0  0
  5 10  2  0  0  0
  5  6  1  0  0  0
  6  7  2  0  0  0
  6 31  1  0  0  0
  7  8  1  0  0  0
  7 13  1  0  0  0
  8  9  2  0  0  0
  8 12  1  0  0  0
  9 10  1  0  0  0
  9 32  1  0  0  0
 10 11  1  0  0  0
 13 14  1  0  0  0
 13 33  1  0  0  0
 14 15  2  0  0  0
 14 16  1  0  0  0
 16 21  1  0  0  0
 16 17  1  0  0  0
 17 18  1  0  0  0
 17 34  1  0  0  0
 17 35  1  0  0  0
 18 19  1  0  0  0
 18 36  1  0  0  0
 18 37  1  0  0  0
 19 20  1  0  0  0
 19 22  1  0  0  0
 19 38  1  0  0  0
 20 21  1  0  0  0
 20 39  1  0  0  0
 20 40  1  0  0  0
 21 41  1  0  0  0
 21 42  1  0  0  0
 22 26  1  0  0  0
 22 23  1  0  0  0
 22 51  1  0  0  0
 23 24  1  0  0  0
 23 43  1  0  0  0
 23 44  1  0  0  0
 24 25  1  0  0  0
 24 45  1  0  0  0
 24 46  1  0  0  0
 25 26  1  0  0  0
 25 47  1  0  0  0
 25 48  1  0  0  0
 26 49  1  0  0  0
 26 50  1  0  0  0
M  CHG  1  22   1
M  END
> <i_i_glide_confnum>
16

> <i_i_glide_lignum>
1361

> <i_i_glide_posenum>
186

> <i_i_glide_rotatable_bonds>
6

> <i_m_Source_File_Index>
2079

> <b_m_subgroup_collapsed>
0

> <r_i_docking_score>
-5.60902

> <r_i_glide_ecoul>
-2.70095

> <r_i_glide_eff_state_penalty>
0

> <r_i_glide_einternal>
3.96307

> <r_i_glide_emodel>
-50.5518

> <r_i_glide_energy>
-36.407

> <r_i_glide_erotb>
0.713312

> <r_i_glide_esite>
-0.0390272

> <r_i_glide_evdw>
-33.7061

> <r_i_glide_gscore>
-5.60902

> <r_i_glide_hbond>
-0.0857175

> <r_i_glide_ligand_efficiency>
-0.215732

> <r_i_glide_ligand_efficiency_ln>
-1.31726

> <r_i_glide_ligand_efficiency_sa>
-0.639104

> <r_i_glide_lipo>
-2.33269

> <r_i_glide_metal>
0

> <r_i_glide_rewards>
-1.77445

> <s_i_glide_gridfile>
wee1_glide-grid

> <s_m_Source_File>
wee1_decoys_glide_SP.sdf

> <s_m_Source_Path>
/Users/zhangxujun/Desktop

> <s_m_entry_id>
2354

> <s_m_entry_name>
wee1_decoys_glide_SP.2079

> <s_m_subgroup_title>
wee1_decoys_glide_SP

> <s_m_subgroupid>
wee1_decoys_glide_SP


$$$$
