ZINC20744650_275
                    3D
 Schrodinger Suite 2024-2.
 53 55  0  0  1  0            999 V2000
    0.3232   54.1303   31.3392 C   0  0  0  0  0  0
    0.9901   52.7510   31.2146 C   0  0  0  0  0  0
    1.0638   52.1934   29.7688 C   0  0  1  0  0  0
    1.6776   51.2967   29.8253 H   0  0  0  0  0  0
   -0.3347   51.7093   29.3354 C   0  0  0  0  0  0
    1.7501   53.1389   28.7216 C   0  0  1  0  0  0
    1.2292   54.0966   28.7674 H   0  0  0  0  0  0
    3.2203   53.4388   29.0817 C   0  0  0  0  0  0
    3.5242   54.0962   30.0804 O   0  0  0  0  0  0
    4.1233   52.8973   28.2333 O   0  0  0  0  0  0
    5.5023   53.2098   28.3239 C   0  0  0  0  0  0
    1.5286   52.6856   27.3173 N   0  0  0  0  0  0
    1.9233   53.2969   26.1740 C   0  0  0  0  0  0
    2.7504   54.2074   26.1975 O   0  0  0  0  0  0
    1.3214   52.9012   25.0154 N   0  0  0  0  0  0
    1.5746   53.7139   23.7866 C   0  0  0  0  0  0
    2.5087   52.9475   22.8199 C   0  0  0  0  0  0
    1.9034   51.5757   22.5803 C   0  0  0  0  0  0
    1.0434   50.9940   23.5031 C   0  0  0  0  0  0
    0.7629   49.7592   22.9877 N   0  0  0  0  0  0
    0.1946   49.0393   23.4115 H   0  0  0  0  0  0
    1.4190   49.7068   21.7843 C   0  0  0  0  0  0
    2.1018   50.7988   21.5268 N   0  0  0  0  0  0
    0.6574   51.5675   24.8610 C   0  0  2  0  0  0
    1.1010   50.9169   25.6150 H   0  0  0  0  0  0
   -0.8474   51.5096   25.1706 C   0  0  0  0  0  0
   -1.2980   50.5476   26.0824 C   0  0  0  0  0  0
   -2.6363   50.4956   26.4664 C   0  0  0  0  0  0
   -3.5546   51.3881   25.9220 C   0  0  0  0  0  0
   -3.1334   52.3275   24.9822 C   0  0  0  0  0  0
   -1.7898   52.3862   24.6027 C   0  0  0  0  0  0
   -1.4278   53.3033   23.6826 F   0  0  0  0  0  0
   -4.0277   53.1881   24.4402 F   0  0  0  0  0  0
   -4.8514   51.3371   26.3023 F   0  0  0  0  0  0
   -0.4800   54.2609   30.6166 H   0  0  0  0  0  0
   -0.0966   54.2598   32.3363 H   0  0  0  0  0  0
    1.0416   54.9344   31.1785 H   0  0  0  0  0  0
    1.9891   52.7993   31.6433 H   0  0  0  0  0  0
    0.4637   52.0443   31.8575 H   0  0  0  0  0  0
   -0.9602   52.5386   29.0148 H   0  0  0  0  0  0
   -0.2611   51.0046   28.5110 H   0  0  0  0  0  0
   -0.8598   51.1897   30.1385 H   0  0  0  0  0  0
    6.0500   52.6877   27.5399 H   0  0  0  0  0  0
    5.6722   54.2815   28.2042 H   0  0  0  0  0  0
    5.9053   52.8991   29.2817 H   0  0  0  0  0  0
    0.8083   51.9849   27.2267 H   0  0  0  0  0  0
    0.6338   53.8921   23.2801 H   0  0  0  0  0  0
    1.9264   54.7233   24.0074 H   0  0  0  0  0  0
    2.6031   53.5004   21.8842 H   0  0  0  0  0  0
    3.5129   52.8974   23.2399 H   0  0  0  0  0  0
    1.3546   48.8279   21.1605 H   0  0  0  0  0  0
   -0.6127   49.8351   26.5224 H   0  0  0  0  0  0
   -2.9508   49.7558   27.1914 H   0  0  0  0  0  0
  1  2  1  0  0  0
  1 35  1  0  0  0
  1 36  1  0  0  0
  1 37  1  0  0  0
  2  3  1  0  0  0
  2 38  1  0  0  0
  2 39  1  0  0  0
  3  4  1  0  0  0
  3  5  1  0  0  0
  3  6  1  0  0  0
  5 40  1  0  0  0
  5 41  1  0  0  0
  5 42  1  0  0  0
  6  7  1  0  0  0
  6  8  1  0  0  0
  6 12  1  0  0  0
  8  9  2  0  0  0
  8 10  1  0  0  0
 10 11  1  0  0  0
 11 43  1  0  0  0
 11 44  1  0  0  0
 11 45  1  0  0  0
 12 13  1  0  0  0
 12 46  1  0  0  0
 13 14  2  0  0  0
 13 15  1  0  0  0
 15 24  1  0  0  0
 15 16  1  0  0  0
 16 17  1  0  0  0
 16 47  1  0  0  0
 16 48  1  0  0  0
 17 18  1  0  0  0
 17 49  1  0  0  0
 17 50  1  0  0  0
 18 23  1  0  0  0
 18 19  2  0  0  0
 19 20  1  0  0  0
 19 24  1  0  0  0
 20 21  1  0  0  0
 20 22  1  0  0  0
 22 23  2  0  0  0
 22 51  1  0  0  0
 24 25  1  0  0  0
 24 26  1  0  0  0
 26 31  2  0  0  0
 26 27  1  0  0  0
 27 28  2  0  0  0
 27 52  1  0  0  0
 28 29  1  0  0  0
 28 53  1  0  0  0
 29 30  2  0  0  0
 29 34  1  0  0  0
 30 31  1  0  0  0
 30 33  1  0  0  0
 31 32  1  0  0  0
M  END
> <i_i_glide_confnum>
129

> <i_i_glide_lignum>
276

> <i_i_glide_posenum>
28

> <i_i_glide_rotatable_bonds>
8

> <i_m_Source_File_Index>
86

> <b_m_subgroup_collapsed>
0

> <r_i_docking_score>
-5.12248

> <r_i_glide_ecoul>
-5.22126

> <r_i_glide_eff_state_penalty>
0

> <r_i_glide_einternal>
7.55343

> <r_i_glide_emodel>
-51.8309

> <r_i_glide_energy>
-42.3582

> <r_i_glide_erotb>
0.660462

> <r_i_glide_esite>
-0.00392716

> <r_i_glide_evdw>
-37.1369

> <r_i_glide_gscore>
-5.12248

> <r_i_glide_hbond>
-0.32

> <r_i_glide_ligand_efficiency>
-0.170749

> <r_i_glide_ligand_efficiency_ln>
-1.16388

> <r_i_glide_ligand_efficiency_sa>
-0.530558

> <r_i_glide_lipo>
-1.25608

> <r_i_glide_metal>
0

> <r_i_glide_rewards>
-1.5629

> <s_i_glide_gridfile>
wee1_glide-grid

> <s_m_Source_File>
wee1_decoys_glide_SP.sdf

> <s_m_Source_Path>
/Users/zhangxujun/Desktop

> <s_m_entry_id>
361

> <s_m_entry_name>
wee1_decoys_glide_SP.86

> <s_m_subgroup_title>
wee1_decoys_glide_SP

> <s_m_subgroupid>
wee1_decoys_glide_SP


$$$$
