@<TRIPOS>MOLECULE
ZINC63376103_5472
65   70    1
SMALL
USER_CHARGES


@<TRIPOS>ATOM
      1 C1          4.1423   54.3951   29.5662 C.3       1 UNK         0.0000 
      2 O2          3.1081   53.4431   29.7792 O.3       1 UNK         0.0000 
      3 C3          2.3407   53.0555   28.6978 C.ar      1 UNK         0.0000 
      4 C4          2.3823   53.6754   27.4440 C.ar      1 UNK         0.0000 
      5 C5          1.6019   53.1959   26.4000 C.ar      1 UNK         0.0000 
      6 C6          0.7708   52.0805   26.5652 C.ar      1 UNK         0.0000 
      7 C7          0.7081   51.4904   27.8389 C.ar      1 UNK         0.0000 
      8 C8          1.4802   51.9782   28.8883 C.ar      1 UNK         0.0000 
      9 C9         -0.0503   51.5408   25.3641 C.3       1 UNK         0.0000 
     10 H10        -0.7383   52.3349   25.0633 H         1 UNK         0.0000 
     11 C11        -0.8938   50.2637   25.7141 C.3       1 UNK         0.0000 
     12 H12        -0.3111   49.5101   26.2510 H         1 UNK         0.0000 
     13 C13        -1.4652   49.6605   24.4526 C.2       1 UNK         0.0000 
     14 C14        -2.8048   49.6670   24.5185 C.2       1 UNK         0.0000 
     15 C15        -3.8359   49.2499   23.5582 C.2       1 UNK         0.0000 
     16 C16        -5.1427   49.3276   23.8807 C.2       1 UNK         0.0000 
     17 C17        -5.4946   49.8269   25.2048 C.2       1 UNK         0.0000 
     18 C18        -4.5501   50.2199   26.1010 C.2       1 UNK         0.0000 
     19 C19        -3.1910   50.1597   25.7678 C.2       1 UNK         0.0000 
     20 N20        -2.1376   50.4958   26.4808 N.pl3     1 UNK         0.0000 
     21 C21        -0.4681   49.2861   23.3697 C.3       1 UNK         0.0000 
     22 C22         0.9398   49.8867   23.6824 C.3       1 UNK         0.0000 
     23 H23         1.4966   49.2951   24.4108 H         1 UNK         0.0000 
     24 N24         0.8060   51.2426   24.1711 N.am      1 UNK         0.0000 
     25 C25         1.2118   52.1374   23.2438 C.2       1 UNK         0.0000 
     26 O26         0.9951   53.3499   23.2500 O.2       1 UNK         0.0000 
     27 N27         1.9009   51.4346   22.2996 N.am      1 UNK         0.0000 
     28 C28         1.8158   50.0964   22.4791 C.2       1 UNK         0.0000 
     29 O29         2.3047   49.1926   21.8032 O.2       1 UNK         0.0000 
     30 C30         2.6815   52.0469   21.2834 C.ar      1 UNK         0.0000 
     31 C31         3.7714   52.8338   21.6976 C.ar      1 UNK         0.0000 
     32 C32         4.6035   53.4558   20.7706 C.ar      1 UNK         0.0000 
     33 C33         4.3646   53.2971   19.4111 C.ar      1 UNK         0.0000 
     34 C34         3.2897   52.5226   18.9783 C.ar      1 UNK         0.0000 
     35 C35         2.4294   51.8904   19.8926 C.ar      1 UNK         0.0000 
     36 C36         1.2530   51.1026   19.3591 C.2       1 UNK         0.0000 
     37 O37         0.1358   51.2073   19.8728 O.2       1 UNK         0.0000 
     38 N38         1.5168   50.2920   18.3186 N.am      1 UNK         0.0000 
     39 C39         0.5444   49.4161   17.6626 C.3       1 UNK         0.0000 
     40 C40         0.6278   47.9470   18.0532 C.2       1 UNK         0.0000 
     41 C41         1.5045   47.3939   18.9125 C.2       1 UNK         0.0000 
     42 H42         3.7433   55.3749   29.3016 H         1 UNK         0.0000 
     43 H43         4.7043   54.5007   30.4868 H         1 UNK         0.0000 
     44 H44         4.8427   54.0716   28.7949 H         1 UNK         0.0000 
     45 H45         3.0181   54.5268   27.2572 H         1 UNK         0.0000 
     46 H46         1.6709   53.7200   25.4631 H         1 UNK         0.0000 
     47 H47         0.0757   50.6429   28.0501 H         1 UNK         0.0000 
     48 H48         1.4226   51.5048   29.8572 H         1 UNK         0.0000 
     49 H49        -3.5753   48.8776   22.5765 H         1 UNK         0.0000 
     50 H50        -5.9116   49.0274   23.1819 H         1 UNK         0.0000 
     51 H51        -6.5369   49.8785   25.4836 H         1 UNK         0.0000 
     52 H52        -4.8677   50.5734   27.0722 H         1 UNK         0.0000 
     53 H53        -0.3746   48.2023   23.2972 H         1 UNK         0.0000 
     54 H54        -0.8367   49.6192   22.3966 H         1 UNK         0.0000 
     55 H55         3.9797   52.9693   22.7502 H         1 UNK         0.0000 
     56 H56         5.4333   54.0598   21.1077 H         1 UNK         0.0000 
     57 H57         5.0117   53.7719   18.6880 H         1 UNK         0.0000 
     58 H58         3.1334   52.4255   17.9122 H         1 UNK         0.0000 
     59 H59         2.4727   50.2219   17.9859 H         1 UNK         0.0000 
     60 H60        -0.4803   49.7577   17.8282 H         1 UNK         0.0000 
     61 H61         0.6880   49.4940   16.5846 H         1 UNK         0.0000 
     62 H62        -0.0984   47.3059   17.5755 H         1 UNK         0.0000 
     63 H63         1.4892   46.3357   19.1229 H         1 UNK         0.0000 
     64 H64         2.2544   47.9880   19.4162 H         1 UNK         0.0000 
     65 H65        -2.1561   50.8290   27.4408 H         1 UNK         0.0000 
@<TRIPOS>BOND
     1    1    2 1    
     2    1   42 1    
     3    1   43 1    
     4    1   44 1    
     5    2    3 1    
     6    3    8 ar   
     7    3    4 ar   
     8    4    5 ar   
     9    4   45 1    
    10    5    6 ar   
    11    5   46 1    
    12    6    7 ar   
    13    6    9 1    
    14    7    8 ar   
    15    7   47 1    
    16    8   48 1    
    17    9   10 1    
    18    9   24 1    
    19    9   11 1    
    20   11   12 1    
    21   11   20 1    
    22   11   13 1    
    23   13   14 2    
    24   13   21 1    
    25   14   19 1    
    26   14   15 1    
    27   15   16 2    
    28   15   49 1    
    29   16   17 1    
    30   16   50 1    
    31   17   18 2    
    32   17   51 1    
    33   18   19 1    
    34   18   52 1    
    35   19   20 2    
    36   20   65 1    
    37   21   22 1    
    38   21   53 1    
    39   21   54 1    
    40   22   23 1    
    41   22   28 1    
    42   22   24 1    
    43   24   25 am   BACKBONE|DICT|INTERRES
    44   25   26 2    
    45   25   27 am   BACKBONE|DICT|INTERRES
    46   27   28 am   BACKBONE|DICT|INTERRES
    47   27   30 1    
    48   28   29 2    
    49   30   35 ar   
    50   30   31 ar   
    51   31   32 ar   
    52   31   55 1    
    53   32   33 ar   
    54   32   56 1    
    55   33   34 ar   
    56   33   57 1    
    57   34   35 ar   
    58   34   58 1    
    59   35   36 1    
    60   36   37 2    
    61   36   38 am   BACKBONE|DICT|INTERRES
    62   38   39 1    
    63   38   59 1    
    64   39   40 1    
    65   39   60 1    
    66   39   61 1    
    67   40   41 2    
    68   40   62 1    
    69   41   63 1    
    70   41   64 1    
@<TRIPOS>SUBSTRUCTURE
     1 UNK         1 GROUP             0       ****    0 ROOT    
