ZINC01003180_3
                    3D
 Schrodinger Suite 2024-2.
 55 58  0  0  1  0            999 V2000
    0.4442   49.7848   22.4163 C   0  0  0  0  0  0
    1.0987   51.1233   22.0155 C   0  0  0  0  0  0
    2.5320   50.8163   21.4836 C   0  0  0  0  0  0
    3.3745   52.0863   21.4296 C   0  0  0  0  0  0
    3.1915   53.1851   22.2066 C   0  0  0  0  0  0
    4.1777   54.3684   22.0952 C   0  0  2  0  0  0
    3.6135   55.2966   22.1648 H   0  0  0  0  0  0
    4.8884   54.3181   20.7369 C   0  0  0  0  0  0
    4.9662   53.1491   20.0726 C   0  0  0  0  0  0
    4.3428   52.0140   20.4794 O   0  0  0  0  0  0
    5.6039   52.8968   18.8934 N   0  0  0  0  0  0
    5.6494   55.4472   20.3055 C   0  0  0  0  0  0
    6.3040   56.3564   20.0136 N   0  0  0  0  0  0
    5.1852   54.3863   23.2359 C   0  0  0  0  0  0
    6.5703   54.4180   23.3080 C   0  0  0  0  0  0
    6.9033   54.4842   24.6547 C   0  0  0  0  0  0
    5.7200   54.5089   25.3647 C   0  0  0  0  0  0
    4.6788   54.4437   24.4966 O   0  0  0  0  0  0
    5.3760   54.5584   26.8284 C   0  0  0  0  0  0
    4.8487   53.2959   27.1991 O   0  0  0  0  0  0
    3.8901   53.2828   28.1780 C   0  0  0  0  0  0
    4.1582   52.5593   29.3341 C   0  0  0  0  0  0
    3.2125   52.4955   30.3490 C   0  0  0  0  0  0
    1.9809   53.1295   30.2035 C   0  0  0  0  0  0
    1.6976   53.8347   29.0221 C   0  0  0  0  0  0
    2.6532   53.9100   28.0107 C   0  0  0  0  0  0
    1.1265   53.0200   31.2789 O   0  0  0  0  0  0
   -0.0952   53.7398   31.2701 C   0  0  0  0  0  0
    2.0462   53.2758   23.1292 C   0  0  0  0  0  0
    1.7395   54.3169   23.7086 O   0  0  0  0  0  0
    1.2059   51.9962   23.3012 C   0  0  0  0  0  0
    0.2835   51.8841   20.9361 C   0  0  0  0  0  0
    0.3585   49.1137   21.5607 H   0  0  0  0  0  0
    1.0187   49.2620   23.1833 H   0  0  0  0  0  0
   -0.5616   49.9363   22.8105 H   0  0  0  0  0  0
    3.0715   50.1273   22.1361 H   0  0  0  0  0  0
    2.4568   50.3567   20.4962 H   0  0  0  0  0  0
    6.0744   53.6149   18.3622 H   0  0  0  0  0  0
    5.5127   51.9614   18.4817 H   0  0  0  0  0  0
    7.2641   54.4050   22.4814 H   0  0  0  0  0  0
    7.9042   54.5059   25.0524 H   0  0  0  0  0  0
    6.2604   54.7607   27.4342 H   0  0  0  0  0  0
    4.6750   55.3647   27.0268 H   0  0  0  0  0  0
    5.1044   52.0544   29.4432 H   0  0  0  0  0  0
    3.4336   51.9568   31.2581 H   0  0  0  0  0  0
    0.7471   54.3235   28.8730 H   0  0  0  0  0  0
    2.4331   54.4403   27.0958 H   0  0  0  0  0  0
   -0.5339   53.6958   32.2666 H   0  0  0  0  0  0
    0.0463   54.7954   31.0332 H   0  0  0  0  0  0
   -0.7940   53.2959   30.5596 H   0  0  0  0  0  0
    1.7185   51.4227   24.0741 H   0  0  0  0  0  0
    0.2307   52.2606   23.7103 H   0  0  0  0  0  0
    0.1589   51.2779   20.0378 H   0  0  0  0  0  0
   -0.7149   52.1305   21.2988 H   0  0  0  0  0  0
    0.7548   52.8180   20.6265 H   0  0  0  0  0  0
  1  2  1  0  0  0
  1 33  1  0  0  0
  1 34  1  0  0  0
  1 35  1  0  0  0
  2 31  1  0  0  0
  2  3  1  0  0  0
  2 32  1  0  0  0
  3  4  1  0  0  0
  3 36  1  0  0  0
  3 37  1  0  0  0
  4 10  1  0  0  0
  4  5  2  0  0  0
  5  6  1  0  0  0
  5 29  1  0  0  0
  6  7  1  0  0  0
  6  8  1  0  0  0
  6 14  1  0  0  0
  8  9  2  0  0  0
  8 12  1  0  0  0
  9 10  1  0  0  0
  9 11  1  0  0  0
 11 38  1  0  0  0
 11 39  1  0  0  0
 12 13  3  0  0  0
 14 18  1  0  0  0
 14 15  2  0  0  0
 15 16  1  0  0  0
 15 40  1  0  0  0
 16 17  2  0  0  0
 16 41  1  0  0  0
 17 18  1  0  0  0
 17 19  1  0  0  0
 19 20  1  0  0  0
 19 42  1  0  0  0
 19 43  1  0  0  0
 20 21  1  0  0  0
 21 26  2  0  0  0
 21 22  1  0  0  0
 22 23  2  0  0  0
 22 44  1  0  0  0
 23 24  1  0  0  0
 23 45  1  0  0  0
 24 25  2  0  0  0
 24 27  1  0  0  0
 25 26  1  0  0  0
 25 46  1  0  0  0
 26 47  1  0  0  0
 27 28  1  0  0  0
 28 48  1  0  0  0
 28 49  1  0  0  0
 28 50  1  0  0  0
 29 30  2  0  0  0
 29 31  1  0  0  0
 31 51  1  0  0  0
 31 52  1  0  0  0
 32 53  1  0  0  0
 32 54  1  0  0  0
 32 55  1  0  0  0
M  END
> <i_i_glide_confnum>
71

> <i_i_glide_lignum>
4

> <i_i_glide_posenum>
87

> <i_i_glide_rotatable_bonds>
6

> <i_m_Source_File_Index>
1733

> <b_m_subgroup_collapsed>
0

> <r_i_docking_score>
-5.13551

> <r_i_glide_ecoul>
-4.17807

> <r_i_glide_eff_state_penalty>
0

> <r_i_glide_einternal>
5.98378

> <r_i_glide_emodel>
-56.3803

> <r_i_glide_energy>
-48.1158

> <r_i_glide_erotb>
0.447835

> <r_i_glide_esite>
-0.1

> <r_i_glide_evdw>
-43.9377

> <r_i_glide_gscore>
-5.13551

> <r_i_glide_hbond>
-0.162561

> <r_i_glide_ligand_efficiency>
-0.165662

> <r_i_glide_ligand_efficiency_ln>
-1.15822

> <r_i_glide_ligand_efficiency_sa>
-0.520406

> <r_i_glide_lipo>
-2.78913

> <r_i_glide_metal>
0

> <r_i_glide_rewards>
0.291945

> <s_i_glide_gridfile>
wee1_glide-grid

> <s_m_Source_File>
wee1_decoys_glide_SP.sdf

> <s_m_Source_Path>
/Users/zhangxujun/Desktop

> <s_m_entry_id>
2008

> <s_m_entry_name>
wee1_decoys_glide_SP.1733

> <s_m_subgroup_title>
wee1_decoys_glide_SP

> <s_m_subgroupid>
wee1_decoys_glide_SP


$$$$
