@<TRIPOS>MOLECULE
ZINC31827737_4337
65   68    1
SMALL
USER_CHARGES


@<TRIPOS>ATOM
      1 C1          6.2079   58.4024   17.1842 C.3       1 UNK         0.0000 
      2 C2          6.8305   58.1273   18.5719 C.3       1 UNK         0.0000 
      3 C3          6.3182   56.8896   19.3273 C.2       1 UNK         0.0000 
      4 O4          6.7012   56.7281   20.4856 O.2       1 UNK         0.0000 
      5 N5          5.4697   56.0694   18.6704 N.am      1 UNK         0.0000 
      6 C6          4.8434   54.8767   19.0768 C.ar      1 UNK         0.0000 
      7 C7          5.0701   54.2067   20.2892 C.ar      1 UNK         0.0000 
      8 C8          4.4037   53.0088   20.5598 C.ar      1 UNK         0.0000 
      9 C9          3.5019   52.4611   19.6345 C.ar      1 UNK         0.0000 
     10 C10         3.2743   53.1513   18.4366 C.ar      1 UNK         0.0000 
     11 C11         3.9385   54.3422   18.1614 C.ar      1 UNK         0.0000 
     12 C12         2.8097   51.1117   19.9313 C.3       1 UNK         0.0000 
     13 H13         3.6226   50.3856   19.8830 H         1 UNK         0.0000 
     14 C14         1.7667   50.6653   18.8759 C.3       1 UNK         0.0000 
     15 N15         2.2687   51.0557   21.2987 N.am      1 UNK         0.0000 
     16 C16         1.8748   49.9478   21.9634 C.2       1 UNK         0.0000 
     17 O17         1.9195   48.8401   21.4399 O.2       1 UNK         0.0000 
     18 C18         1.4055   50.0808   23.4391 C.3       1 UNK         0.0000 
     19 H19         2.2616   49.6969   23.9942 H         1 UNK         0.0000 
     20 C20         0.2076   49.1682   23.7768 C.3       1 UNK         0.0000 
     21 C21        -0.1685   49.3917   25.2524 C.3       1 UNK         0.0000 
     22 C22        -0.4804   50.8682   25.5861 C.3       1 UNK         0.0000 
     23 N23         0.7046   51.6880   25.2262 N.am      1 UNK         0.0000 
     24 C24         1.1962   51.5567   23.8328 C.3       1 UNK         0.0000 
     25 C25         1.1633   52.6359   26.1061 C.2       1 UNK         0.0000 
     26 O26         0.6138   52.8434   27.1905 O.2       1 UNK         0.0000 
     27 C27         2.4227   53.4356   25.7697 C.ar      1 UNK         0.0000 
     28 C28         2.5467   54.0424   24.5116 C.ar      1 UNK         0.0000 
     29 C29         3.7650   54.4971   24.0451 C.ar      1 UNK         0.0000 
     30 C30         4.8667   54.5547   24.8806 C.ar      1 UNK         0.0000 
     31 C31         4.7585   54.1391   26.2254 C.ar      1 UNK         0.0000 
     32 C32         3.5297   53.5585   26.6930 C.ar      1 UNK         0.0000 
     33 C33         3.5032   53.1078   28.0499 C.ar      1 UNK         0.0000 
     34 C34         4.6075   53.2508   28.8821 C.ar      1 UNK         0.0000 
     35 C35         5.7762   53.8343   28.4146 C.ar      1 UNK         0.0000 
     36 C36         5.8647   54.2703   27.1019 C.ar      1 UNK         0.0000 
     37 H37         6.6555   59.2968   16.7522 H         1 UNK         0.0000 
     38 H38         5.1365   58.6055   17.2521 H         1 UNK         0.0000 
     39 H39         6.3890   57.5899   16.4790 H         1 UNK         0.0000 
     40 H40         7.9126   58.0314   18.4674 H         1 UNK         0.0000 
     41 H41         6.6652   59.0028   19.2031 H         1 UNK         0.0000 
     42 H42         5.2378   56.3603   17.7330 H         1 UNK         0.0000 
     43 H43         5.7647   54.5836   21.0212 H         1 UNK         0.0000 
     44 H44         4.6073   52.4957   21.4881 H         1 UNK         0.0000 
     45 H45         2.5927   52.7753   17.6891 H         1 UNK         0.0000 
     46 H46         3.7419   54.8405   17.2238 H         1 UNK         0.0000 
     47 H47         2.2270   50.5542   17.8920 H         1 UNK         0.0000 
     48 H48         1.3350   49.6949   19.1122 H         1 UNK         0.0000 
     49 H49         0.9466   51.3770   18.8015 H         1 UNK         0.0000 
     50 H50         2.2505   51.9394   21.7810 H         1 UNK         0.0000 
     51 H51        -0.6711   49.4366   23.1849 H         1 UNK         0.0000 
     52 H52         0.4559   48.1073   23.6753 H         1 UNK         0.0000 
     53 H53        -1.0401   48.7808   25.5006 H         1 UNK         0.0000 
     54 H54         0.6258   49.0255   25.9055 H         1 UNK         0.0000 
     55 H55        -1.3343   51.2098   24.9997 H         1 UNK         0.0000 
     56 H56        -0.7254   50.9165   26.6500 H         1 UNK         0.0000 
     57 H57         2.2093   51.9337   23.7262 H         1 UNK         0.0000 
     58 H58         0.4747   52.0348   23.1668 H         1 UNK         0.0000 
     59 H59         1.7117   54.0646   23.8234 H         1 UNK         0.0000 
     60 H60         3.8399   54.8685   23.0328 H         1 UNK         0.0000 
     61 H61         5.8032   54.9545   24.5155 H         1 UNK         0.0000 
     62 H62         2.6231   52.6370   28.4595 H         1 UNK         0.0000 
     63 H63         4.5533   52.9001   29.9016 H         1 UNK         0.0000 
     64 H64         6.6270   53.9491   29.0712 H         1 UNK         0.0000 
     65 H65         6.7809   54.7134   26.7447 H         1 UNK         0.0000 
@<TRIPOS>BOND
     1    1    2 1    
     2    1   37 1    
     3    1   38 1    
     4    1   39 1    
     5    2    3 1    
     6    2   40 1    
     7    2   41 1    
     8    3    4 2    
     9    3    5 am   BACKBONE|DICT|INTERRES
    10    5    6 1    
    11    5   42 1    
    12    6   11 ar   
    13    6    7 ar   
    14    7    8 ar   
    15    7   43 1    
    16    8    9 ar   
    17    8   44 1    
    18    9   10 ar   
    19    9   12 1    
    20   10   11 ar   
    21   10   45 1    
    22   11   46 1    
    23   12   13 1    
    24   12   14 1    
    25   12   15 1    
    26   14   47 1    
    27   14   48 1    
    28   14   49 1    
    29   15   16 am   BACKBONE|DICT|INTERRES
    30   15   50 1    
    31   16   17 2    
    32   16   18 1    
    33   18   19 1    
    34   18   24 1    
    35   18   20 1    
    36   20   21 1    
    37   20   51 1    
    38   20   52 1    
    39   21   22 1    
    40   21   53 1    
    41   21   54 1    
    42   22   23 1    
    43   22   55 1    
    44   22   56 1    
    45   23   24 1    
    46   23   25 am   BACKBONE|DICT|INTERRES
    47   24   57 1    
    48   24   58 1    
    49   25   26 2    
    50   25   27 1    
    51   27   32 ar   
    52   27   28 ar   
    53   28   29 ar   
    54   28   59 1    
    55   29   30 ar   
    56   29   60 1    
    57   30   31 ar   
    58   30   61 1    
    59   31   36 ar   
    60   31   32 ar   
    61   32   33 ar   
    62   33   34 ar   
    63   33   62 1    
    64   34   35 ar   
    65   34   63 1    
    66   35   36 ar   
    67   35   64 1    
    68   36   65 1    
@<TRIPOS>SUBSTRUCTURE
     1 UNK         1 GROUP             0       ****    0 ROOT    
