@<TRIPOS>MOLECULE
ZINC13079358_2592
40   42    1
SMALL
USER_CHARGES


@<TRIPOS>ATOM
      1 C1          4.8154   54.0962   23.4422 C.ar      1 UNK         0.0000 
      2 C2          5.9743   54.5772   24.0475 C.ar      1 UNK         0.0000 
      3 C3          5.9854   54.8234   25.4164 C.ar      1 UNK         0.0000 
      4 C4          4.8528   54.5881   26.1863 C.ar      1 UNK         0.0000 
      5 C5          3.6967   54.0976   25.5856 C.ar      1 UNK         0.0000 
      6 C6          3.6660   53.8467   24.2072 C.ar      1 UNK         0.0000 
      7 C7          2.4151   53.2919   23.5933 C.2       1 UNK         0.0000 
      8 C8          1.1191   53.2664   24.1071 C.2       1 UNK         0.0000 
      9 C9          0.1915   52.6241   23.2832 C.2       1 UNK         0.0000 
     10 C10         0.7617   52.1097   22.1250 C.2       1 UNK         0.0000 
     11 S11         2.4591   52.4875   22.0422 S.3       1 UNK         0.0000 
     12 C12         0.0804   51.4477   21.0473 C.2       1 UNK         0.0000 
     13 O13        -1.0713   51.7660   20.7383 O.2       1 UNK         0.0000 
     14 N14         0.7834   50.4477   20.4784 N.am      1 UNK         0.0000 
     15 N15         0.3133   49.7315   19.3888 N.pl3     1 UNK         0.0000 
     16 S16        -0.9030   48.4981   19.7608 S.o2      1 UNK         0.0000 
     17 O17        -2.1386   48.8837   19.0726 O.2       1 UNK         0.0000 
     18 O18        -0.8966   48.2448   21.2076 O.2       1 UNK         0.0000 
     19 C19        -0.3365   46.9942   18.9715 C.ar      1 UNK         0.0000 
     20 C20         0.2500   47.0368   17.7059 C.ar      1 UNK         0.0000 
     21 C21         0.6728   45.8556   17.1008 C.ar      1 UNK         0.0000 
     22 C22         0.5199   44.6292   17.7493 C.ar      1 UNK         0.0000 
     23 C23        -0.0580   44.5693   19.0330 C.ar      1 UNK         0.0000 
     24 C24        -0.4957   45.7693   19.6196 C.ar      1 UNK         0.0000 
     25 C25        -0.2228   43.2769   19.7825 C.2       1 UNK         0.0000 
     26 O26        -0.8964   43.2965   20.8391 O.co2     1 UNK         0.0000 
     27 F27         0.9457   43.5190   17.1019 F         1 UNK         0.0000 
     28 F28         7.1043   55.2976   26.0058 F         1 UNK         0.0000 
     29 H29         4.8192   53.9183   22.3766 H         1 UNK         0.0000 
     30 H30         6.8614   54.7656   23.4575 H         1 UNK         0.0000 
     31 H31         4.8717   54.7804   27.2490 H         1 UNK         0.0000 
     32 H32         2.8321   53.8983   26.2009 H         1 UNK         0.0000 
     33 H33         0.8467   53.6970   25.0581 H         1 UNK         0.0000 
     34 H34        -0.8566   52.5302   23.5290 H         1 UNK         0.0000 
     35 H35         1.7532   50.2906   20.7070 H         1 UNK         0.0000 
     36 H36         0.0038   50.3727   18.6528 H         1 UNK         0.0000 
     37 H37         0.3791   47.9758   17.1892 H         1 UNK         0.0000 
     38 H38         1.1260   45.8880   16.1199 H         1 UNK         0.0000 
     39 H39        -0.9502   45.7588   20.6016 H         1 UNK         0.0000 
     40 O40         0.3036   42.2251   19.3442 O.co2     1 UNK         0.0000 
@<TRIPOS>BOND
     1    1    6 ar   
     2    1    2 ar   
     3    1   29 1    
     4    2    3 ar   
     5    2   30 1    
     6    3    4 ar   
     7    3   28 1    
     8    4    5 ar   
     9    4   31 1    
    10    5    6 ar   
    11    5   32 1    
    12    6    7 1    
    13    7   11 1    
    14    7    8 2    
    15    8    9 1    
    16    8   33 1    
    17    9   10 2    
    18    9   34 1    
    19   10   11 1    
    20   10   12 1    
    21   12   13 2    
    22   12   14 am   BACKBONE|DICT|INTERRES
    23   14   15 1    
    24   14   35 1    
    25   15   16 1    
    26   15   36 1    
    27   16   17 2    
    28   16   18 2    
    29   16   19 1    
    30   19   24 ar   
    31   19   20 ar   
    32   20   21 ar   
    33   20   37 1    
    34   21   22 ar   
    35   21   38 1    
    36   22   23 ar   
    37   22   27 1    
    38   23   24 ar   
    39   23   25 1    
    40   24   39 1    
    41   25   26 2    
    42   25   40 1    
@<TRIPOS>SUBSTRUCTURE
     1 UNK         1 GROUP             0       ****    0 ROOT    
