@<TRIPOS>MOLECULE
ZINC10505158_3606
45   47    1
SMALL
USER_CHARGES


@<TRIPOS>ATOM
      1 C1          5.1428   54.2049   25.1638 C.ar      1 UNK         0.0000 
      2 C2          3.9067   54.0963   25.7980 C.ar      1 UNK         0.0000 
      3 C3          2.7581   53.8819   25.0375 C.ar      1 UNK         0.0000 
      4 C4          2.8532   53.7897   23.6496 C.ar      1 UNK         0.0000 
      5 C5          4.0940   53.8975   23.0186 C.ar      1 UNK         0.0000 
      6 C6          5.2429   54.0978   23.7793 C.ar      1 UNK         0.0000 
      7 N7          1.6969   53.6253   22.8854 N.pl3     1 UNK         0.0000 
      8 S8          1.3520   52.1344   21.9955 S.o2      1 UNK         0.0000 
      9 O9          2.6340   51.5075   21.6552 O.2       1 UNK         0.0000 
     10 O10         0.3816   52.4965   20.9577 O.2       1 UNK         0.0000 
     11 C11         0.4997   51.0625   23.1446 C.ar      1 UNK         0.0000 
     12 C12        -0.8826   51.1731   23.3020 C.ar      1 UNK         0.0000 
     13 C13        -1.5541   50.2988   24.1518 C.ar      1 UNK         0.0000 
     14 C14        -0.8366   49.3200   24.8435 C.ar      1 UNK         0.0000 
     15 C15         0.5469   49.2400   24.7260 C.ar      1 UNK         0.0000 
     16 C16         1.2134   50.0979   23.8563 C.ar      1 UNK         0.0000 
     17 N17        -1.5005   48.4166   25.6815 N.pl3     1 UNK         0.0000 
     18 C18        -2.3452   47.3957   25.3533 C.2       1 UNK         0.0000 
     19 S19        -2.6460   46.8966   23.7683 S.2       1 UNK         0.0000 
     20 N20        -2.9186   46.8981   26.4927 N.am      1 UNK         0.0000 
     21 C21        -3.9264   46.0168   26.6943 C.2       1 UNK         0.0000 
     22 O22        -4.0959   44.9997   26.0145 O.2       1 UNK         0.0000 
     23 C23        -4.8961   46.3568   27.8114 C.ar      1 UNK         0.0000 
     24 C24        -4.6246   47.3593   28.7652 C.ar      1 UNK         0.0000 
     25 C25        -5.5603   47.6890   29.7471 C.ar      1 UNK         0.0000 
     26 C26        -6.7816   47.0208   29.8007 C.ar      1 UNK         0.0000 
     27 C27        -7.0661   46.0247   28.8692 C.ar      1 UNK         0.0000 
     28 C28        -6.1324   45.6951   27.8859 C.ar      1 UNK         0.0000 
     29 Cl29       -8.5725   45.1867   28.9448 Cl        1 UNK         0.0000 
     30 Cl30       -5.2162   48.9440   30.8795 Cl        1 UNK         0.0000 
     31 H31         6.0317   54.3587   25.7562 H         1 UNK         0.0000 
     32 H32         3.8396   54.1666   26.8738 H         1 UNK         0.0000 
     33 H33         1.7978   53.8003   25.5280 H         1 UNK         0.0000 
     34 H34         4.1649   53.8272   21.9431 H         1 UNK         0.0000 
     35 H35         6.2062   54.1771   23.2965 H         1 UNK         0.0000 
     36 H36         1.0929   54.4160   22.7306 H         1 UNK         0.0000 
     37 H37        -1.4421   51.9162   22.7520 H         1 UNK         0.0000 
     38 H38        -2.6265   50.3678   24.2590 H         1 UNK         0.0000 
     39 H39         1.1033   48.4957   25.2777 H         1 UNK         0.0000 
     40 H40         2.2836   50.0030   23.7347 H         1 UNK         0.0000 
     41 H41        -1.2936   48.5034   26.6752 H         1 UNK         0.0000 
     42 H42        -2.7206   47.4794   27.3019 H         1 UNK         0.0000 
     43 H43        -3.6956   47.9103   28.7609 H         1 UNK         0.0000 
     44 H44        -7.5098   47.2807   30.5557 H         1 UNK         0.0000 
     45 H45        -6.3887   44.9249   27.1695 H         1 UNK         0.0000 
@<TRIPOS>BOND
     1    1    6 ar   
     2    1    2 ar   
     3    1   31 1    
     4    2    3 ar   
     5    2   32 1    
     6    3    4 ar   
     7    3   33 1    
     8    4    5 ar   
     9    4    7 1    
    10    5    6 ar   
    11    5   34 1    
    12    6   35 1    
    13    7    8 1    
    14    7   36 1    
    15    8    9 2    
    16    8   10 2    
    17    8   11 1    
    18   11   16 ar   
    19   11   12 ar   
    20   12   13 ar   
    21   12   37 1    
    22   13   14 ar   
    23   13   38 1    
    24   14   15 ar   
    25   14   17 1    
    26   15   16 ar   
    27   15   39 1    
    28   16   40 1    
    29   17   18 1    
    30   17   41 1    
    31   18   19 2    
    32   18   20 am   BACKBONE|DICT|INTERRES
    33   20   21 am   BACKBONE|DICT|INTERRES
    34   20   42 1    
    35   21   22 2    
    36   21   23 1    
    37   23   28 ar   
    38   23   24 ar   
    39   24   25 ar   
    40   24   43 1    
    41   25   26 ar   
    42   25   30 1    
    43   26   27 ar   
    44   26   44 1    
    45   27   28 ar   
    46   27   29 1    
    47   28   45 1    
@<TRIPOS>SUBSTRUCTURE
     1 UNK         1 GROUP             0       ****    0 ROOT    
