@<TRIPOS>MOLECULE
ZINC40220895_4728
32   32    1
SMALL
USER_CHARGES


@<TRIPOS>ATOM
      1 C1          3.7533   53.3767   18.2417 C.3       1 UNK         0.0000 
      2 C2          4.6829   53.4661   19.4613 C.3       1 UNK         0.0000 
      3 C3          5.8045   54.5004   19.2430 C.3       1 UNK         0.0000 
      4 N4          3.9064   53.7412   20.6715 N.am      1 UNK         0.0000 
      5 C5          4.3251   53.5296   21.9293 C.2       1 UNK         0.0000 
      6 O6          5.3504   52.9086   22.2135 O.2       1 UNK         0.0000 
      7 N7          3.4975   54.0972   22.8246 N.am      1 UNK         0.0000 
      8 C8          3.6076   54.0265   24.2238 C.ar      1 UNK         0.0000 
      9 C9          4.8349   54.2125   24.8788 C.ar      1 UNK         0.0000 
     10 C10         4.9150   54.1210   26.2685 C.ar      1 UNK         0.0000 
     11 C11         3.7644   53.8746   27.0230 C.ar      1 UNK         0.0000 
     12 C12         2.5394   53.6946   26.3744 C.ar      1 UNK         0.0000 
     13 C13         2.4572   53.7598   24.9806 C.ar      1 UNK         0.0000 
     14 Br14        0.7571   53.5159   24.1446 Br        1 UNK         0.0000 
     15 S15         3.8466   53.7854   28.8118 S.o2      1 UNK         0.0000 
     16 O16         2.5864   54.3203   29.3369 O.2       1 UNK         0.0000 
     17 O17         4.3047   52.4409   29.1691 O.2       1 UNK         0.0000 
     18 N18         5.1005   54.8960   29.2822 N.pl3     1 UNK         0.0000 
     19 H19         4.3265   53.1921   17.3321 H         1 UNK         0.0000 
     20 H20         3.2011   54.3040   18.0831 H         1 UNK         0.0000 
     21 H21         3.0460   52.5519   18.3378 H         1 UNK         0.0000 
     22 H22         5.1474   52.4813   19.5670 H         1 UNK         0.0000 
     23 H23         6.3593   54.2803   18.3302 H         1 UNK         0.0000 
     24 H24         5.4016   55.5077   19.1289 H         1 UNK         0.0000 
     25 H25         6.5245   54.5014   20.0620 H         1 UNK         0.0000 
     26 H26         2.9735   54.1024   20.5183 H         1 UNK         0.0000 
     27 H27         2.6498   54.5135   22.4707 H         1 UNK         0.0000 
     28 H28         5.7325   54.4119   24.3114 H         1 UNK         0.0000 
     29 H29         5.8741   54.2449   26.7496 H         1 UNK         0.0000 
     30 H30         1.6463   53.4980   26.9511 H         1 UNK         0.0000 
     31 H31         4.9013   55.8724   29.0624 H         1 UNK         0.0000 
     32 H32         6.0564   54.6185   29.0480 H         1 UNK         0.0000 
@<TRIPOS>BOND
     1    1    2 1    
     2    1   19 1    
     3    1   20 1    
     4    1   21 1    
     5    2    3 1    
     6    2    4 1    
     7    2   22 1    
     8    3   23 1    
     9    3   24 1    
    10    3   25 1    
    11    4    5 am   BACKBONE|DICT|INTERRES
    12    4   26 1    
    13    5    6 2    
    14    5    7 am   BACKBONE|DICT|INTERRES
    15    7    8 1    
    16    7   27 1    
    17    8   13 ar   
    18    8    9 ar   
    19    9   10 ar   
    20    9   28 1    
    21   10   11 ar   
    22   10   29 1    
    23   11   12 ar   
    24   11   15 1    
    25   12   13 ar   
    26   12   30 1    
    27   13   14 1    
    28   15   16 2    
    29   15   17 2    
    30   15   18 1    
    31   18   31 1    
    32   18   32 1    
@<TRIPOS>SUBSTRUCTURE
     1 UNK         1 GROUP             0       ****    0 ROOT    
