@<TRIPOS>MOLECULE
ZINC59882607_5170
50   53    1
SMALL
USER_CHARGES


@<TRIPOS>ATOM
      1 C1          6.8176   54.4983   27.2925 C.ar      1 UNK         0.0000 
      2 C2          6.4087   55.2611   26.2017 C.ar      1 UNK         0.0000 
      3 C3          5.1523   55.0422   25.6519 C.ar      1 UNK         0.0000 
      4 C4          4.3281   54.0367   26.1626 C.ar      1 UNK         0.0000 
      5 C5          4.7386   53.2968   27.2789 C.ar      1 UNK         0.0000 
      6 C6          5.9807   53.5372   27.8488 C.ar      1 UNK         0.0000 
      7 N7          3.1186   53.6970   25.5056 N.pl3     1 UNK         0.0000 
      8 C8          1.8959   53.3577   26.0643 C.ar      1 UNK         0.0000 
      9 N9          1.0655   52.9510   25.1338 N.2       1 UNK         0.0000 
     10 N10         1.7042   53.0803   23.9117 N.2       1 UNK         0.0000 
     11 C11         2.9192   53.5119   24.1431 C.ar      1 UNK         0.0000 
     12 S12         4.1659   53.7305   22.9020 S.3       1 UNK         0.0000 
     13 C13         3.3214   53.1451   21.4014 C.3       1 UNK         0.0000 
     14 C14         4.1698   53.2879   20.1308 C.2       1 UNK         0.0000 
     15 O15         5.3505   53.6430   20.1944 O.2       1 UNK         0.0000 
     16 N16         3.5366   52.9907   18.9784 N.am      1 UNK         0.0000 
     17 N17         4.2969   52.8967   17.8189 N.am      1 UNK         0.0000 
     18 C18         4.2214   53.8615   16.8790 C.2       1 UNK         0.0000 
     19 O19         3.5493   54.8892   16.9984 O.2       1 UNK         0.0000 
     20 C20         5.0397   53.6607   15.5857 C.3       1 UNK         0.0000 
     21 C21         6.4517   53.0631   15.7729 C.3       1 UNK         0.0000 
     22 C22         6.1779   52.2647   14.4848 C.3       1 UNK         0.0000 
     23 C23         4.6750   52.3850   14.8001 C.3       1 UNK         0.0000 
     24 C24         1.5159   53.4356   27.5150 C.ar      1 UNK         0.0000 
     25 C25         1.9208   54.5251   28.2940 C.ar      1 UNK         0.0000 
     26 C26         1.5502   54.6091   29.6334 C.ar      1 UNK         0.0000 
     27 C27         0.7753   53.6005   30.1983 C.ar      1 UNK         0.0000 
     28 C28         0.3508   52.5198   29.4297 C.ar      1 UNK         0.0000 
     29 C29         0.7162   52.4419   28.0873 C.ar      1 UNK         0.0000 
     30 Br30        0.3037   53.6985   32.0378 Br        1 UNK         0.0000 
     31 H31         7.7903   54.6676   27.7272 H         1 UNK         0.0000 
     32 H32         7.0585   56.0145   25.7796 H         1 UNK         0.0000 
     33 H33         4.8517   55.6343   24.8029 H         1 UNK         0.0000 
     34 H34         4.1209   52.5037   27.6800 H         1 UNK         0.0000 
     35 H35         6.3064   52.9627   28.7028 H         1 UNK         0.0000 
     36 H36         2.3894   53.6960   21.2813 H         1 UNK         0.0000 
     37 H37         3.0693   52.0927   21.5344 H         1 UNK         0.0000 
     38 H38         2.6269   52.5626   18.9083 H         1 UNK         0.0000 
     39 H39         4.7076   51.9741   17.6827 H         1 UNK         0.0000 
     40 H40         5.0299   54.5592   14.9654 H         1 UNK         0.0000 
     41 H41         6.5873   52.4058   16.6347 H         1 UNK         0.0000 
     42 H42         7.2778   53.7753   15.7280 H         1 UNK         0.0000 
     43 H43         6.5747   51.2487   14.4661 H         1 UNK         0.0000 
     44 H44         6.4810   52.7839   13.5719 H         1 UNK         0.0000 
     45 H45         4.0125   52.5250   13.9446 H         1 UNK         0.0000 
     46 H46         4.3154   51.5449   15.4010 H         1 UNK         0.0000 
     47 H47         2.5167   55.3140   27.8617 H         1 UNK         0.0000 
     48 H48         1.8596   55.4554   30.2290 H         1 UNK         0.0000 
     49 H49        -0.2592   51.7443   29.8713 H         1 UNK         0.0000 
     50 H50         0.3792   51.6020   27.4979 H         1 UNK         0.0000 
@<TRIPOS>BOND
     1    1    6 ar   
     2    1    2 ar   
     3    1   31 1    
     4    2    3 ar   
     5    2   32 1    
     6    3    4 ar   
     7    3   33 1    
     8    4    5 ar   
     9    4    7 1    
    10    5    6 ar   
    11    5   34 1    
    12    6   35 1    
    13    7   11 ar   
    14    7    8 ar   
    15    8    9 ar   
    16    8   24 1    
    17    9   10 ar   
    18   10   11 ar   
    19   11   12 1    
    20   12   13 1    
    21   13   14 1    
    22   13   36 1    
    23   13   37 1    
    24   14   15 2    
    25   14   16 am   BACKBONE|DICT|INTERRES
    26   16   17 1    
    27   16   38 1    
    28   17   18 am   BACKBONE|DICT|INTERRES
    29   17   39 1    
    30   18   19 2    
    31   18   20 1    
    32   20   23 1    
    33   20   21 1    
    34   20   40 1    
    35   21   22 1    
    36   21   41 1    
    37   21   42 1    
    38   22   23 1    
    39   22   43 1    
    40   22   44 1    
    41   23   45 1    
    42   23   46 1    
    43   24   29 ar   
    44   24   25 ar   
    45   25   26 ar   
    46   25   47 1    
    47   26   27 ar   
    48   26   48 1    
    49   27   28 ar   
    50   27   30 1    
    51   28   29 ar   
    52   28   49 1    
    53   29   50 1    
@<TRIPOS>SUBSTRUCTURE
     1 UNK         1 GROUP             0       ****    0 ROOT    
