@<TRIPOS>MOLECULE
ZINC45936509_2268
49   53    1
SMALL
USER_CHARGES


@<TRIPOS>ATOM
      1 C1          4.8002   54.6142   29.6497 C.3       1 UNK         0.0000 
      2 C2          3.6708   54.1067   28.7925 C.2       1 UNK         0.0000 
      3 C3          3.6334   53.9666   27.4048 C.2       1 UNK         0.0000 
      4 S4          2.0828   53.2967   26.9854 S.3       1 UNK         0.0000 
      5 C5          1.6479   53.2723   28.6584 C.2       1 UNK         0.0000 
      6 N6          2.5834   53.7357   29.4436 N.2       1 UNK         0.0000 
      7 C7          0.3176   52.7714   29.1669 C.3       1 UNK         0.0000 
      8 C8          4.6233   54.2541   26.3770 C.2       1 UNK         0.0000 
      9 N9          5.8648   54.6566   26.5184 N.2       1 UNK         0.0000 
     10 N10         6.4042   54.7121   25.2342 N.2       1 UNK         0.0000 
     11 C11         5.4340   54.3671   24.4242 C.2       1 UNK         0.0000 
     12 O12         4.2883   54.0646   25.0779 O.3       1 UNK         0.0000 
     13 S13         5.5039   54.0698   22.6876 S.3       1 UNK         0.0000 
     14 C14         3.7793   54.4754   22.2366 C.3       1 UNK         0.0000 
     15 C15         2.7973   53.3348   22.4284 C.ar      1 UNK         0.0000 
     16 N16         3.0086   52.2297   21.6766 N.ar      1 UNK         0.0000 
     17 C17         2.1718   51.1858   21.8806 C.ar      1 UNK         0.0000 
     18 C18         1.1417   51.2389   22.8545 C.ar      1 UNK         0.0000 
     19 C19         0.2068   50.2766   23.3472 C.2       1 UNK         0.0000 
     20 C20        -0.6553   50.8111   24.3028 C.2       1 UNK         0.0000 
     21 S21        -0.3608   52.4970   24.6181 S.3       1 UNK         0.0000 
     22 C22         1.0005   52.4897   23.5161 C.ar      1 UNK         0.0000 
     23 N23         1.7989   53.5433   23.3285 N.ar      1 UNK         0.0000 
     24 C24        -1.7081   50.0152   25.0730 C.3       1 UNK         0.0000 
     25 C25        -1.9539   48.6616   24.3625 C.3       1 UNK         0.0000 
     26 H26        -2.4092   48.0031   25.1057 H         1 UNK         0.0000 
     27 C27        -0.6075   48.0017   23.9892 C.3       1 UNK         0.0000 
     28 C28         0.1654   48.8216   22.9298 C.3       1 UNK         0.0000 
     29 C29        -2.9557   48.7606   23.1947 C.3       1 UNK         0.0000 
     30 N30         2.3904   50.0747   21.0672 N.pl3     1 UNK         0.0000 
     31 H31         4.8371   55.6965   29.6810 H         1 UNK         0.0000 
     32 H32         4.7043   54.2833   30.6808 H         1 UNK         0.0000 
     33 H33         5.7701   54.2801   29.2809 H         1 UNK         0.0000 
     34 H34        -0.4964   53.3731   28.7675 H         1 UNK         0.0000 
     35 H35         0.2386   52.8072   30.2548 H         1 UNK         0.0000 
     36 H36         0.1340   51.7387   28.8670 H         1 UNK         0.0000 
     37 H37         3.4575   55.2969   22.8610 H         1 UNK         0.0000 
     38 H38         3.7349   54.8340   21.2089 H         1 UNK         0.0000 
     39 H39        -1.3700   49.8274   26.0946 H         1 UNK         0.0000 
     40 H40        -2.6388   50.5782   25.1596 H         1 UNK         0.0000 
     41 H41         0.0115   47.8814   24.8820 H         1 UNK         0.0000 
     42 H42        -0.7877   47.0019   23.5932 H         1 UNK         0.0000 
     43 H43        -0.2706   48.7033   21.9366 H         1 UNK         0.0000 
     44 H44         1.2006   48.4966   22.8816 H         1 UNK         0.0000 
     45 H45        -2.6063   49.4434   22.4191 H         1 UNK         0.0000 
     46 H46        -3.1162   47.7869   22.7302 H         1 UNK         0.0000 
     47 H47        -3.9254   49.1228   23.5387 H         1 UNK         0.0000 
     48 H48         1.7948   49.2650   21.1472 H         1 UNK         0.0000 
     49 H49         3.1102   50.1195   20.3587 H         1 UNK         0.0000 
@<TRIPOS>BOND
     1    1    2 1    
     2    1   31 1    
     3    1   32 1    
     4    1   33 1    
     5    2    6 1    
     6    2    3 2    
     7    3    4 1    
     8    3    8 1    
     9    4    5 1    
    10    5    6 2    
    11    5    7 1    
    12    7   34 1    
    13    7   35 1    
    14    7   36 1    
    15    8   12 1    
    16    8    9 2    
    17    9   10 1    
    18   10   11 2    
    19   11   12 1    
    20   11   13 1    
    21   13   14 1    
    22   14   15 1    
    23   14   37 1    
    24   14   38 1    
    25   15   23 ar   
    26   15   16 ar   
    27   16   17 ar   
    28   17   18 ar   
    29   17   30 1    
    30   18   22 ar   
    31   18   19 1    
    32   19   28 1    
    33   19   20 2    
    34   20   21 1    
    35   20   24 1    
    36   21   22 1    
    37   22   23 ar   
    38   24   25 1    
    39   24   39 1    
    40   24   40 1    
    41   25   26 1    
    42   25   27 1    
    43   25   29 1    
    44   27   28 1    
    45   27   41 1    
    46   27   42 1    
    47   28   43 1    
    48   28   44 1    
    49   29   45 1    
    50   29   46 1    
    51   29   47 1    
    52   30   48 1    
    53   30   49 1    
@<TRIPOS>SUBSTRUCTURE
     1 UNK         1 GROUP             0       ****    0 ROOT    
