ZINC15891919_3218
                    3D
 Schrodinger Suite 2024-2.
 43 45  0  0  1  0            999 V2000
    1.9654   49.4736   22.1218 C   0  0  0  0  0  0
    2.6643   50.5007   21.4951 C   0  0  0  0  0  0
    2.2855   51.8346   21.6973 C   0  0  0  0  0  0
    1.1758   52.1259   22.4952 C   0  0  0  0  0  0
    0.4793   51.0912   23.1317 C   0  0  0  0  0  0
    0.8800   49.7649   22.9473 C   0  0  0  0  0  0
   -0.9160   51.4467   24.1943 S   0  0  0  0  0  0
   -1.1432   52.8967   24.1873 O   0  0  0  0  0  0
   -1.9805   50.5127   23.8143 O   0  0  0  0  0  0
   -0.4125   50.9745   25.8304 N   0  0  0  0  0  0
    0.3048   51.8120   26.6942 C   0  0  0  0  0  0
    0.0821   51.6968   28.0681 C   0  0  0  0  0  0
    0.7822   52.5064   28.9606 C   0  0  0  0  0  0
    1.7138   53.4235   28.4752 C   0  0  0  0  0  0
    1.9513   53.5335   27.1079 C   0  0  0  0  0  0
    1.2472   52.7287   26.2174 C   0  0  0  0  0  0
    2.6764   54.5367   29.6818 Br  0  0  0  0  0  0
    2.9873   52.8923   21.1041 N   0  0  0  0  0  0
    4.3321   53.0148   21.0902 C   0  0  0  0  0  0
    5.1043   52.2546   21.6810 O   0  0  0  0  0  0
    4.8703   54.1990   20.3346 C   0  0  0  0  0  0
    4.3047   54.5995   19.1174 C   0  0  0  0  0  0
    4.8173   55.7002   18.4369 C   0  0  0  0  0  0
    5.9041   56.4152   18.9578 C   0  0  0  0  0  0
    6.4844   55.9907   20.1600 C   0  0  0  0  0  0
    5.9687   54.8968   20.8442 C   0  0  0  0  0  0
    6.4241   57.6096   18.2535 N   0  3  0  0  0  0
    7.1411   58.3830   18.8817 O   0  0  0  0  0  0
    6.1128   57.7767   17.0786 O   0  5  0  0  0  0
    2.2880   48.4547   21.9781 H   0  0  0  0  0  0
    3.5042   50.2571   20.8600 H   0  0  0  0  0  0
    0.8740   53.1536   22.6412 H   0  0  0  0  0  0
    0.3553   48.9611   23.4444 H   0  0  0  0  0  0
   -0.8721   50.1657   26.2258 H   0  0  0  0  0  0
   -0.6344   50.9797   28.4475 H   0  0  0  0  0  0
    0.6018   52.4201   30.0224 H   0  0  0  0  0  0
    2.6799   54.2400   26.7386 H   0  0  0  0  0  0
    1.4462   52.8213   25.1618 H   0  0  0  0  0  0
    2.4389   53.6509   20.7175 H   0  0  0  0  0  0
    3.4660   54.0669   18.6900 H   0  0  0  0  0  0
    4.3568   56.0007   17.5060 H   0  0  0  0  0  0
    7.3428   56.4974   20.5737 H   0  0  0  0  0  0
    6.4316   54.5939   21.7739 H   0  0  0  0  0  0
  1  6  2  0  0  0
  1  2  1  0  0  0
  1 30  1  0  0  0
  2  3  2  0  0  0
  2 31  1  0  0  0
  3  4  1  0  0  0
  3 18  1  0  0  0
  4  5  2  0  0  0
  4 32  1  0  0  0
  5  6  1  0  0  0
  5  7  1  0  0  0
  6 33  1  0  0  0
  7  8  2  0  0  0
  7  9  2  0  0  0
  7 10  1  0  0  0
 10 11  1  0  0  0
 10 34  1  0  0  0
 11 16  2  0  0  0
 11 12  1  0  0  0
 12 13  2  0  0  0
 12 35  1  0  0  0
 13 14  1  0  0  0
 13 36  1  0  0  0
 14 15  2  0  0  0
 14 17  1  0  0  0
 15 16  1  0  0  0
 15 37  1  0  0  0
 16 38  1  0  0  0
 18 19  1  0  0  0
 18 39  1  0  0  0
 19 20  2  0  0  0
 19 21  1  0  0  0
 21 26  2  0  0  0
 21 22  1  0  0  0
 22 23  2  0  0  0
 22 40  1  0  0  0
 23 24  1  0  0  0
 23 41  1  0  0  0
 24 25  2  0  0  0
 24 27  1  0  0  0
 25 26  1  0  0  0
 25 42  1  0  0  0
 26 43  1  0  0  0
 27 28  2  0  0  0
 27 29  1  0  0  0
M  CHG  2  27   1  29  -1
M  END
> <i_i_glide_confnum>
4

> <i_i_glide_lignum>
3219

> <i_i_glide_posenum>
165

> <i_i_glide_rotatable_bonds>
7

> <i_m_Source_File_Index>
4848

> <b_m_subgroup_collapsed>
0

> <r_i_docking_score>
-3.91754

> <r_i_glide_ecoul>
-5.76236

> <r_i_glide_eff_state_penalty>
0

> <r_i_glide_einternal>
6.34924

> <r_i_glide_emodel>
-51.9054

> <r_i_glide_energy>
-45.2936

> <r_i_glide_erotb>
0.535532

> <r_i_glide_esite>
-0.147171

> <r_i_glide_evdw>
-39.5313

> <r_i_glide_gscore>
-3.91754

> <r_i_glide_hbond>
-0.32

> <r_i_glide_ligand_efficiency>
-0.135087

> <r_i_glide_ligand_efficiency_ln>
-0.897017

> <r_i_glide_ligand_efficiency_sa>
-0.415032

> <r_i_glide_lipo>
-1.68496

> <r_i_glide_metal>
0

> <r_i_glide_rewards>
0.539983

> <s_i_glide_gridfile>
wee1_glide-grid

> <s_m_Source_File>
wee1_decoys_glide_SP.sdf

> <s_m_Source_Path>
/Users/zhangxujun/Desktop

> <s_m_entry_id>
5123

> <s_m_entry_name>
wee1_decoys_glide_SP.4848

> <s_m_subgroup_title>
wee1_decoys_glide_SP

> <s_m_subgroupid>
wee1_decoys_glide_SP


$$$$
