ZINC08591648_3053
                    3D
 Schrodinger Suite 2024-2.
 58 62  0  0  1  0            999 V2000
   -1.0609   53.8557   16.7866 C   0  0  0  0  0  0
   -2.1526   52.9318   17.3198 C   0  0  0  0  0  0
   -3.3965   52.9184   16.6817 C   0  0  0  0  0  0
   -4.4225   52.0966   17.1458 C   0  0  0  0  0  0
   -4.2146   51.2838   18.2581 C   0  0  0  0  0  0
   -2.9772   51.2798   18.8973 C   0  0  0  0  0  0
   -1.9346   52.1026   18.4387 C   0  0  0  0  0  0
   -0.6527   52.0970   19.0211 N   0  0  0  0  0  0
   -0.2872   51.8075   20.2866 C   0  0  0  0  0  0
   -1.1093   51.5852   21.1767 O   0  0  0  0  0  0
    1.1483   51.8921   20.5467 C   0  0  0  0  0  0
    2.1137   51.4508   19.6779 C   0  0  0  0  0  0
    3.4706   51.5559   19.9475 N   0  0  0  0  0  0
    3.8991   52.2185   21.0735 C   0  0  0  0  0  0
    5.1044   52.5731   21.4226 N   0  0  0  0  0  0
    4.8904   53.3430   22.4820 C   0  0  0  0  0  0
    3.6253   53.4967   22.8246 N   0  0  0  0  0  0
    2.9759   52.7533   21.9301 N   0  0  0  0  0  0
    1.5231   52.5678   21.8992 C   0  0  2  0  0  0
    1.1054   53.5748   21.9296 H   0  0  0  0  0  0
    1.0170   51.8879   23.1804 C   0  0  0  0  0  0
    0.3680   52.6265   24.1816 C   0  0  0  0  0  0
   -0.1035   51.9553   25.3091 C   0  0  0  0  0  0
    0.0676   50.5734   25.4109 C   0  0  0  0  0  0
    0.7286   49.9078   24.3758 C   0  0  0  0  0  0
    1.2144   50.5421   23.2788 N   0  0  0  0  0  0
    6.2397   54.0937   23.3558 S   0  0  0  0  0  0
    5.3704   55.0719   24.6238 C   0  0  0  0  0  0
    5.2712   54.3912   25.9786 C   0  0  0  0  0  0
    6.4127   54.2583   26.7746 C   0  0  0  0  0  0
    6.3167   53.6969   28.0470 C   0  0  0  0  0  0
    5.0813   53.2663   28.5290 C   0  0  0  0  0  0
    3.9399   53.3933   27.7408 C   0  0  0  0  0  0
    4.0299   53.9553   26.4694 C   0  0  0  0  0  0
    2.9041   54.0959   25.7316 F   0  0  0  0  0  0
    1.8757   50.7577   18.3370 C   0  0  0  0  0  0
   -0.1925   53.2779   16.4660 H   0  0  0  0  0  0
   -1.3990   54.4569   15.9421 H   0  0  0  0  0  0
   -0.7292   54.5361   17.5727 H   0  0  0  0  0  0
   -3.5761   53.5436   15.8185 H   0  0  0  0  0  0
   -5.3824   52.0961   16.6504 H   0  0  0  0  0  0
   -5.0088   50.6450   18.6161 H   0  0  0  0  0  0
   -2.8368   50.6068   19.7300 H   0  0  0  0  0  0
    0.0888   52.4226   18.4209 H   0  0  0  0  0  0
    4.1385   51.2745   19.2268 H   0  0  0  0  0  0
    0.2337   53.6957   24.0911 H   0  0  0  0  0  0
   -0.6058   52.4982   26.0949 H   0  0  0  0  0  0
   -0.2924   50.0308   26.2742 H   0  0  0  0  0  0
    0.8974   48.8436   24.4231 H   0  0  0  0  0  0
    5.8836   56.0270   24.7313 H   0  0  0  0  0  0
    4.3711   55.2969   24.2793 H   0  0  0  0  0  0
    7.3731   54.5848   26.4056 H   0  0  0  0  0  0
    7.2022   53.5988   28.6604 H   0  0  0  0  0  0
    5.0085   52.8195   29.5080 H   0  0  0  0  0  0
    2.9832   53.0542   28.1093 H   0  0  0  0  0  0
    1.2905   49.8460   18.4706 H   0  0  0  0  0  0
    1.3619   51.4125   17.6387 H   0  0  0  0  0  0
    2.8017   50.4928   17.8304 H   0  0  0  0  0  0
  1  2  1  0  0  0
  1 37  1  0  0  0
  1 38  1  0  0  0
  1 39  1  0  0  0
  2  7  2  0  0  0
  2  3  1  0  0  0
  3  4  2  0  0  0
  3 40  1  0  0  0
  4  5  1  0  0  0
  4 41  1  0  0  0
  5  6  2  0  0  0
  5 42  1  0  0  0
  6  7  1  0  0  0
  6 43  1  0  0  0
  7  8  1  0  0  0
  8  9  1  0  0  0
  8 44  1  0  0  0
  9 10  2  0  0  0
  9 11  1  0  0  0
 11 19  1  0  0  0
 11 12  2  0  0  0
 12 13  1  0  0  0
 12 36  1  0  0  0
 13 14  1  0  0  0
 13 45  1  0  0  0
 14 18  1  0  0  0
 14 15  2  0  0  0
 15 16  1  0  0  0
 16 17  2  0  0  0
 16 27  1  0  0  0
 17 18  1  0  0  0
 18 19  1  0  0  0
 19 20  1  0  0  0
 19 21  1  0  0  0
 21 26  2  0  0  0
 21 22  1  0  0  0
 22 23  2  0  0  0
 22 46  1  0  0  0
 23 24  1  0  0  0
 23 47  1  0  0  0
 24 25  2  0  0  0
 24 48  1  0  0  0
 25 26  1  0  0  0
 25 49  1  0  0  0
 27 28  1  0  0  0
 28 29  1  0  0  0
 28 50  1  0  0  0
 28 51  1  0  0  0
 29 34  2  0  0  0
 29 30  1  0  0  0
 30 31  2  0  0  0
 30 52  1  0  0  0
 31 32  1  0  0  0
 31 53  1  0  0  0
 32 33  2  0  0  0
 32 54  1  0  0  0
 33 34  1  0  0  0
 33 55  1  0  0  0
 34 35  1  0  0  0
 36 56  1  0  0  0
 36 57  1  0  0  0
 36 58  1  0  0  0
M  END
> <i_i_glide_confnum>
165

> <i_i_glide_lignum>
3054

> <i_i_glide_posenum>
186

> <i_i_glide_rotatable_bonds>
7

> <i_m_Source_File_Index>
3479

> <b_m_subgroup_collapsed>
0

> <r_i_docking_score>
-6.07551

> <r_i_glide_ecoul>
-5.82332

> <r_i_glide_eff_state_penalty>
0

> <r_i_glide_einternal>
6.93666

> <r_i_glide_emodel>
-66.9351

> <r_i_glide_energy>
-51.0911

> <r_i_glide_erotb>
0.600907

> <r_i_glide_esite>
-0.104013

> <r_i_glide_evdw>
-45.2678

> <r_i_glide_gscore>
-6.07551

> <r_i_glide_hbond>
-0.16

> <r_i_glide_ligand_efficiency>
-0.173586

> <r_i_glide_ligand_efficiency_ln>
-1.33371

> <r_i_glide_ligand_efficiency_sa>
-0.567812

> <r_i_glide_lipo>
-2.44159

> <r_i_glide_metal>
0

> <r_i_glide_rewards>
-0.833933

> <s_i_glide_gridfile>
wee1_glide-grid

> <s_m_Source_File>
wee1_decoys_glide_SP.sdf

> <s_m_Source_Path>
/Users/zhangxujun/Desktop

> <s_m_entry_id>
3754

> <s_m_entry_name>
wee1_decoys_glide_SP.3479

> <s_m_subgroup_title>
wee1_decoys_glide_SP

> <s_m_subgroupid>
wee1_decoys_glide_SP


$$$$
