@<TRIPOS>MOLECULE
ZINC02203885_2488
36   38    1
SMALL
USER_CHARGES


@<TRIPOS>ATOM
      1 C1          6.5850   53.6991   27.2703 C.ar      1 UNK         0.0000 
      2 C2          5.8075   53.4070   28.3754 C.ar      1 UNK         0.0000 
      3 C3          4.4239   53.4927   28.3103 C.ar      1 UNK         0.0000 
      4 C4          3.7840   53.9082   27.1295 C.ar      1 UNK         0.0000 
      5 C5          4.5748   54.1870   25.9928 C.ar      1 UNK         0.0000 
      6 C6          5.9740   54.0912   26.0894 C.ar      1 UNK         0.0000 
      7 O7          3.9658   54.6219   24.8324 O.3       1 UNK         0.0000 
      8 C8          4.3682   54.1757   23.5861 C.ar      1 UNK         0.0000 
      9 C9          3.5379   53.2945   22.8826 C.ar      1 UNK         0.0000 
     10 C10         3.8917   52.9272   21.5778 C.ar      1 UNK         0.0000 
     11 N11         4.9702   53.4412   20.9431 N.ar      1 UNK         0.0000 
     12 C12         5.7458   54.3314   21.6090 C.ar      1 UNK         0.0000 
     13 C13         5.5079   54.6843   22.9351 C.ar      1 UNK         0.0000 
     14 F14         6.3043   55.6169   23.5146 F         1 UNK         0.0000 
     15 F15         6.7835   54.9040   20.9556 F         1 UNK         0.0000 
     16 N16         3.1512   51.9880   20.8665 N.pl3     1 UNK         0.0000 
     17 F17         2.4204   52.7954   23.4656 F         1 UNK         0.0000 
     18 O18         2.4010   54.0348   27.0642 O.3       1 UNK         0.0000 
     19 C19         1.6649   54.1242   28.2329 C.ar      1 UNK         0.0000 
     20 C20         0.9378   53.0272   28.7211 C.ar      1 UNK         0.0000 
     21 C21         0.2759   53.1484   29.9547 C.ar      1 UNK         0.0000 
     22 N22         0.3464   54.2753   30.7052 N.ar      1 UNK         0.0000 
     23 C23         1.0393   55.3380   30.2196 C.ar      1 UNK         0.0000 
     24 C24         1.6763   55.3085   28.9793 C.ar      1 UNK         0.0000 
     25 F25         2.3051   56.4107   28.5163 F         1 UNK         0.0000 
     26 F26         1.0970   56.4673   30.9604 F         1 UNK         0.0000 
     27 N27        -0.4835   52.0988   30.4799 N.pl3     1 UNK         0.0000 
     28 F28         0.8929   51.8702   28.0167 F         1 UNK         0.0000 
     29 H29         7.6591   53.6126   27.3276 H         1 UNK         0.0000 
     30 H30         6.2862   53.0961   29.2799 H         1 UNK         0.0000 
     31 H31         3.8596   53.2410   29.1957 H         1 UNK         0.0000 
     32 H32         6.6245   54.2841   25.2585 H         1 UNK         0.0000 
     33 H33         2.2469   51.7081   21.2180 H         1 UNK         0.0000 
     34 H34         3.4305   51.7788   19.9164 H         1 UNK         0.0000 
     35 H35        -0.5990   51.2539   29.9366 H         1 UNK         0.0000 
     36 H36        -0.8518   52.1347   31.4339 H         1 UNK         0.0000 
@<TRIPOS>BOND
     1    1    6 ar   
     2    1    2 ar   
     3    1   29 1    
     4    2    3 ar   
     5    2   30 1    
     6    3    4 ar   
     7    3   31 1    
     8    4    5 ar   
     9    4   18 1    
    10    5    6 ar   
    11    5    7 1    
    12    6   32 1    
    13    7    8 1    
    14    8   13 ar   
    15    8    9 ar   
    16    9   10 ar   
    17    9   17 1    
    18   10   11 ar   
    19   10   16 1    
    20   11   12 ar   
    21   12   13 ar   
    22   12   15 1    
    23   13   14 1    
    24   16   33 1    
    25   16   34 1    
    26   18   19 1    
    27   19   24 ar   
    28   19   20 ar   
    29   20   21 ar   
    30   20   28 1    
    31   21   22 ar   
    32   21   27 1    
    33   22   23 ar   
    34   23   24 ar   
    35   23   26 1    
    36   24   25 1    
    37   27   35 1    
    38   27   36 1    
@<TRIPOS>SUBSTRUCTURE
     1 UNK         1 GROUP             0       ****    0 ROOT    
