@<TRIPOS>MOLECULE
ZINC20463712_2141
50   53    1
SMALL
USER_CHARGES


@<TRIPOS>ATOM
      1 C1          6.3769   54.3625   25.7387 C.ar      1 UNK         0.0000 
      2 C2          5.1921   54.6150   25.0506 C.ar      1 UNK         0.0000 
      3 C3          3.9822   54.6128   25.7391 C.ar      1 UNK         0.0000 
      4 C4          3.9389   54.3606   27.1134 C.ar      1 UNK         0.0000 
      5 C5          5.1421   54.0964   27.7945 C.ar      1 UNK         0.0000 
      6 C6          6.3560   54.0979   27.1073 C.ar      1 UNK         0.0000 
      7 O7          2.6864   54.3983   27.7079 O.3       1 UNK         0.0000 
      8 C8          2.5245   54.0014   29.0731 C.3       1 UNK         0.0000 
      9 H9          3.2882   54.5003   29.6703 H         1 UNK         0.0000 
     10 C10         2.5737   52.4543   29.2227 C.3       1 UNK         0.0000 
     11 H11         3.3592   52.0436   28.5855 H         1 UNK         0.0000 
     12 C12         1.2068   51.8062   28.8674 C.3       1 UNK         0.0000 
     13 H13         1.1713   50.7742   29.1999 H         1 UNK         0.0000 
     14 C14         0.0201   52.6451   29.4109 C.3       1 UNK         0.0000 
     15 H15        -0.9327   52.1774   29.1679 H         1 UNK         0.0000 
     16 C16         0.0975   53.0177   30.8996 C.3       1 UNK         0.0000 
     17 O17         0.9337   54.1715   30.8812 O.3       1 UNK         0.0000 
     18 C18         1.1599   54.5525   29.5575 C.3       1 UNK         0.0000 
     19 H19         1.1050   55.6373   29.4517 H         1 UNK         0.0000 
     20 O20         0.1170   53.9426   28.8596 O.3       1 UNK         0.0000 
     21 N21         1.1209   51.8023   27.3244 N.4       1 UNK         0.0000 
     22 C22         0.1328   50.8137   26.6754 C.3       1 UNK         0.0000 
     23 C23        -1.1362   51.4759   26.1743 C.ar      1 UNK         0.0000 
     24 C24        -1.1245   52.1629   24.9576 C.ar      1 UNK         0.0000 
     25 C25        -2.2972   52.7386   24.4754 C.ar      1 UNK         0.0000 
     26 C26        -3.4878   52.6465   25.2007 C.ar      1 UNK         0.0000 
     27 C27        -3.4950   51.9396   26.4164 C.ar      1 UNK         0.0000 
     28 C28        -2.3272   51.3467   26.8920 C.ar      1 UNK         0.0000 
     29 O29        -4.5887   53.2583   24.6341 O.3       1 UNK         0.0000 
     30 C30        -5.7916   53.4144   25.3780 C.3       1 UNK         0.0000 
     31 F31        -6.6532   54.0914   24.6191 F         1 UNK         0.0000 
     32 F32        -5.5874   54.1378   26.4818 F         1 UNK         0.0000 
     33 F33        -6.3517   52.2388   25.6769 F         1 UNK         0.0000 
     34 O34         2.9997   52.0970   30.5234 O.3       1 UNK         0.0000 
     35 H35         7.3138   54.3597   25.2011 H         1 UNK         0.0000 
     36 H36         5.2155   54.8098   23.9875 H         1 UNK         0.0000 
     37 H37         3.0705   54.8154   25.1996 H         1 UNK         0.0000 
     38 H38         5.1667   53.8919   28.8521 H         1 UNK         0.0000 
     39 H39         7.2758   53.8979   27.6385 H         1 UNK         0.0000 
     40 H40         0.5014   52.1994   31.4962 H         1 UNK         0.0000 
     41 H41        -0.8778   53.2894   31.2930 H         1 UNK         0.0000 
     42 H42         2.0433   51.5971   26.9686 H         1 UNK         0.0000 
     43 H43        -0.0724   50.0163   27.3899 H         1 UNK         0.0000 
     44 H44         0.6958   50.3810   25.8459 H         1 UNK         0.0000 
     45 H45        -0.2123   52.2490   24.3841 H         1 UNK         0.0000 
     46 H46        -2.2830   53.2707   23.5366 H         1 UNK         0.0000 
     47 H47        -4.3961   51.8272   26.9979 H         1 UNK         0.0000 
     48 H48        -2.3532   50.7767   27.8116 H         1 UNK         0.0000 
     49 H49         2.4000   52.4979   31.1622 H         1 UNK         0.0000 
     50 H50         0.8964   52.7419   27.0222 H         1 UNK         0.0000 
@<TRIPOS>BOND
     1    1    6 ar   
     2    1    2 ar   
     3    1   35 1    
     4    2    3 ar   
     5    2   36 1    
     6    3    4 ar   
     7    3   37 1    
     8    4    5 ar   
     9    4    7 1    
    10    5    6 ar   
    11    5   38 1    
    12    6   39 1    
    13    7    8 1    
    14    8    9 1    
    15    8   18 1    
    16    8   10 1    
    17   10   11 1    
    18   10   12 1    
    19   10   34 1    
    20   12   13 1    
    21   12   14 1    
    22   12   21 1    
    23   14   15 1    
    24   14   20 1    
    25   14   16 1    
    26   16   17 1    
    27   16   40 1    
    28   16   41 1    
    29   17   18 1    
    30   18   19 1    
    31   18   20 1    
    32   21   22 1    
    33   21   42 1    
    34   21   50 1    
    35   22   23 1    
    36   22   43 1    
    37   22   44 1    
    38   23   28 ar   
    39   23   24 ar   
    40   24   25 ar   
    41   24   45 1    
    42   25   26 ar   
    43   25   46 1    
    44   26   27 ar   
    45   26   29 1    
    46   27   28 ar   
    47   27   47 1    
    48   28   48 1    
    49   29   30 1    
    50   30   31 1    
    51   30   32 1    
    52   30   33 1    
    53   34   49 1    
@<TRIPOS>SUBSTRUCTURE
     1 UNK         1 GROUP             0       ****    0 ROOT    
