ZINC38970847_5269
                    3D
 Schrodinger Suite 2024-2.
 47 50  0  0  1  0            999 V2000
    1.0011   48.5857   19.4552 C   0  0  0  0  0  0
    0.1553   48.8961   20.6104 C   0  0  0  0  0  0
    0.4733   49.9340   21.4211 C   0  0  0  0  0  0
    1.6334   50.7703   21.1970 C   0  0  0  0  0  0
    1.9667   51.7277   21.9849 N   0  0  0  0  0  0
    3.1249   52.4967   21.8137 C   0  0  0  0  0  0
    3.5865   53.3313   22.6496 N   0  0  0  0  0  0
    2.6836   53.6628   24.1176 S   0  0  0  0  0  0
    1.9051   54.8966   24.0817 O   0  0  0  0  0  0
    2.0100   52.5255   24.7576 O   0  0  0  0  0  0
    4.0138   54.0711   25.3020 C   0  0  0  0  0  0
    3.6833   53.8806   26.6545 C   0  0  0  0  0  0
    4.6133   54.0933   27.6709 C   0  0  0  0  0  0
    5.9046   54.4965   27.3525 C   0  0  0  0  0  0
    6.2493   54.7071   26.0215 C   0  0  0  0  0  0
    5.3244   54.5144   24.9936 C   0  0  0  0  0  0
    5.9053   54.8967   23.4084 Cl  0  0  0  0  0  0
    4.1661   53.8567   29.3215 Cl  0  0  0  0  0  0
    3.8978   52.3828   20.4626 C   0  0  1  0  0  0
    4.9559   52.2282   20.6833 H   0  0  0  0  0  0
    3.5044   51.1584   19.6817 N   0  3  0  0  0  0
    2.4484   50.4037   19.9557 C   0  0  0  0  0  0
    2.1045   49.3177   19.1498 C   0  0  0  0  0  0
    3.7683   53.6379   19.7043 N   0  0  0  0  0  0
    4.3799   53.6715   18.3761 C   0  0  0  0  0  0
    5.8799   53.9427   18.3674 C   0  0  0  0  0  0
    6.6722   53.2969   17.4143 C   0  0  0  0  0  0
    8.0284   53.5934   17.3158 C   0  0  0  0  0  0
    8.5909   54.5369   18.1708 C   0  0  0  0  0  0
    7.8119   55.1817   19.1300 C   0  0  0  0  0  0
    6.4535   54.8860   19.2291 C   0  0  0  0  0  0
    9.9055   54.8291   18.0675 F   0  0  0  0  0  0
    0.7381   47.7514   18.8197 H   0  0  0  0  0  0
   -0.7197   48.2951   20.8157 H   0  0  0  0  0  0
   -0.1651   50.1342   22.2708 H   0  0  0  0  0  0
    2.6896   53.5549   26.9285 H   0  0  0  0  0  0
    6.6327   54.6592   28.1347 H   0  0  0  0  0  0
    7.2472   55.0306   25.7770 H   0  0  0  0  0  0
    2.7045   49.0744   18.2821 H   0  0  0  0  0  0
    2.8171   54.0052   19.6813 H   0  0  0  0  0  0
    3.9269   54.5004   17.8303 H   0  0  0  0  0  0
    4.1356   52.7825   17.7923 H   0  0  0  0  0  0
    6.2376   52.5683   16.7442 H   0  0  0  0  0  0
    8.6433   53.0969   16.5800 H   0  0  0  0  0  0
    8.2637   55.9093   19.7874 H   0  0  0  0  0  0
    5.8453   55.3997   19.9598 H   0  0  0  0  0  0
    4.1068   50.8972   18.8869 H   0  0  0  0  0  0
  1 23  2  0  0  0
  1  2  1  0  0  0
  1 33  1  0  0  0
  2  3  2  0  0  0
  2 34  1  0  0  0
  3  4  1  0  0  0
  3 35  1  0  0  0
  4 22  1  0  0  0
  4  5  2  0  0  0
  5  6  1  0  0  0
  6  7  2  0  0  0
  6 19  1  0  0  0
  7  8  1  0  0  0
  8  9  2  0  0  0
  8 10  2  0  0  0
  8 11  1  0  0  0
 11 16  2  0  0  0
 11 12  1  0  0  0
 12 13  2  0  0  0
 12 36  1  0  0  0
 13 14  1  0  0  0
 13 18  1  0  0  0
 14 15  2  0  0  0
 14 37  1  0  0  0
 15 16  1  0  0  0
 15 38  1  0  0  0
 16 17  1  0  0  0
 19 20  1  0  0  0
 19 21  1  0  0  0
 19 24  1  0  0  0
 21 22  2  0  0  0
 21 47  1  0  0  0
 22 23  1  0  0  0
 23 39  1  0  0  0
 24 25  1  0  0  0
 24 40  1  0  0  0
 25 26  1  0  0  0
 25 41  1  0  0  0
 25 42  1  0  0  0
 26 31  2  0  0  0
 26 27  1  0  0  0
 27 28  2  0  0  0
 27 43  1  0  0  0
 28 29  1  0  0  0
 28 44  1  0  0  0
 29 30  2  0  0  0
 29 32  1  0  0  0
 30 31  1  0  0  0
 30 45  1  0  0  0
 31 46  1  0  0  0
M  CHG  1  21   1
M  END
> <i_i_glide_confnum>
21

> <i_i_glide_lignum>
5270

> <i_i_glide_posenum>
360

> <i_i_glide_rotatable_bonds>
5

> <i_m_Source_File_Index>
4336

> <b_m_subgroup_collapsed>
0

> <r_i_docking_score>
-5.7797

> <r_i_glide_ecoul>
-7.75298

> <r_i_glide_eff_state_penalty>
0

> <r_i_glide_einternal>
13.1585

> <r_i_glide_emodel>
-56.9771

> <r_i_glide_energy>
-46.5245

> <r_i_glide_erotb>
0.354237

> <r_i_glide_esite>
-0.118759

> <r_i_glide_evdw>
-38.7715

> <r_i_glide_gscore>
-5.7797

> <r_i_glide_hbond>
-0.52

> <r_i_glide_ligand_efficiency>
-0.186442

> <r_i_glide_ligand_efficiency_ln>
-1.3035

> <r_i_glide_ligand_efficiency_sa>
-0.585685

> <r_i_glide_lipo>
-2.42952

> <r_i_glide_metal>
0

> <r_i_glide_rewards>
0.0358641

> <s_i_glide_gridfile>
wee1_glide-grid

> <s_m_Source_File>
wee1_decoys_glide_SP.sdf

> <s_m_Source_Path>
/Users/zhangxujun/Desktop

> <s_m_entry_id>
4611

> <s_m_entry_name>
wee1_decoys_glide_SP.4336

> <s_m_subgroup_title>
wee1_decoys_glide_SP

> <s_m_subgroupid>
wee1_decoys_glide_SP


$$$$
