@<TRIPOS>MOLECULE
ZINC50672141_1653
32   33    1
SMALL
USER_CHARGES


@<TRIPOS>ATOM
      1 C1          1.5467   52.9669   23.1212 C.3       1 UNK         0.0000 
      2 C2          0.2885   53.0054   24.0145 C.3       1 UNK         0.0000 
      3 C3         -0.8811   52.2586   23.3397 C.3       1 UNK         0.0000 
      4 C4          0.5681   52.4961   25.4311 C.2       1 UNK         0.0000 
      5 C5         -0.0429   51.4503   26.1209 C.2       1 UNK         0.0000 
      6 S6          0.6766   51.2967   27.6919 S.3       1 UNK         0.0000 
      7 C7          1.7284   52.6078   27.3084 C.2       1 UNK         0.0000 
      8 N8          1.5046   53.1267   26.1232 N.2       1 UNK         0.0000 
      9 N9          2.6160   52.9514   28.2566 N.2       1 UNK         0.0000 
     10 S10         3.2551   54.3669   28.3965 S.o2      1 UNK         0.0000 
     11 O11         2.3054   55.4402   28.0831 O.2       1 UNK         0.0000 
     12 O12         4.0052   54.4987   29.6520 O.2       1 UNK         0.0000 
     13 C13         4.4910   54.3710   27.0555 C.ar      1 UNK         0.0000 
     14 C14         4.1142   54.7127   25.7507 C.ar      1 UNK         0.0000 
     15 C15         5.0403   54.6900   24.7086 C.ar      1 UNK         0.0000 
     16 C16         6.3643   54.3959   25.0076 C.ar      1 UNK         0.0000 
     17 N17         6.7699   54.0966   26.2622 N.ar      1 UNK         0.0000 
     18 C18         5.8456   54.0599   27.2503 C.ar      1 UNK         0.0000 
     19 N19         6.3477   53.6967   28.4817 N.pl3     1 UNK         0.0000 
     20 H20         2.3398   53.6023   23.5159 H         1 UNK         0.0000 
     21 H21         1.3292   53.3158   22.1108 H         1 UNK         0.0000 
     22 H22         1.9440   51.9541   23.0401 H         1 UNK         0.0000 
     23 H23        -0.0164   54.0510   24.0830 H         1 UNK         0.0000 
     24 H24        -1.8067   52.3825   23.9034 H         1 UNK         0.0000 
     25 H25        -1.0635   52.6225   22.3288 H         1 UNK         0.0000 
     26 H26        -0.6781   51.1895   23.2628 H         1 UNK         0.0000 
     27 H27        -0.8323   50.7847   25.8041 H         1 UNK         0.0000 
     28 H28         3.1041   54.9904   25.5267 H         1 UNK         0.0000 
     29 H29         4.7372   54.8974   23.6939 H         1 UNK         0.0000 
     30 H30         7.1212   54.3839   24.2359 H         1 UNK         0.0000 
     31 H31         5.7200   53.8255   29.2708 H         1 UNK         0.0000 
     32 H32         7.3453   53.6329   28.5996 H         1 UNK         0.0000 
@<TRIPOS>BOND
     1    1    2 1    
     2    1   20 1    
     3    1   21 1    
     4    1   22 1    
     5    2    3 1    
     6    2    4 1    
     7    2   23 1    
     8    3   24 1    
     9    3   25 1    
    10    3   26 1    
    11    4    8 1    
    12    4    5 2    
    13    5    6 1    
    14    5   27 1    
    15    6    7 1    
    16    7    8 2    
    17    7    9 1    
    18    9   10 1    
    19   10   11 2    
    20   10   12 2    
    21   10   13 1    
    22   13   18 ar   
    23   13   14 ar   
    24   14   15 ar   
    25   14   28 1    
    26   15   16 ar   
    27   15   29 1    
    28   16   17 ar   
    29   16   30 1    
    30   17   18 ar   
    31   18   19 1    
    32   19   31 1    
    33   19   32 1    
@<TRIPOS>SUBSTRUCTURE
     1 UNK         1 GROUP             0       ****    0 ROOT    
