@<TRIPOS>MOLECULE
ZINC23707280_727
59   62    1
SMALL
USER_CHARGES


@<TRIPOS>ATOM
      1 C1          0.3998   44.0675   16.0806 C.ar      1 UNK         0.0000 
      2 C2          0.2203   44.4201   17.4121 C.ar      1 UNK         0.0000 
      3 C3          0.7029   45.6384   17.8789 C.ar      1 UNK         0.0000 
      4 C4          1.3951   46.5239   17.0286 C.ar      1 UNK         0.0000 
      5 C5          1.5442   46.1735   15.6654 C.ar      1 UNK         0.0000 
      6 C6          1.0467   44.9412   15.2152 C.ar      1 UNK         0.0000 
      7 C7          2.2004   47.1124   14.6427 C.3       1 UNK         0.0000 
      8 F8          2.0394   46.7001   13.3823 F         1 UNK         0.0000 
      9 F9          1.7007   48.3455   14.7295 F         1 UNK         0.0000 
     10 F10         3.5041   47.1510   14.8826 F         1 UNK         0.0000 
     11 N11         1.9036   47.7755   17.4718 N.am      1 UNK         0.0000 
     12 C12         1.9048   48.3209   18.7089 C.2       1 UNK         0.0000 
     13 O13         1.6730   47.6933   19.7424 O.2       1 UNK         0.0000 
     14 C14         2.2097   49.8356   18.7792 C.3       1 UNK         0.0000 
     15 N15         2.4655   50.3029   20.2403 N.4       1 UNK         0.0000 
     16 C16         3.2056   51.6599   20.2420 C.3       1 UNK         0.0000 
     17 C17         3.5592   52.0581   21.6920 C.3       1 UNK         0.0000 
     18 N18         2.3334   52.0400   22.5288 N.am      1 UNK         0.0000 
     19 C19         1.5350   50.7941   22.5022 C.3       1 UNK         0.0000 
     20 C20         1.1567   50.4904   21.0419 C.3       1 UNK         0.0000 
     21 C21         1.8944   53.1056   23.2549 C.2       1 UNK         0.0000 
     22 O22         0.8040   53.0959   23.8276 O.2       1 UNK         0.0000 
     23 C23         2.7445   54.3924   23.3872 C.3       1 UNK         0.0000 
     24 N24         3.9207   54.2077   24.2780 N.pl3     1 UNK         0.0000 
     25 C25         5.1644   54.4998   23.5346 C.3       1 UNK         0.0000 
     26 C26         6.2424   55.2458   24.3297 C.3       1 UNK         0.0000 
     27 S27         6.7043   54.2721   25.7660 S.3       1 UNK         0.0000 
     28 C28         5.0907   54.1710   26.4696 C.ar      1 UNK         0.0000 
     29 C29         3.9054   54.1276   25.6896 C.ar      1 UNK         0.0000 
     30 C30         2.6914   54.0150   26.3859 C.ar      1 UNK         0.0000 
     31 C31         2.6377   53.9398   27.7756 C.ar      1 UNK         0.0000 
     32 C32         3.8114   53.9773   28.5160 C.ar      1 UNK         0.0000 
     33 C33         5.0300   54.0940   27.8632 C.ar      1 UNK         0.0000 
     34 H34         0.0234   43.1231   15.7115 H         1 UNK         0.0000 
     35 H35        -0.2958   43.7514   18.0839 H         1 UNK         0.0000 
     36 H36         0.5235   45.8558   18.9192 H         1 UNK         0.0000 
     37 H37         1.1539   44.6482   14.1810 H         1 UNK         0.0000 
     38 H38         2.4003   48.3207   16.7716 H         1 UNK         0.0000 
     39 H39         3.1041   50.0960   18.2131 H         1 UNK         0.0000 
     40 H40         1.3883   50.4356   18.3876 H         1 UNK         0.0000 
     41 H41         4.1306   51.5052   19.6830 H         1 UNK         0.0000 
     42 H42         2.6017   52.4071   19.7189 H         1 UNK         0.0000 
     43 H43         4.2992   51.3595   22.0811 H         1 UNK         0.0000 
     44 H44         4.0330   53.0362   21.6525 H         1 UNK         0.0000 
     45 H45         0.6282   50.8483   23.1082 H         1 UNK         0.0000 
     46 H46         2.1256   49.9745   22.9174 H         1 UNK         0.0000 
     47 H47         0.5480   51.2684   20.5754 H         1 UNK         0.0000 
     48 H48         0.6067   49.5491   21.0122 H         1 UNK         0.0000 
     49 H49         2.9750   54.7222   22.3748 H         1 UNK         0.0000 
     50 H50         2.1341   55.2016   23.7824 H         1 UNK         0.0000 
     51 H51         5.6335   53.5163   23.4422 H         1 UNK         0.0000 
     52 H52         5.0578   54.8490   22.5060 H         1 UNK         0.0000 
     53 H53         7.1422   55.3941   23.7283 H         1 UNK         0.0000 
     54 H54         5.9043   56.2252   24.6674 H         1 UNK         0.0000 
     55 H55         1.7493   54.0106   25.8668 H         1 UNK         0.0000 
     56 H56         1.6830   53.8535   28.2698 H         1 UNK         0.0000 
     57 H57         3.7754   53.9192   29.5940 H         1 UNK         0.0000 
     58 H58         5.9410   54.1250   28.4473 H         1 UNK         0.0000 
     59 H59         3.0374   49.5916   20.6788 H         1 UNK         0.0000 
@<TRIPOS>BOND
     1    1    6 ar   
     2    1    2 ar   
     3    1   34 1    
     4    2    3 ar   
     5    2   35 1    
     6    3    4 ar   
     7    3   36 1    
     8    4    5 ar   
     9    4   11 1    
    10    5    6 ar   
    11    5    7 1    
    12    6   37 1    
    13    7    8 1    
    14    7    9 1    
    15    7   10 1    
    16   11   12 am   BACKBONE|DICT|INTERRES
    17   11   38 1    
    18   12   13 2    
    19   12   14 1    
    20   14   15 1    
    21   14   39 1    
    22   14   40 1    
    23   15   20 1    
    24   15   16 1    
    25   15   59 1    
    26   16   17 1    
    27   16   41 1    
    28   16   42 1    
    29   17   18 1    
    30   17   43 1    
    31   17   44 1    
    32   18   19 1    
    33   18   21 am   BACKBONE|DICT|INTERRES
    34   19   20 1    
    35   19   45 1    
    36   19   46 1    
    37   20   47 1    
    38   20   48 1    
    39   21   22 2    
    40   21   23 1    
    41   23   24 1    
    42   23   49 1    
    43   23   50 1    
    44   24   29 1    
    45   24   25 1    
    46   25   26 1    
    47   25   51 1    
    48   25   52 1    
    49   26   27 1    
    50   26   53 1    
    51   26   54 1    
    52   27   28 1    
    53   28   33 ar   
    54   28   29 ar   
    55   29   30 ar   
    56   30   31 ar   
    57   30   55 1    
    58   31   32 ar   
    59   31   56 1    
    60   32   33 ar   
    61   32   57 1    
    62   33   58 1    
@<TRIPOS>SUBSTRUCTURE
     1 UNK         1 GROUP             0       ****    0 ROOT    
