@<TRIPOS>MOLECULE
ZINC50654124_1652
26   27    1
SMALL
USER_CHARGES


@<TRIPOS>ATOM
      1 C1         -0.9513   51.6832   28.7635 C.ar      1 UNK         0.0000 
      2 C2         -0.2545   52.0971   29.8946 C.ar      1 UNK         0.0000 
      3 C3          0.8648   52.9152   29.7616 C.ar      1 UNK         0.0000 
      4 C4          1.3058   53.3410   28.4950 C.ar      1 UNK         0.0000 
      5 C5          0.5952   52.8971   27.3747 C.ar      1 UNK         0.0000 
      6 C6         -0.5232   52.0780   27.5001 C.ar      1 UNK         0.0000 
      7 Cl7        -1.3932   51.5851   26.0939 Cl        1 UNK         0.0000 
      8 N8          2.3213   54.2451   28.3256 N.2       1 UNK         0.0000 
      9 S9          3.7768   53.8893   28.7840 S.o2      1 UNK         0.0000 
     10 O10         4.3575   54.8926   29.6799 O.2       1 UNK         0.0000 
     11 O11         3.9855   52.4787   29.1272 O.2       1 UNK         0.0000 
     12 C12         4.6648   54.1036   27.2396 C.ar      1 UNK         0.0000 
     13 C13         6.0069   54.4969   27.2369 C.ar      1 UNK         0.0000 
     14 N14         6.7039   54.7074   26.0865 N.ar      1 UNK         0.0000 
     15 C15         6.0256   54.4983   24.9299 C.ar      1 UNK         0.0000 
     16 N16         4.7351   54.1067   24.8210 N.ar      1 UNK         0.0000 
     17 C17         4.0704   53.9091   25.9867 C.ar      1 UNK         0.0000 
     18 N18         6.7045   54.6977   23.7393 N.pl3     1 UNK         0.0000 
     19 F19         1.5056   53.3099   30.8829 F         1 UNK         0.0000 
     20 H20        -1.8120   51.0380   28.8685 H         1 UNK         0.0000 
     21 H21        -0.5839   51.7814   30.8755 H         1 UNK         0.0000 
     22 H22         0.8901   53.2211   26.3892 H         1 UNK         0.0000 
     23 H23         6.5343   54.6739   28.1652 H         1 UNK         0.0000 
     24 H24         3.0448   53.5894   25.8904 H         1 UNK         0.0000 
     25 H25         6.2128   54.5180   22.8779 H         1 UNK         0.0000 
     26 H26         7.6919   54.9247   23.7541 H         1 UNK         0.0000 
@<TRIPOS>BOND
     1    1    6 ar   
     2    1    2 ar   
     3    1   20 1    
     4    2    3 ar   
     5    2   21 1    
     6    3    4 ar   
     7    3   19 1    
     8    4    5 ar   
     9    4    8 1    
    10    5    6 ar   
    11    5   22 1    
    12    6    7 1    
    13    8    9 1    
    14    9   10 2    
    15    9   11 2    
    16    9   12 1    
    17   12   17 ar   
    18   12   13 ar   
    19   13   14 ar   
    20   13   23 1    
    21   14   15 ar   
    22   15   16 ar   
    23   15   18 1    
    24   16   17 ar   
    25   17   24 1    
    26   18   25 1    
    27   18   26 1    
@<TRIPOS>SUBSTRUCTURE
     1 UNK         1 GROUP             0       ****    0 ROOT    
