ZINC66107053_2893
                    3D
 Schrodinger Suite 2024-2.
 63 66  0  0  1  0            999 V2000
    6.6345   54.8962   25.5024 C   0  0  0  0  0  0
    6.5891   54.7067   26.8799 C   0  0  0  0  0  0
    5.4028   54.2969   27.4827 C   0  0  0  0  0  0
    4.2471   54.0589   26.7158 C   0  0  0  0  0  0
    4.3118   54.2103   25.3152 C   0  0  0  0  0  0
    5.5112   54.6461   24.7250 C   0  0  0  0  0  0
    3.1574   53.8835   24.5691 N   0  0  0  0  0  0
    3.0058   53.6967   23.2354 C   0  0  0  0  0  0
    3.8974   53.8660   22.4044 O   0  0  0  0  0  0
    1.6451   53.1777   22.7221 C   0  0  0  0  0  0
    0.5657   53.2307   23.6865 N   0  0  0  0  0  0
    0.0499   52.1463   24.4077 C   0  0  0  0  0  0
    0.6932   50.9061   24.4872 C   0  0  0  0  0  0
    0.1283   49.8720   25.2329 C   0  0  0  0  0  0
   -1.0698   50.0770   25.9116 C   0  0  0  0  0  0
   -1.7251   51.3154   25.8656 C   0  0  0  0  0  0
   -1.1527   52.3346   25.0889 C   0  0  0  0  0  0
   -3.0076   51.5847   26.6264 C   0  0  0  0  0  0
   -3.6863   52.5726   26.3320 O   0  0  0  0  0  0
   -3.3019   50.7481   27.6507 N   0  0  0  0  0  0
   -4.3719   50.8528   28.5654 C   0  0  0  0  0  0
   -4.2005   50.2401   29.8084 C   0  0  0  0  0  0
   -5.1797   50.3341   30.7921 C   0  0  0  0  0  0
   -6.3581   51.0311   30.5354 C   0  0  0  0  0  0
   -6.5677   51.6331   29.2889 C   0  0  0  0  0  0
   -5.5794   51.5257   28.3024 C   0  0  0  0  0  0
   -7.8528   52.4114   29.0081 C   0  0  0  0  0  0
   -7.6252   53.4389   28.1879 F   0  0  0  0  0  0
   -8.7406   51.6010   28.4367 F   0  0  0  0  0  0
   -8.3806   52.8965   30.1331 F   0  0  0  0  0  0
    3.0355   53.6731   27.2717 O   0  0  0  0  0  0
    2.9395   53.4675   28.6802 C   0  0  0  0  0  0
    1.4660   53.3331   29.0932 C   0  0  1  0  0  0
    0.9409   54.2486   28.8104 H   0  0  0  0  0  0
    0.7354   52.0983   28.5831 C   0  0  0  0  0  0
   -0.3819   51.9302   29.5867 C   0  0  0  0  0  0
    0.1931   52.5059   30.8861 C   0  0  0  0  0  0
    1.4151   53.1503   30.5060 O   0  0  0  0  0  0
    7.5349   55.2232   25.0093 H   0  0  0  0  0  0
    7.4637   54.8866   27.4896 H   0  0  0  0  0  0
    5.4107   54.1696   28.5545 H   0  0  0  0  0  0
    5.6086   54.8030   23.6632 H   0  0  0  0  0  0
    2.3462   53.6676   25.1322 H   0  0  0  0  0  0
    1.3900   53.6971   21.8001 H   0  0  0  0  0  0
    1.8384   52.1675   22.3596 H   0  0  0  0  0  0
    0.0236   54.0803   23.7224 H   0  0  0  0  0  0
    1.6327   50.7271   23.9889 H   0  0  0  0  0  0
    0.6250   48.9144   25.2979 H   0  0  0  0  0  0
   -1.4749   49.2541   26.4801 H   0  0  0  0  0  0
   -1.6427   53.2961   25.0259 H   0  0  0  0  0  0
   -2.6380   50.0041   27.8475 H   0  0  0  0  0  0
   -3.2957   49.6971   30.0289 H   0  0  0  0  0  0
   -5.0189   49.8706   31.7560 H   0  0  0  0  0  0
   -7.1096   51.0939   31.3094 H   0  0  0  0  0  0
   -5.7595   51.9757   27.3398 H   0  0  0  0  0  0
    3.3518   54.3203   29.2221 H   0  0  0  0  0  0
    3.5006   52.5747   28.9609 H   0  0  0  0  0  0
    1.4034   51.2368   28.5754 H   0  0  0  0  0  0
    0.4148   52.2122   27.5489 H   0  0  0  0  0  0
   -0.7010   50.8967   29.6902 H   0  0  0  0  0  0
   -1.2585   52.4965   29.2761 H   0  0  0  0  0  0
    0.3913   51.7121   31.6098 H   0  0  0  0  0  0
   -0.4959   53.2293   31.3250 H   0  0  0  0  0  0
  1  6  2  0  0  0
  1  2  1  0  0  0
  1 39  1  0  0  0
  2  3  2  0  0  0
  2 40  1  0  0  0
  3  4  1  0  0  0
  3 41  1  0  0  0
  4  5  2  0  0  0
  4 31  1  0  0  0
  5  6  1  0  0  0
  5  7  1  0  0  0
  6 42  1  0  0  0
  7  8  1  0  0  0
  7 43  1  0  0  0
  8  9  2  0  0  0
  8 10  1  0  0  0
 10 11  1  0  0  0
 10 44  1  0  0  0
 10 45  1  0  0  0
 11 12  1  0  0  0
 11 46  1  0  0  0
 12 17  2  0  0  0
 12 13  1  0  0  0
 13 14  2  0  0  0
 13 47  1  0  0  0
 14 15  1  0  0  0
 14 48  1  0  0  0
 15 16  2  0  0  0
 15 49  1  0  0  0
 16 17  1  0  0  0
 16 18  1  0  0  0
 17 50  1  0  0  0
 18 19  2  0  0  0
 18 20  1  0  0  0
 20 21  1  0  0  0
 20 51  1  0  0  0
 21 26  2  0  0  0
 21 22  1  0  0  0
 22 23  2  0  0  0
 22 52  1  0  0  0
 23 24  1  0  0  0
 23 53  1  0  0  0
 24 25  2  0  0  0
 24 54  1  0  0  0
 25 26  1  0  0  0
 25 27  1  0  0  0
 26 55  1  0  0  0
 27 28  1  0  0  0
 27 29  1  0  0  0
 27 30  1  0  0  0
 31 32  1  0  0  0
 32 33  1  0  0  0
 32 56  1  0  0  0
 32 57  1  0  0  0
 33 34  1  0  0  0
 33 38  1  0  0  0
 33 35  1  0  0  0
 35 36  1  0  0  0
 35 58  1  0  0  0
 35 59  1  0  0  0
 36 37  1  0  0  0
 36 60  1  0  0  0
 36 61  1  0  0  0
 37 38  1  0  0  0
 37 62  1  0  0  0
 37 63  1  0  0  0
M  END
> <i_i_glide_confnum>
152

> <i_i_glide_lignum>
2894

> <i_i_glide_posenum>
84

> <i_i_glide_rotatable_bonds>
12

> <i_m_Source_File_Index>
3286

> <b_m_subgroup_collapsed>
0

> <r_i_docking_score>
-5.49775

> <r_i_glide_ecoul>
-6.18638

> <r_i_glide_eff_state_penalty>
0

> <r_i_glide_einternal>
6.646

> <r_i_glide_emodel>
-69.8169

> <r_i_glide_energy>
-53.7341

> <r_i_glide_erotb>
0.855443

> <r_i_glide_esite>
-0.114369

> <r_i_glide_evdw>
-47.5477

> <r_i_glide_gscore>
-5.49775

> <r_i_glide_hbond>
-0.143518

> <r_i_glide_ligand_efficiency>
-0.148588

> <r_i_glide_ligand_efficiency_ln>
-1.19233

> <r_i_glide_ligand_efficiency_sa>
-0.495127

> <r_i_glide_lipo>
-2.4267

> <r_i_glide_metal>
0

> <r_i_glide_rewards>
-0.363261

> <s_i_glide_gridfile>
wee1_glide-grid

> <s_m_Source_File>
wee1_decoys_glide_SP.sdf

> <s_m_Source_Path>
/Users/zhangxujun/Desktop

> <s_m_entry_id>
3561

> <s_m_entry_name>
wee1_decoys_glide_SP.3286

> <s_m_subgroup_title>
wee1_decoys_glide_SP

> <s_m_subgroupid>
wee1_decoys_glide_SP


$$$$
