@<TRIPOS>MOLECULE
ZINC35023247_4442
45   47    1
SMALL
USER_CHARGES


@<TRIPOS>ATOM
      1 C1          6.5302   54.8280   27.1811 C.3       1 UNK         0.0000 
      2 O2          6.0803   54.9174   25.8316 O.3       1 UNK         0.0000 
      3 C3          4.8288   54.4194   25.5198 C.ar      1 UNK         0.0000 
      4 C4          3.9239   53.9451   26.4764 C.ar      1 UNK         0.0000 
      5 C5          2.6860   53.4544   26.0878 C.ar      1 UNK         0.0000 
      6 C6          2.3251   53.3908   24.7426 C.ar      1 UNK         0.0000 
      7 C7          3.2052   53.9154   23.7863 C.ar      1 UNK         0.0000 
      8 C8          4.4518   54.4102   24.1752 C.ar      1 UNK         0.0000 
      9 C9          0.9628   52.9245   24.3419 C.2       1 UNK         0.0000 
     10 O10         0.2265   53.6585   23.6897 O.2       1 UNK         0.0000 
     11 C11         0.5877   51.4135   24.5243 C.3       1 UNK         0.0000 
     12 H12         1.5039   50.9194   24.8338 H         1 UNK         0.0000 
     13 C13        -0.4534   51.1784   25.6914 C.3       1 UNK         0.0000 
     14 H14        -1.3537   51.7592   25.4785 H         1 UNK         0.0000 
     15 N15        -0.8707   49.7638   25.6842 N.pl3     1 UNK         0.0000 
     16 C16        -0.9080   48.9337   24.6129 C.2       1 UNK         0.0000 
     17 S17        -1.6942   47.4767   24.6517 S.2       1 UNK         0.0000 
     18 N18        -0.2656   49.3482   23.4921 N.pl3     1 UNK         0.0000 
     19 C19         0.1640   50.7138   23.1583 C.3       1 UNK         0.0000 
     20 C20         1.3194   50.6849   22.0997 C.3       1 UNK         0.0000 
     21 F21         1.6903   51.8938   21.6746 F         1 UNK         0.0000 
     22 F22         2.4075   50.0956   22.5958 F         1 UNK         0.0000 
     23 F23         0.9704   49.9879   21.0156 F         1 UNK         0.0000 
     24 O24        -0.9524   51.3583   22.5609 O.3       1 UNK         0.0000 
     25 C25         0.0491   51.6295   27.0611 C.ar      1 UNK         0.0000 
     26 C26        -0.4933   52.7549   27.6814 C.ar      1 UNK         0.0000 
     27 C27         0.0347   53.2162   28.8876 C.ar      1 UNK         0.0000 
     28 C28         1.1121   52.5551   29.4669 C.ar      1 UNK         0.0000 
     29 C29         1.6489   51.4240   28.8605 C.ar      1 UNK         0.0000 
     30 C30         1.0965   50.9421   27.6804 C.ar      1 UNK         0.0000 
     31 F31         1.6583   53.0219   30.6121 F         1 UNK         0.0000 
     32 H32         7.5047   55.2967   27.2757 H         1 UNK         0.0000 
     33 H33         6.6347   53.7877   27.4956 H         1 UNK         0.0000 
     34 H34         5.8678   55.3458   27.8751 H         1 UNK         0.0000 
     35 H35         4.1498   53.9530   27.5308 H         1 UNK         0.0000 
     36 H36         2.0137   53.1688   26.8664 H         1 UNK         0.0000 
     37 H37         2.9336   53.9390   22.7389 H         1 UNK         0.0000 
     38 H38         5.1327   54.7979   23.4318 H         1 UNK         0.0000 
     39 H39        -1.2924   49.3707   26.5231 H         1 UNK         0.0000 
     40 H40        -0.3694   48.7006   22.7245 H         1 UNK         0.0000 
     41 H41        -1.6736   51.3468   23.1930 H         1 UNK         0.0000 
     42 H42        -1.3017   53.2951   27.2162 H         1 UNK         0.0000 
     43 H43        -0.3745   54.0959   29.3632 H         1 UNK         0.0000 
     44 H44         2.4975   50.9154   29.2822 H         1 UNK         0.0000 
     45 H45         1.5044   50.0554   27.2270 H         1 UNK         0.0000 
@<TRIPOS>BOND
     1    1    2 1    
     2    1   32 1    
     3    1   33 1    
     4    1   34 1    
     5    2    3 1    
     6    3    8 ar   
     7    3    4 ar   
     8    4    5 ar   
     9    4   35 1    
    10    5    6 ar   
    11    5   36 1    
    12    6    7 ar   
    13    6    9 1    
    14    7    8 ar   
    15    7   37 1    
    16    8   38 1    
    17    9   10 2    
    18    9   11 1    
    19   11   12 1    
    20   11   19 1    
    21   11   13 1    
    22   13   14 1    
    23   13   15 1    
    24   13   25 1    
    25   15   16 1    
    26   15   39 1    
    27   16   17 2    
    28   16   18 1    
    29   18   19 1    
    30   18   40 1    
    31   19   20 1    
    32   19   24 1    
    33   20   21 1    
    34   20   22 1    
    35   20   23 1    
    36   24   41 1    
    37   25   30 ar   
    38   25   26 ar   
    39   26   27 ar   
    40   26   42 1    
    41   27   28 ar   
    42   27   43 1    
    43   28   29 ar   
    44   28   31 1    
    45   29   30 ar   
    46   29   44 1    
    47   30   45 1    
@<TRIPOS>SUBSTRUCTURE
     1 UNK         1 GROUP             0       ****    0 ROOT    
