@<TRIPOS>MOLECULE
ZINC64928186_5070
61   64    1
SMALL
USER_CHARGES


@<TRIPOS>ATOM
      1 C1         -8.4416   54.7878   27.1339 C.3       1 UNK         0.0000 
      2 C2         -7.3836   53.7410   27.5315 C.3       1 UNK         0.0000 
      3 C3         -6.1365   53.7849   26.6399 C.2       1 UNK         0.0000 
      4 O4         -5.5501   54.8546   26.4789 O.2       1 UNK         0.0000 
      5 N5         -5.7712   52.6009   26.1075 N.am      1 UNK         0.0000 
      6 C6         -4.7459   52.2927   25.1988 C.ar      1 UNK         0.0000 
      7 C7         -4.6979   50.9608   24.7851 C.ar      1 UNK         0.0000 
      8 C8         -3.7743   50.5516   23.8320 C.ar      1 UNK         0.0000 
      9 C9         -2.8924   51.4817   23.2801 C.ar      1 UNK         0.0000 
     10 C10        -2.8969   52.8057   23.7202 C.ar      1 UNK         0.0000 
     11 C11        -3.8252   53.2134   24.6744 C.ar      1 UNK         0.0000 
     12 S12        -1.7638   50.9794   21.9831 S.o2      1 UNK         0.0000 
     13 O13        -2.1985   49.6502   21.5403 O.2       1 UNK         0.0000 
     14 O14        -1.6942   52.0951   21.0312 O.2       1 UNK         0.0000 
     15 N15        -0.1850   50.7807   22.7658 N.pl3     1 UNK         0.0000 
     16 C16        -0.0554   49.9095   23.9547 C.3       1 UNK         0.0000 
     17 C17        -0.0945   50.7659   25.2308 C.3       1 UNK         0.0000 
     18 C18         0.8872   51.9438   25.1539 C.ar      1 UNK         0.0000 
     19 C19         1.3921   52.5069   26.3336 C.ar      1 UNK         0.0000 
     20 C20         2.2997   53.5617   26.2991 C.ar      1 UNK         0.0000 
     21 C21         2.6873   54.0967   25.0766 C.ar      1 UNK         0.0000 
     22 C22         2.1571   53.5844   23.8986 C.ar      1 UNK         0.0000 
     23 C23         1.3017   52.4750   23.9048 C.ar      1 UNK         0.0000 
     24 C24         0.8778   51.8039   22.5848 C.3       1 UNK         0.0000 
     25 H25         0.4943   52.5663   21.9055 H         1 UNK         0.0000 
     26 C26         2.0516   51.0583   21.8769 C.3       1 UNK         0.0000 
     27 C27         2.8714   51.9887   20.9761 C.2       1 UNK         0.0000 
     28 O28         2.4353   52.2657   19.8590 O.2       1 UNK         0.0000 
     29 N29         4.0031   52.4956   21.5113 N.am      1 UNK         0.0000 
     30 C30         4.8603   53.4488   20.9442 C.ar      1 UNK         0.0000 
     31 C31         5.1074   53.5327   19.5675 C.ar      1 UNK         0.0000 
     32 C32         5.9748   54.5056   19.0807 C.ar      1 UNK         0.0000 
     33 C33         6.5990   55.3833   19.9657 C.ar      1 UNK         0.0000 
     34 C34         6.3658   55.2968   21.3369 C.ar      1 UNK         0.0000 
     35 C35         5.5016   54.3221   21.8268 C.ar      1 UNK         0.0000 
     36 Cl36        7.6828   56.5805   19.3596 Cl        1 UNK         0.0000 
     37 H37        -9.3284   54.6841   27.7661 H         1 UNK         0.0000 
     38 H38        -8.7703   54.6697   26.0990 H         1 UNK         0.0000 
     39 H39        -8.0776   55.8072   27.2810 H         1 UNK         0.0000 
     40 H40        -7.0668   53.9131   28.5623 H         1 UNK         0.0000 
     41 H41        -7.8405   52.7479   27.5204 H         1 UNK         0.0000 
     42 H42        -6.3401   51.8105   26.3699 H         1 UNK         0.0000 
     43 H43        -5.3898   50.2312   25.1832 H         1 UNK         0.0000 
     44 H44        -3.7668   49.5202   23.5056 H         1 UNK         0.0000 
     45 H45        -2.1979   53.5244   23.3101 H         1 UNK         0.0000 
     46 H46        -3.8194   54.2482   24.9772 H         1 UNK         0.0000 
     47 H47        -0.8392   49.1520   23.9403 H         1 UNK         0.0000 
     48 H48         0.9113   49.4084   23.8787 H         1 UNK         0.0000 
     49 H49        -1.0854   51.2041   25.3468 H         1 UNK         0.0000 
     50 H50         0.0974   50.1522   26.1100 H         1 UNK         0.0000 
     51 H51         1.0832   52.1087   27.2897 H         1 UNK         0.0000 
     52 H52         2.6912   53.9699   27.2191 H         1 UNK         0.0000 
     53 H53         3.3770   54.9250   25.0423 H         1 UNK         0.0000 
     54 H54         2.4513   54.0351   22.9615 H         1 UNK         0.0000 
     55 H55         2.7051   50.5885   22.6133 H         1 UNK         0.0000 
     56 H56         1.6929   50.2570   21.2267 H         1 UNK         0.0000 
     57 H57         4.1777   52.2687   22.4757 H         1 UNK         0.0000 
     58 H58         4.6520   52.8410   18.8741 H         1 UNK         0.0000 
     59 H59         6.1676   54.5670   18.0197 H         1 UNK         0.0000 
     60 H60         6.8618   55.9737   22.0168 H         1 UNK         0.0000 
     61 H61         5.3244   54.2610   22.8909 H         1 UNK         0.0000 
@<TRIPOS>BOND
     1    1    2 1    
     2    1   37 1    
     3    1   38 1    
     4    1   39 1    
     5    2    3 1    
     6    2   40 1    
     7    2   41 1    
     8    3    4 2    
     9    3    5 am   BACKBONE|DICT|INTERRES
    10    5    6 1    
    11    5   42 1    
    12    6   11 ar   
    13    6    7 ar   
    14    7    8 ar   
    15    7   43 1    
    16    8    9 ar   
    17    8   44 1    
    18    9   10 ar   
    19    9   12 1    
    20   10   11 ar   
    21   10   45 1    
    22   11   46 1    
    23   12   13 2    
    24   12   14 2    
    25   12   15 1    
    26   15   24 1    
    27   15   16 1    
    28   16   17 1    
    29   16   47 1    
    30   16   48 1    
    31   17   18 1    
    32   17   49 1    
    33   17   50 1    
    34   18   23 ar   
    35   18   19 ar   
    36   19   20 ar   
    37   19   51 1    
    38   20   21 ar   
    39   20   52 1    
    40   21   22 ar   
    41   21   53 1    
    42   22   23 ar   
    43   22   54 1    
    44   23   24 1    
    45   24   25 1    
    46   24   26 1    
    47   26   27 1    
    48   26   55 1    
    49   26   56 1    
    50   27   28 2    
    51   27   29 am   BACKBONE|DICT|INTERRES
    52   29   30 1    
    53   29   57 1    
    54   30   35 ar   
    55   30   31 ar   
    56   31   32 ar   
    57   31   58 1    
    58   32   33 ar   
    59   32   59 1    
    60   33   34 ar   
    61   33   36 1    
    62   34   35 ar   
    63   34   60 1    
    64   35   61 1    
@<TRIPOS>SUBSTRUCTURE
     1 UNK         1 GROUP             0       ****    0 ROOT    
