@<TRIPOS>MOLECULE
ZINC08978262_4011
50   54    1
SMALL
USER_CHARGES


@<TRIPOS>ATOM
      1 C1          6.0662   54.0955   28.3545 C.ar      1 UNK         0.0000 
      2 C2          4.6745   54.1242   28.4570 C.ar      1 UNK         0.0000 
      3 C3          3.8665   54.2253   27.3259 C.ar      1 UNK         0.0000 
      4 C4          4.5021   54.3074   26.0789 C.ar      1 UNK         0.0000 
      5 C5          5.9128   54.2643   25.9591 C.ar      1 UNK         0.0000 
      6 C6          6.7029   54.1520   27.1126 C.ar      1 UNK         0.0000 
      7 N7          6.3890   54.3386   24.6876 N.2       1 UNK         0.0000 
      8 C8          5.4216   54.4220   23.8090 C.2       1 UNK         0.0000 
      9 S9          3.8059   54.4746   24.4828 S.3       1 UNK         0.0000 
     10 C10         5.6518   54.5701   22.3577 C.2       1 UNK         0.0000 
     11 C11         6.8146   55.1872   21.8529 C.2       1 UNK         0.0000 
     12 C12         6.8404   55.2966   20.4708 C.2       1 UNK         0.0000 
     13 S13         5.4179   54.6328   19.7407 S.3       1 UNK         0.0000 
     14 C14         4.7803   54.2305   21.3025 C.2       1 UNK         0.0000 
     15 N15         3.5055   53.6971   21.3409 N.am      1 UNK         0.0000 
     16 C16         3.2565   52.3984   21.5943 C.2       1 UNK         0.0000 
     17 O17         4.1444   51.5455   21.6719 O.2       1 UNK         0.0000 
     18 C18         1.7747   52.0127   21.8449 C.3       1 UNK         0.0000 
     19 H19         1.1601   52.8833   21.6164 H         1 UNK         0.0000 
     20 C20         1.3525   50.7489   21.0528 C.3       1 UNK         0.0000 
     21 C21         0.8085   49.7713   22.0853 C.3       1 UNK         0.0000 
     22 C22         1.5841   50.1007   23.3534 C.3       1 UNK         0.0000 
     23 N23         1.6516   51.5789   23.2733 N.pl3     1 UNK         0.0000 
     24 S24         0.8275   52.5946   24.4727 S.o2      1 UNK         0.0000 
     25 O25         0.7050   53.9381   23.8971 O.2       1 UNK         0.0000 
     26 O26         1.4989   52.4013   25.7614 O.2       1 UNK         0.0000 
     27 C27        -0.8263   51.9298   24.6613 C.ar      1 UNK         0.0000 
     28 C28        -1.8910   52.4794   23.9465 C.ar      1 UNK         0.0000 
     29 C29        -3.1758   51.9713   24.1213 C.ar      1 UNK         0.0000 
     30 C30        -3.3893   50.9160   25.0044 C.ar      1 UNK         0.0000 
     31 C31        -2.3272   50.3607   25.7192 C.ar      1 UNK         0.0000 
     32 C32        -1.0434   50.8688   25.5476 C.ar      1 UNK         0.0000 
     33 Cl33       -4.9829   50.2947   25.2200 Cl        1 UNK         0.0000 
     34 H34         6.6638   54.0304   29.2544 H         1 UNK         0.0000 
     35 H35         4.2168   54.0696   29.4334 H         1 UNK         0.0000 
     36 H36         2.7903   54.2465   27.4035 H         1 UNK         0.0000 
     37 H37         7.7789   54.1095   27.0541 H         1 UNK         0.0000 
     38 H38         7.6184   55.5417   22.4836 H         1 UNK         0.0000 
     39 H39         7.6224   55.7132   19.8542 H         1 UNK         0.0000 
     40 H40         2.7321   54.3183   21.1372 H         1 UNK         0.0000 
     41 H41         2.1818   50.2848   20.5114 H         1 UNK         0.0000 
     42 H42         0.5836   50.9866   20.3169 H         1 UNK         0.0000 
     43 H43         0.9382   48.7322   21.7793 H         1 UNK         0.0000 
     44 H44        -0.2600   49.9340   22.2473 H         1 UNK         0.0000 
     45 H45         2.5973   49.6964   23.2858 H         1 UNK         0.0000 
     46 H46         1.2150   49.7184   24.3057 H         1 UNK         0.0000 
     47 H47        -1.7274   53.3125   23.2784 H         1 UNK         0.0000 
     48 H48        -4.0054   52.4034   23.5811 H         1 UNK         0.0000 
     49 H49        -2.4921   49.5453   26.4105 H         1 UNK         0.0000 
     50 H50        -0.2280   50.4409   26.1154 H         1 UNK         0.0000 
@<TRIPOS>BOND
     1    1    6 ar   
     2    1    2 ar   
     3    1   34 1    
     4    2    3 ar   
     5    2   35 1    
     6    3    4 ar   
     7    3   36 1    
     8    4    9 1    
     9    4    5 ar   
    10    5    6 ar   
    11    5    7 1    
    12    6   37 1    
    13    7    8 2    
    14    8    9 1    
    15    8   10 1    
    16   10   14 2    
    17   10   11 1    
    18   11   12 2    
    19   11   38 1    
    20   12   13 1    
    21   12   39 1    
    22   13   14 1    
    23   14   15 am   BACKBONE|DICT|INTERRES
    24   15   16 am   BACKBONE|DICT|INTERRES
    25   15   40 1    
    26   16   17 2    
    27   16   18 1    
    28   18   19 1    
    29   18   23 1    
    30   18   20 1    
    31   20   21 1    
    32   20   41 1    
    33   20   42 1    
    34   21   22 1    
    35   21   43 1    
    36   21   44 1    
    37   22   23 1    
    38   22   45 1    
    39   22   46 1    
    40   23   24 1    
    41   24   25 2    
    42   24   26 2    
    43   24   27 1    
    44   27   32 ar   
    45   27   28 ar   
    46   28   29 ar   
    47   28   47 1    
    48   29   30 ar   
    49   29   48 1    
    50   30   31 ar   
    51   30   33 1    
    52   31   32 ar   
    53   31   49 1    
    54   32   50 1    
@<TRIPOS>SUBSTRUCTURE
     1 UNK         1 GROUP             0       ****    0 ROOT    
