ZINC39577347_34
                    3D
 Schrodinger Suite 2024-2.
 53 56  0  0  1  0            999 V2000
    6.4769   56.9797   17.0977 C   0  0  0  0  0  0
    4.9725   56.7905   17.3520 C   0  0  2  0  0  0
    4.6821   57.4327   18.1865 H   0  0  0  0  0  0
    4.5134   55.3467   17.6205 C   0  0  2  0  0  0
    5.0537   54.7112   16.9151 H   0  0  0  0  0  0
    3.0295   55.3882   17.1934 C   0  0  1  0  0  0
    2.3899   55.3433   18.0795 H   0  0  0  0  0  0
    2.8462   56.7107   16.5955 N   0  0  0  0  0  0
    4.1712   57.1583   16.1998 N   0  0  0  0  0  0
    1.6997   57.3721   16.1147 C   0  0  0  0  0  0
    0.4343   56.8969   16.4813 C   0  0  0  0  0  0
   -0.7242   57.5432   16.0586 C   0  0  0  0  0  0
   -0.6262   58.6772   15.2600 C   0  0  0  0  0  0
    0.6199   59.1716   14.8871 C   0  0  0  0  0  0
    1.7767   58.5261   15.3165 C   0  0  0  0  0  0
    2.6503   54.2397   16.2391 C   0  0  0  0  0  0
    4.7429   54.7731   19.0149 C   0  0  0  0  0  0
    5.5042   55.2963   19.8846 N   0  0  0  0  0  0
    5.4884   54.6058   21.0392 N   0  0  0  0  0  0
    6.2865   54.8958   22.0846 C   0  0  0  0  0  0
    7.1035   55.8211   22.0822 O   0  0  0  0  0  0
    6.1498   53.9272   23.2815 C   0  0  2  0  0  0
    6.3422   52.9260   22.8920 H   0  0  0  0  0  0
    4.8339   54.0125   23.9994 C   0  0  0  0  0  0
    5.1821   54.1924   25.2803 C   0  0  0  0  0  0
    6.5191   54.3420   25.4347 N   0  0  0  0  0  0
    7.1043   54.1948   24.3210 N   0  0  0  0  0  0
    4.2990   54.1386   26.4774 C   0  0  0  0  0  0
    4.7774   54.4968   27.7470 C   0  0  0  0  0  0
    3.9451   54.4558   28.8615 C   0  0  0  0  0  0
    2.6250   54.0401   28.7204 C   0  0  0  0  0  0
    2.1360   53.6567   27.4751 C   0  0  0  0  0  0
    2.9706   53.7017   26.3608 C   0  0  0  0  0  0
    1.5887   54.0031   30.0981 Cl  0  0  0  0  0  0
    7.0685   56.6559   17.9538 H   0  0  0  0  0  0
    6.8129   56.4108   16.2304 H   0  0  0  0  0  0
    6.7134   58.0288   16.9158 H   0  0  0  0  0  0
    4.1196   58.1702   16.1815 H   0  0  0  0  0  0
    0.3420   56.0268   17.1134 H   0  0  0  0  0  0
   -1.6942   57.1697   16.3539 H   0  0  0  0  0  0
   -1.5222   59.1828   14.9301 H   0  0  0  0  0  0
    0.6927   60.0575   14.2730 H   0  0  0  0  0  0
    2.7287   58.9398   15.0223 H   0  0  0  0  0  0
    2.8394   53.2703   16.6984 H   0  0  0  0  0  0
    1.5938   54.2737   15.9736 H   0  0  0  0  0  0
    3.2218   54.2870   15.3120 H   0  0  0  0  0  0
    4.1848   53.8486   19.1672 H   0  0  0  0  0  0
    4.8565   53.8199   21.0613 H   0  0  0  0  0  0
    3.8628   53.8380   23.5592 H   0  0  0  0  0  0
    5.7983   54.8286   27.8808 H   0  0  0  0  0  0
    4.3315   54.7460   29.8266 H   0  0  0  0  0  0
    1.1134   53.3271   27.3705 H   0  0  0  0  0  0
    2.5696   53.3971   25.4050 H   0  0  0  0  0  0
  1  2  1  0  0  0
  1 35  1  0  0  0
  1 36  1  0  0  0
  1 37  1  0  0  0
  2  3  1  0  0  0
  2  9  1  0  0  0
  2  4  1  0  0  0
  4  5  1  0  0  0
  4  6  1  0  0  0
  4 17  1  0  0  0
  6  7  1  0  0  0
  6  8  1  0  0  0
  6 16  1  0  0  0
  8  9  1  0  0  0
  8 10  1  0  0  0
  9 38  1  0  0  0
 10 15  2  0  0  0
 10 11  1  0  0  0
 11 12  2  0  0  0
 11 39  1  0  0  0
 12 13  1  0  0  0
 12 40  1  0  0  0
 13 14  2  0  0  0
 13 41  1  0  0  0
 14 15  1  0  0  0
 14 42  1  0  0  0
 15 43  1  0  0  0
 16 44  1  0  0  0
 16 45  1  0  0  0
 16 46  1  0  0  0
 17 18  2  0  0  0
 17 47  1  0  0  0
 18 19  1  0  0  0
 19 20  1  0  0  0
 19 48  1  0  0  0
 20 21  2  0  0  0
 20 22  1  0  0  0
 22 23  1  0  0  0
 22 27  1  0  0  0
 22 24  1  0  0  0
 24 25  2  0  0  0
 24 49  1  0  0  0
 25 26  1  0  0  0
 25 28  1  0  0  0
 26 27  2  0  0  0
 28 33  2  0  0  0
 28 29  1  0  0  0
 29 30  2  0  0  0
 29 50  1  0  0  0
 30 31  1  0  0  0
 30 51  1  0  0  0
 31 32  2  0  0  0
 31 34  1  0  0  0
 32 33  1  0  0  0
 32 52  1  0  0  0
 33 53  1  0  0  0
M  END
> <i_i_glide_confnum>
30

> <i_i_glide_lignum>
35

> <i_i_glide_posenum>
108

> <i_i_glide_rotatable_bonds>
6

> <i_m_Source_File_Index>
5481

> <b_m_subgroup_collapsed>
0

> <r_i_docking_score>
-5.21561

> <r_i_glide_ecoul>
-1.54177

> <r_i_glide_eff_state_penalty>
0

> <r_i_glide_einternal>
0.345022

> <r_i_glide_emodel>
-58.9371

> <r_i_glide_energy>
-42.0045

> <r_i_glide_erotb>
0.664725

> <r_i_glide_esite>
0

> <r_i_glide_evdw>
-40.4628

> <r_i_glide_gscore>
-5.21561

> <r_i_glide_hbond>
0

> <r_i_glide_ligand_efficiency>
-0.173854

> <r_i_glide_ligand_efficiency_ln>
-1.18504

> <r_i_glide_ligand_efficiency_sa>
-0.540203

> <r_i_glide_lipo>
-2.51538

> <r_i_glide_metal>
0

> <r_i_glide_rewards>
-1.11055

> <s_i_glide_gridfile>
wee1_glide-grid

> <s_m_Source_File>
wee1_decoys_glide_SP.sdf

> <s_m_Source_Path>
/Users/zhangxujun/Desktop

> <s_m_entry_id>
5756

> <s_m_entry_name>
wee1_decoys_glide_SP.5481

> <s_m_subgroup_title>
wee1_decoys_glide_SP

> <s_m_subgroupid>
wee1_decoys_glide_SP


$$$$
