@<TRIPOS>MOLECULE
ZINC39769015_140
48   52    1
SMALL
USER_CHARGES


@<TRIPOS>ATOM
      1 C1          1.2685   52.4395   31.7314 C.ar      1 UNK         0.0000 
      2 C2          2.5397   52.0967   31.2817 C.ar      1 UNK         0.0000 
      3 C3          2.8843   52.3270   29.9525 C.ar      1 UNK         0.0000 
      4 C4          1.9815   52.9570   29.0834 C.ar      1 UNK         0.0000 
      5 C5          0.7249   53.3423   29.5774 C.ar      1 UNK         0.0000 
      6 C6          0.3613   53.0589   30.8871 C.ar      1 UNK         0.0000 
      7 C7          2.2974   53.1809   27.6417 C.2       1 UNK         0.0000 
      8 C8          3.4922   53.7019   27.2096 C.2       1 UNK         0.0000 
      9 C9          4.6080   54.1373   28.0806 C.2       1 UNK         0.0000 
     10 C10         5.7788   54.5787   27.5844 C.2       1 UNK         0.0000 
     11 C11         5.9162   54.6720   26.1436 C.2       1 UNK         0.0000 
     12 C12         4.9030   54.3386   25.3085 C.2       1 UNK         0.0000 
     13 C13         3.6878   53.8455   25.8065 C.2       1 UNK         0.0000 
     14 N14         2.7642   53.5068   24.9137 N.pl3     1 UNK         0.0000 
     15 C15         1.5042   52.9541   25.1501 C.2       1 UNK         0.0000 
     16 O16         0.7170   52.7139   24.2382 O.2       1 UNK         0.0000 
     17 C17         1.1941   52.7239   26.6533 C.3       1 UNK         0.0000 
     18 H18         0.3083   53.2964   26.8818 H         1 UNK         0.0000 
     19 S19         0.7044   50.9691   26.8817 S.3       1 UNK         0.0000 
     20 C20        -0.9334   50.9780   26.1964 C.ar      1 UNK         0.0000 
     21 N21        -1.7346   52.0175   26.1512 N.2       1 UNK         0.0000 
     22 N22        -2.9041   51.6235   25.5126 N.2       1 UNK         0.0000 
     23 C23        -2.7833   50.3487   25.2266 C.ar      1 UNK         0.0000 
     24 N24        -1.5713   49.8721   25.6817 N.pl3     1 UNK         0.0000 
     25 N25        -1.1079   48.5697   25.6817 N.3       1 UNK         0.0000 
     26 C26        -3.8483   49.5428   24.5551 C.ar      1 UNK         0.0000 
     27 C27        -5.1654   49.6434   25.0201 C.ar      1 UNK         0.0000 
     28 C28        -6.1881   48.9098   24.4188 C.ar      1 UNK         0.0000 
     29 C29        -5.9044   48.0724   23.3411 C.ar      1 UNK         0.0000 
     30 C30        -4.5979   47.9726   22.8640 C.ar      1 UNK         0.0000 
     31 C31        -3.5722   48.7044   23.4639 C.ar      1 UNK         0.0000 
     32 F32        -2.3196   48.6069   22.9598 F         1 UNK         0.0000 
     33 H33         0.9747   52.2218   32.7498 H         1 UNK         0.0000 
     34 H34         3.2389   51.6280   31.9596 H         1 UNK         0.0000 
     35 H35         3.8498   51.9936   29.5991 H         1 UNK         0.0000 
     36 H36        -0.0025   53.8347   28.9499 H         1 UNK         0.0000 
     37 H37        -0.6222   53.2972   31.2588 H         1 UNK         0.0000 
     38 H38         4.5036   54.1322   29.1546 H         1 UNK         0.0000 
     39 H39         6.5770   54.8965   28.2401 H         1 UNK         0.0000 
     40 H40         6.8443   55.0305   25.7232 H         1 UNK         0.0000 
     41 H41         5.0462   54.4310   24.2400 H         1 UNK         0.0000 
     42 H42        -0.2095   48.4847   25.2312 H         1 UNK         0.0000 
     43 H43        -1.1006   48.2140   26.6424 H         1 UNK         0.0000 
     44 H44        -5.3965   50.2868   25.8572 H         1 UNK         0.0000 
     45 H45        -7.1997   48.9915   24.7893 H         1 UNK         0.0000 
     46 H46        -6.6970   47.5063   22.8738 H         1 UNK         0.0000 
     47 H47        -4.3780   47.3337   22.0219 H         1 UNK         0.0000 
     48 H48         2.9788   53.6364   23.9300 H         1 UNK         0.0000 
@<TRIPOS>BOND
     1    1    6 ar   
     2    1    2 ar   
     3    1   33 1    
     4    2    3 ar   
     5    2   34 1    
     6    3    4 ar   
     7    3   35 1    
     8    4    5 ar   
     9    4    7 1    
    10    5    6 ar   
    11    5   36 1    
    12    6   37 1    
    13    7   17 1    
    14    7    8 2    
    15    8   13 1    
    16    8    9 1    
    17    9   10 2    
    18    9   38 1    
    19   10   11 1    
    20   10   39 1    
    21   11   12 2    
    22   11   40 1    
    23   12   13 1    
    24   12   41 1    
    25   13   14 2    
    26   14   15 1    
    27   14   48 1    
    28   15   16 2    
    29   15   17 1    
    30   17   18 1    
    31   17   19 1    
    32   19   20 1    
    33   20   24 ar   
    34   20   21 ar   
    35   21   22 ar   
    36   22   23 ar   
    37   23   24 ar   
    38   23   26 1    
    39   24   25 1    
    40   25   42 1    
    41   25   43 1    
    42   26   31 ar   
    43   26   27 ar   
    44   27   28 ar   
    45   27   44 1    
    46   28   29 ar   
    47   28   45 1    
    48   29   30 ar   
    49   29   46 1    
    50   30   31 ar   
    51   30   47 1    
    52   31   32 1    
@<TRIPOS>SUBSTRUCTURE
     1 UNK         1 GROUP             0       ****    0 ROOT    
