@<TRIPOS>MOLECULE
ZINC27552043_4128
55   59    1
SMALL
USER_CHARGES


@<TRIPOS>ATOM
      1 C1          5.0115   54.0967   23.7653 C.3       1 UNK         0.0000 
      2 C2          4.9940   54.1267   22.2533 C.ar      1 UNK         0.0000 
      3 C3          4.1197   53.5190   21.3258 C.ar      1 UNK         0.0000 
      4 C4          4.6468   53.8490   20.1064 C.ar      1 UNK         0.0000 
      5 N5          5.7115   54.6885   20.3174 N.pl3     1 UNK         0.0000 
      6 N6          5.9132   54.8456   21.6382 N.2       1 UNK         0.0000 
      7 C7          6.5316   55.3683   19.3895 C.ar      1 UNK         0.0000 
      8 C8          5.9558   55.9592   18.2598 C.ar      1 UNK         0.0000 
      9 C9          6.7549   56.6643   17.3618 C.ar      1 UNK         0.0000 
     10 C10         8.1245   56.7692   17.5912 C.ar      1 UNK         0.0000 
     11 C11         8.7041   56.1781   18.7099 C.ar      1 UNK         0.0000 
     12 C12         7.9101   55.4782   19.6133 C.ar      1 UNK         0.0000 
     13 Br13        9.2134   57.7358   16.3673 Br        1 UNK         0.0000 
     14 O14         4.2126   53.4583   18.8660 O.3       1 UNK         0.0000 
     15 C15         3.1036   52.5767   18.7977 C.3       1 UNK         0.0000 
     16 H16         3.5035   51.6969   18.2879 H         1 UNK         0.0000 
     17 C17         2.4453   52.2287   20.1499 C.2       1 UNK         0.0000 
     18 C18         2.9048   52.7094   21.3330 C.2       1 UNK         0.0000 
     19 C19         2.1462   52.5460   22.5941 C.ar      1 UNK         0.0000 
     20 C20         1.7324   51.3030   23.0963 C.ar      1 UNK         0.0000 
     21 C21         1.1043   51.2240   24.3444 C.ar      1 UNK         0.0000 
     22 C22         0.9061   52.3869   25.0943 C.ar      1 UNK         0.0000 
     23 C23         1.2373   53.6166   24.5471 C.ar      1 UNK         0.0000 
     24 C24         1.8450   53.7041   23.3092 C.ar      1 UNK         0.0000 
     25 O25         0.3955   52.3921   26.3729 O.3       1 UNK         0.0000 
     26 C26         1.1028   51.6666   27.3854 C.3       1 UNK         0.0000 
     27 C27         2.2205   52.4790   28.0618 C.ar      1 UNK         0.0000 
     28 C28         2.4208   52.3432   29.4402 C.ar      1 UNK         0.0000 
     29 C29         3.4586   53.0290   30.0715 C.ar      1 UNK         0.0000 
     30 C30         4.2826   53.8749   29.3276 C.ar      1 UNK         0.0000 
     31 C31         4.1062   54.0044   27.9567 C.ar      1 UNK         0.0000 
     32 C32         3.0898   53.2974   27.3270 C.ar      1 UNK         0.0000 
     33 C33         1.2415   51.4637   20.0312 C.1       1 UNK         0.0000 
     34 N34         0.2600   50.8502   19.9646 N.1       1 UNK         0.0000 
     35 N35         2.1514   53.2455   17.9533 N.3       1 UNK         0.0000 
     36 H36         4.3950   53.2979   24.1706 H         1 UNK         0.0000 
     37 H37         6.0182   53.9356   24.1545 H         1 UNK         0.0000 
     38 H38         4.6440   55.0262   24.1947 H         1 UNK         0.0000 
     39 H39         4.8926   55.8911   18.0792 H         1 UNK         0.0000 
     40 H40         6.3146   57.1311   16.4935 H         1 UNK         0.0000 
     41 H41         9.7685   56.2609   18.8815 H         1 UNK         0.0000 
     42 H42         8.3711   55.0235   20.4794 H         1 UNK         0.0000 
     43 H43         1.9294   50.3949   22.5450 H         1 UNK         0.0000 
     44 H44         0.8201   50.2636   24.7446 H         1 UNK         0.0000 
     45 H45         1.1045   54.4970   25.1398 H         1 UNK         0.0000 
     46 H46         2.1330   54.6735   22.9309 H         1 UNK         0.0000 
     47 H47         0.3564   51.3949   28.1337 H         1 UNK         0.0000 
     48 H48         1.5017   50.7178   27.0258 H         1 UNK         0.0000 
     49 H49         1.7779   51.6989   30.0221 H         1 UNK         0.0000 
     50 H50         3.6216   52.8977   31.1303 H         1 UNK         0.0000 
     51 H51         5.0754   54.4316   29.8069 H         1 UNK         0.0000 
     52 H52         4.7649   54.6372   27.3798 H         1 UNK         0.0000 
     53 H53         3.0191   53.3758   26.2577 H         1 UNK         0.0000 
     54 H54         1.8791   54.1253   18.3783 H         1 UNK         0.0000 
     55 H55         2.5334   53.4241   17.0359 H         1 UNK         0.0000 
@<TRIPOS>BOND
     1    1    2 1    
     2    1   36 1    
     3    1   37 1    
     4    1   38 1    
     5    2    6 ar   
     6    2    3 ar   
     7    3   18 1    
     8    3    4 ar   
     9    4    5 ar   
    10    4   14 1    
    11    5    6 ar   
    12    5    7 1    
    13    7   12 ar   
    14    7    8 ar   
    15    8    9 ar   
    16    8   39 1    
    17    9   10 ar   
    18    9   40 1    
    19   10   11 ar   
    20   10   13 1    
    21   11   12 ar   
    22   11   41 1    
    23   12   42 1    
    24   14   15 1    
    25   15   16 1    
    26   15   17 1    
    27   15   35 1    
    28   17   18 2    
    29   17   33 1    
    30   18   19 1    
    31   19   24 ar   
    32   19   20 ar   
    33   20   21 ar   
    34   20   43 1    
    35   21   22 ar   
    36   21   44 1    
    37   22   23 ar   
    38   22   25 1    
    39   23   24 ar   
    40   23   45 1    
    41   24   46 1    
    42   25   26 1    
    43   26   27 1    
    44   26   47 1    
    45   26   48 1    
    46   27   32 ar   
    47   27   28 ar   
    48   28   29 ar   
    49   28   49 1    
    50   29   30 ar   
    51   29   50 1    
    52   30   31 ar   
    53   30   51 1    
    54   31   32 ar   
    55   31   52 1    
    56   32   53 1    
    57   33   34 3    
    58   35   54 1    
    59   35   55 1    
@<TRIPOS>SUBSTRUCTURE
     1 UNK         1 GROUP             0       ****    0 ROOT    
