@<TRIPOS>MOLECULE
ZINC39894592_5214
59   62    1
SMALL
USER_CHARGES


@<TRIPOS>ATOM
      1 C1          6.4961   55.0058   25.6608 C.3       1 UNK         0.0000 
      2 C2          5.1035   54.4334   25.4666 C.ar      1 UNK         0.0000 
      3 C3          4.5741   54.3017   24.1836 C.ar      1 UNK         0.0000 
      4 C4          3.3118   53.7430   23.9954 C.ar      1 UNK         0.0000 
      5 C5          2.5496   53.2974   25.0893 C.ar      1 UNK         0.0000 
      6 C6          3.0705   53.4579   26.3962 C.ar      1 UNK         0.0000 
      7 C7          4.3544   54.0033   26.5648 C.ar      1 UNK         0.0000 
      8 C8          2.3237   53.0014   27.6251 C.2       1 UNK         0.0000 
      9 O9          1.9028   51.8445   27.6894 O.2       1 UNK         0.0000 
     10 C10         1.9336   53.9960   28.6745 C.ar      1 UNK         0.0000 
     11 C11         1.1265   53.6017   29.7538 C.ar      1 UNK         0.0000 
     12 C12         0.7044   54.5376   30.6930 C.ar      1 UNK         0.0000 
     13 C13         1.1044   55.8659   30.5663 C.ar      1 UNK         0.0000 
     14 C14         1.9032   56.2668   29.5068 C.ar      1 UNK         0.0000 
     15 C15         2.3030   55.3396   28.5596 C.ar      1 UNK         0.0000 
     16 N16         1.2774   52.6989   24.9475 N.am      1 UNK         0.0000 
     17 C17         0.4709   52.5390   23.8776 C.2       1 UNK         0.0000 
     18 O18         0.7508   52.8954   22.7331 O.2       1 UNK         0.0000 
     19 C19        -0.8669   51.7851   24.1224 C.3       1 UNK         0.0000 
     20 H20        -1.5730   52.3288   23.4918 H         1 UNK         0.0000 
     21 C21        -1.3772   51.9039   25.5952 C.3       1 UNK         0.0000 
     22 C22        -0.8076   50.7976   26.4826 C.2       1 UNK         0.0000 
     23 C23        -0.1204   49.7249   26.0356 C.2       1 UNK         0.0000 
     24 C24         0.1234   49.3984   24.5678 C.3       1 UNK         0.0000 
     25 C25        -0.7885   50.2932   23.6807 C.3       1 UNK         0.0000 
     26 H26        -1.8034   49.9170   23.8339 H         1 UNK         0.0000 
     27 C27        -0.7099   50.0603   22.1557 C.2       1 UNK         0.0000 
     28 O28        -1.5788   50.5555   21.4337 O.2       1 UNK         0.0000 
     29 N29         0.3528   49.3684   21.6931 N.am      1 UNK         0.0000 
     30 C30         0.5716   48.8875   20.3924 C.ar      1 UNK         0.0000 
     31 C31         1.8963   48.6431   20.0249 C.ar      1 UNK         0.0000 
     32 C32         2.1820   48.0970   18.7768 C.ar      1 UNK         0.0000 
     33 C33         1.1417   47.7751   17.9057 C.ar      1 UNK         0.0000 
     34 C34        -0.1820   48.0216   18.2605 C.ar      1 UNK         0.0000 
     35 C35        -0.4700   48.5785   19.5031 C.ar      1 UNK         0.0000 
     36 Br36        1.5189   46.9624   16.2268 Br        1 UNK         0.0000 
     37 H37         6.9474   54.6538   26.5891 H         1 UNK         0.0000 
     38 H38         7.1563   54.6910   24.8507 H         1 UNK         0.0000 
     39 H39         6.4643   56.0952   25.6674 H         1 UNK         0.0000 
     40 H40         5.1455   54.6228   23.3237 H         1 UNK         0.0000 
     41 H41         2.9617   53.6552   22.9792 H         1 UNK         0.0000 
     42 H42         4.7858   54.0973   27.5548 H         1 UNK         0.0000 
     43 H43         0.8033   52.5751   29.8629 H         1 UNK         0.0000 
     44 H44         0.0765   54.2328   31.5190 H         1 UNK         0.0000 
     45 H45         0.7844   56.6060   31.2817 H         1 UNK         0.0000 
     46 H46         2.1988   57.2971   29.4119 H         1 UNK         0.0000 
     47 H47         2.8854   55.6967   27.7282 H         1 UNK         0.0000 
     48 H48         0.9256   52.2934   25.8063 H         1 UNK         0.0000 
     49 H49        -1.2225   52.8963   26.0167 H         1 UNK         0.0000 
     50 H50        -2.4607   51.7728   25.6005 H         1 UNK         0.0000 
     51 H51        -0.9434   50.8713   27.5537 H         1 UNK         0.0000 
     52 H52         0.2426   49.0271   26.7776 H         1 UNK         0.0000 
     53 H53        -0.0490   48.3381   24.3741 H         1 UNK         0.0000 
     54 H54         1.1787   49.5777   24.3568 H         1 UNK         0.0000 
     55 H55         1.0997   49.1984   22.3492 H         1 UNK         0.0000 
     56 H56         2.7054   48.8705   20.7016 H         1 UNK         0.0000 
     57 H57         3.2070   47.9152   18.4836 H         1 UNK         0.0000 
     58 H58        -0.9833   47.7705   17.5776 H         1 UNK         0.0000 
     59 H59        -1.5044   48.7382   19.7736 H         1 UNK         0.0000 
@<TRIPOS>BOND
     1    1    2 1    
     2    1   37 1    
     3    1   38 1    
     4    1   39 1    
     5    2    7 ar   
     6    2    3 ar   
     7    3    4 ar   
     8    3   40 1    
     9    4    5 ar   
    10    4   41 1    
    11    5    6 ar   
    12    5   16 1    
    13    6    7 ar   
    14    6    8 1    
    15    7   42 1    
    16    8    9 2    
    17    8   10 1    
    18   10   15 ar   
    19   10   11 ar   
    20   11   12 ar   
    21   11   43 1    
    22   12   13 ar   
    23   12   44 1    
    24   13   14 ar   
    25   13   45 1    
    26   14   15 ar   
    27   14   46 1    
    28   15   47 1    
    29   16   17 am   BACKBONE|DICT|INTERRES
    30   16   48 1    
    31   17   18 2    
    32   17   19 1    
    33   19   20 1    
    34   19   25 1    
    35   19   21 1    
    36   21   22 1    
    37   21   49 1    
    38   21   50 1    
    39   22   23 2    
    40   22   51 1    
    41   23   24 1    
    42   23   52 1    
    43   24   25 1    
    44   24   53 1    
    45   24   54 1    
    46   25   26 1    
    47   25   27 1    
    48   27   28 2    
    49   27   29 am   BACKBONE|DICT|INTERRES
    50   29   30 1    
    51   29   55 1    
    52   30   35 ar   
    53   30   31 ar   
    54   31   32 ar   
    55   31   56 1    
    56   32   33 ar   
    57   32   57 1    
    58   33   34 ar   
    59   33   36 1    
    60   34   35 ar   
    61   34   58 1    
    62   35   59 1    
@<TRIPOS>SUBSTRUCTURE
     1 UNK         1 GROUP             0       ****    0 ROOT    
