@<TRIPOS>MOLECULE
ZINC16614614_2866
70   72    1
SMALL
USER_CHARGES


@<TRIPOS>ATOM
      1 C1          0.2992   53.7484   31.9580 C.3       1 UNK         0.0000 
      2 C2          0.3082   53.2942   30.5093 C.ar      1 UNK         0.0000 
      3 C3          1.0115   54.0206   29.5479 C.ar      1 UNK         0.0000 
      4 C4          1.0445   53.5779   28.2289 C.ar      1 UNK         0.0000 
      5 C5          0.3637   52.4100   27.8535 C.ar      1 UNK         0.0000 
      6 C6         -0.3651   51.7079   28.8224 C.ar      1 UNK         0.0000 
      7 C7         -0.3899   52.1432   30.1415 C.ar      1 UNK         0.0000 
      8 C8          0.4231   51.8777   26.4534 C.2       1 UNK         0.0000 
      9 N9         -0.0762   50.7195   26.0721 N.2       1 UNK         0.0000 
     10 N10         0.1884   50.4132   24.7448 N.2       1 UNK         0.0000 
     11 C11         0.8862   51.3529   24.1477 C.2       1 UNK         0.0000 
     12 S12         1.2333   52.7215   25.1543 S.3       1 UNK         0.0000 
     13 N13         1.4112   51.3470   22.8687 N.am      1 UNK         0.0000 
     14 C14         1.3781   50.3275   21.9811 C.2       1 UNK         0.0000 
     15 O15         0.7745   49.2715   22.1644 O.2       1 UNK         0.0000 
     16 C16         2.2117   50.5065   20.6751 C.3       1 UNK         0.0000 
     17 H17         3.1019   49.8975   20.8448 H         1 UNK         0.0000 
     18 C18         1.5030   49.9417   19.3955 C.3       1 UNK         0.0000 
     19 C19         1.5359   48.4032   19.2977 C.3       1 UNK         0.0000 
     20 C20         0.0757   50.4781   19.1537 C.3       1 UNK         0.0000 
     21 N21         2.6395   51.8974   20.4564 N.am      1 UNK         0.0000 
     22 C22         3.8778   52.3651   20.6628 C.2       1 UNK         0.0000 
     23 O23         4.8505   51.6486   20.8815 O.2       1 UNK         0.0000 
     24 N24         3.9056   53.7076   20.5984 N.am      1 UNK         0.0000 
     25 C25         5.0789   54.4833   20.6201 C.ar      1 UNK         0.0000 
     26 C26         5.4055   55.1872   19.4322 C.ar      1 UNK         0.0000 
     27 C27         6.5978   55.9184   19.3879 C.ar      1 UNK         0.0000 
     28 C28         7.4425   55.9695   20.4843 C.ar      1 UNK         0.0000 
     29 C29         7.0895   55.3283   21.6632 C.ar      1 UNK         0.0000 
     30 C30         5.9066   54.5778   21.7709 C.ar      1 UNK         0.0000 
     31 C31         5.5898   53.8641   23.1118 C.3       1 UNK         0.0000 
     32 C32         6.7213   53.8842   24.1646 C.3       1 UNK         0.0000 
     33 C33         4.2851   54.3477   23.7718 C.3       1 UNK         0.0000 
     34 C34         4.4946   55.1464   18.1854 C.3       1 UNK         0.0000 
     35 C35         4.5630   56.4086   17.2961 C.3       1 UNK         0.0000 
     36 C36         4.7500   53.8787   17.3438 C.3       1 UNK         0.0000 
     37 H37         0.6378   54.7796   32.0681 H         1 UNK         0.0000 
     38 H38        -0.7094   53.6984   32.3717 H         1 UNK         0.0000 
     39 H39         0.9200   53.0874   32.5629 H         1 UNK         0.0000 
     40 H40         1.5427   54.9204   29.8217 H         1 UNK         0.0000 
     41 H41         1.6105   54.1455   27.5077 H         1 UNK         0.0000 
     42 H42        -0.9070   50.8098   28.5597 H         1 UNK         0.0000 
     43 H43        -0.9403   51.5779   30.8818 H         1 UNK         0.0000 
     44 H44         1.9372   52.1629   22.6007 H         1 UNK         0.0000 
     45 H45         2.1026   50.2775   18.5465 H         1 UNK         0.0000 
     46 H46         0.8951   47.9236   20.0382 H         1 UNK         0.0000 
     47 H47         1.1942   48.0728   18.3135 H         1 UNK         0.0000 
     48 H48         2.5488   48.0192   19.4311 H         1 UNK         0.0000 
     49 H49        -0.6153   50.1601   19.9327 H         1 UNK         0.0000 
     50 H50         0.0648   51.5679   19.1185 H         1 UNK         0.0000 
     51 H51        -0.3167   50.1153   18.2030 H         1 UNK         0.0000 
     52 H52         1.9399   52.5204   20.0871 H         1 UNK         0.0000 
     53 H53         3.0583   54.1825   20.3178 H         1 UNK         0.0000 
     54 H54         6.8995   56.4333   18.4887 H         1 UNK         0.0000 
     55 H55         8.3835   56.4966   20.4200 H         1 UNK         0.0000 
     56 H56         7.7819   55.4196   22.4822 H         1 UNK         0.0000 
     57 H57         5.4660   52.8113   22.8824 H         1 UNK         0.0000 
     58 H58         7.6437   53.4576   23.7665 H         1 UNK         0.0000 
     59 H59         6.9345   54.8957   24.5113 H         1 UNK         0.0000 
     60 H60         6.4500   53.2976   25.0431 H         1 UNK         0.0000 
     61 H61         3.4603   54.4704   23.0681 H         1 UNK         0.0000 
     62 H62         3.9566   53.6356   24.5311 H         1 UNK         0.0000 
     63 H63         4.4328   55.2963   24.2831 H         1 UNK         0.0000 
     64 H64         3.4609   55.1228   18.5343 H         1 UNK         0.0000 
     65 H65         4.4545   57.3177   17.8895 H         1 UNK         0.0000 
     66 H66         5.5007   56.4740   16.7432 H         1 UNK         0.0000 
     67 H67         3.7583   56.4066   16.5592 H         1 UNK         0.0000 
     68 H68         4.6417   52.9663   17.9316 H         1 UNK         0.0000 
     69 H69         4.0499   53.8110   16.5112 H         1 UNK         0.0000 
     70 H70         5.7586   53.8772   16.9282 H         1 UNK         0.0000 
@<TRIPOS>BOND
     1    1    2 1    
     2    1   37 1    
     3    1   38 1    
     4    1   39 1    
     5    2    7 ar   
     6    2    3 ar   
     7    3    4 ar   
     8    3   40 1    
     9    4    5 ar   
    10    4   41 1    
    11    5    6 ar   
    12    5    8 1    
    13    6    7 ar   
    14    6   42 1    
    15    7   43 1    
    16    8   12 1    
    17    8    9 2    
    18    9   10 1    
    19   10   11 2    
    20   11   12 1    
    21   11   13 am   BACKBONE|DICT|INTERRES
    22   13   14 am   BACKBONE|DICT|INTERRES
    23   13   44 1    
    24   14   15 2    
    25   14   16 1    
    26   16   17 1    
    27   16   18 1    
    28   16   21 1    
    29   18   19 1    
    30   18   20 1    
    31   18   45 1    
    32   19   46 1    
    33   19   47 1    
    34   19   48 1    
    35   20   49 1    
    36   20   50 1    
    37   20   51 1    
    38   21   22 am   BACKBONE|DICT|INTERRES
    39   21   52 1    
    40   22   23 2    
    41   22   24 am   BACKBONE|DICT|INTERRES
    42   24   25 1    
    43   24   53 1    
    44   25   30 ar   
    45   25   26 ar   
    46   26   27 ar   
    47   26   34 1    
    48   27   28 ar   
    49   27   54 1    
    50   28   29 ar   
    51   28   55 1    
    52   29   30 ar   
    53   29   56 1    
    54   30   31 1    
    55   31   32 1    
    56   31   33 1    
    57   31   57 1    
    58   32   58 1    
    59   32   59 1    
    60   32   60 1    
    61   33   61 1    
    62   33   62 1    
    63   33   63 1    
    64   34   35 1    
    65   34   36 1    
    66   34   64 1    
    67   35   65 1    
    68   35   66 1    
    69   35   67 1    
    70   36   68 1    
    71   36   69 1    
    72   36   70 1    
@<TRIPOS>SUBSTRUCTURE
     1 UNK         1 GROUP             0       ****    0 ROOT    
