@<TRIPOS>MOLECULE
ZINC13564737_5157
65   70    1
SMALL
USER_CHARGES


@<TRIPOS>ATOM
      1 C1         -2.6095   51.0075   27.3039 C.3       1 UNK         0.0000 
      2 O2         -2.5211   51.6535   26.0397 O.3       1 UNK         0.0000 
      3 C3         -1.2792   52.0271   25.5604 C.ar      1 UNK         0.0000 
      4 C4         -0.0965   51.9435   26.3068 C.ar      1 UNK         0.0000 
      5 C5          1.1156   52.3598   25.7601 C.ar      1 UNK         0.0000 
      6 C6          1.2065   52.8578   24.4524 C.ar      1 UNK         0.0000 
      7 C7          0.0222   52.8966   23.7044 C.ar      1 UNK         0.0000 
      8 C8         -1.2057   52.5186   24.2493 C.ar      1 UNK         0.0000 
      9 O9         -2.3293   52.6393   23.4711 O.3       1 UNK         0.0000 
     10 C10        -3.1901   53.6967   23.8672 C.3       1 UNK         0.0000 
     11 C11         2.4960   53.3600   23.8726 C.ar      1 UNK         0.0000 
     12 C12         3.6434   53.7400   24.4592 C.ar      1 UNK         0.0000 
     13 C13         4.1073   53.8255   25.8367 C.ar      1 UNK         0.0000 
     14 C14         5.3749   54.1797   26.1641 C.ar      1 UNK         0.0000 
     15 C15         6.3269   54.5696   25.1536 C.ar      1 UNK         0.0000 
     16 O16         7.4758   54.9684   25.2812 O.2       1 UNK         0.0000 
     17 N17         5.8111   54.4534   23.7914 N.pl3     1 UNK         0.0000 
     18 C18         4.5634   54.0636   23.4822 C.ar      1 UNK         0.0000 
     19 N19         3.9514   53.8610   22.3130 N.pl3     1 UNK         0.0000 
     20 N20         2.6427   53.4280   22.4968 N.2       1 UNK         0.0000 
     21 C21         4.4982   53.9897   20.9909 C.ar      1 UNK         0.0000 
     22 C22         5.5046   54.9340   20.7495 C.ar      1 UNK         0.0000 
     23 C23         6.0679   55.0588   19.4858 C.ar      1 UNK         0.0000 
     24 C24         5.6310   54.2354   18.4511 C.ar      1 UNK         0.0000 
     25 C25         4.6287   53.2967   18.6727 C.ar      1 UNK         0.0000 
     26 C26         4.0621   53.1726   19.9378 C.ar      1 UNK         0.0000 
     27 C27         5.9523   54.1436   27.5843 C.3       1 UNK         0.0000 
     28 N28         5.2660   53.3182   28.5722 N.pl3     1 UNK         0.0000 
     29 C29         4.0182   53.6851   29.0886 C.ar      1 UNK         0.0000 
     30 C30         3.4495   54.9458   28.8820 C.ar      1 UNK         0.0000 
     31 C31         2.1538   55.2372   29.2979 C.ar      1 UNK         0.0000 
     32 C32         1.4273   54.2601   29.9652 C.ar      1 UNK         0.0000 
     33 C33         1.9995   53.0081   30.2019 C.ar      1 UNK         0.0000 
     34 C34         3.2881   52.7172   29.7651 C.ar      1 UNK         0.0000 
     35 C35         1.0014   52.0967   30.8356 C.3       1 UNK         0.0000 
     36 C36        -0.1464   53.0062   31.2319 C.3       1 UNK         0.0000 
     37 C37        -0.0095   54.2841   30.4162 C.3       1 UNK         0.0000 
     38 H38        -3.6431   50.7264   27.5053 H         1 UNK         0.0000 
     39 H39        -2.0146   50.0971   27.2834 H         1 UNK         0.0000 
     40 H40        -2.2675   51.6484   28.1165 H         1 UNK         0.0000 
     41 H41        -0.0945   51.5573   27.3157 H         1 UNK         0.0000 
     42 H42         1.9839   52.2325   26.3769 H         1 UNK         0.0000 
     43 H43         0.0432   53.2528   22.6901 H         1 UNK         0.0000 
     44 H44        -4.0969   53.6468   23.2817 H         1 UNK         0.0000 
     45 H45        -3.4824   53.6528   24.9174 H         1 UNK         0.0000 
     46 H46        -2.7341   54.6676   23.6792 H         1 UNK         0.0000 
     47 H47         3.4539   53.5567   26.6392 H         1 UNK         0.0000 
     48 H48         5.8424   55.6047   21.5228 H         1 UNK         0.0000 
     49 H49         6.8401   55.7903   19.3019 H         1 UNK         0.0000 
     50 H50         6.0729   54.3242   17.4690 H         1 UNK         0.0000 
     51 H51         4.3061   52.6448   17.8728 H         1 UNK         0.0000 
     52 H52         3.2970   52.4248   20.0905 H         1 UNK         0.0000 
     53 H53         6.0693   55.1633   27.9542 H         1 UNK         0.0000 
     54 H54         6.9629   53.7326   27.5312 H         1 UNK         0.0000 
     55 H55         5.4631   52.3277   28.5357 H         1 UNK         0.0000 
     56 H56         3.9827   55.6964   28.3359 H         1 UNK         0.0000 
     57 H57         1.7243   56.2030   29.0809 H         1 UNK         0.0000 
     58 H58         3.7066   51.7321   29.9101 H         1 UNK         0.0000 
     59 H59         1.4013   51.5794   31.7085 H         1 UNK         0.0000 
     60 H60         0.6615   51.3781   30.0827 H         1 UNK         0.0000 
     61 H61        -1.0968   52.5051   31.0615 H         1 UNK         0.0000 
     62 H62        -0.0889   53.2577   32.2923 H         1 UNK         0.0000 
     63 H63        -0.6742   54.2372   29.5576 H         1 UNK         0.0000 
     64 H64        -0.2576   55.1631   31.0089 H         1 UNK         0.0000 
     65 H65         6.4718   54.6829   23.0640 H         1 UNK         0.0000 
@<TRIPOS>BOND
     1    1    2 1    
     2    1   38 1    
     3    1   39 1    
     4    1   40 1    
     5    2    3 1    
     6    3    8 ar   
     7    3    4 ar   
     8    4    5 ar   
     9    4   41 1    
    10    5    6 ar   
    11    5   42 1    
    12    6    7 ar   
    13    6   11 1    
    14    7    8 ar   
    15    7   43 1    
    16    8    9 1    
    17    9   10 1    
    18   10   44 1    
    19   10   45 1    
    20   10   46 1    
    21   11   20 ar   
    22   11   12 ar   
    23   12   18 ar   
    24   12   13 ar   
    25   13   14 ar   
    26   13   47 1    
    27   14   15 ar   
    28   14   27 1    
    29   15   16 2    
    30   15   17 ar   
    31   17   18 ar   
    32   17   65 1    
    33   18   19 ar   
    34   19   20 1    
    35   19   21 1    
    36   21   26 ar   
    37   21   22 ar   
    38   22   23 ar   
    39   22   48 1    
    40   23   24 ar   
    41   23   49 1    
    42   24   25 ar   
    43   24   50 1    
    44   25   26 ar   
    45   25   51 1    
    46   26   52 1    
    47   27   28 1    
    48   27   53 1    
    49   27   54 1    
    50   28   29 1    
    51   28   55 1    
    52   29   34 ar   
    53   29   30 ar   
    54   30   31 ar   
    55   30   56 1    
    56   31   32 ar   
    57   31   57 1    
    58   32   37 1    
    59   32   33 ar   
    60   33   34 ar   
    61   33   35 1    
    62   34   58 1    
    63   35   36 1    
    64   35   59 1    
    65   35   60 1    
    66   36   37 1    
    67   36   61 1    
    68   36   62 1    
    69   37   63 1    
    70   37   64 1    
@<TRIPOS>SUBSTRUCTURE
     1 UNK         1 GROUP             0       ****    0 ROOT    
