ZINC42649485_3779
                    3D
 Schrodinger Suite 2024-2.
 43 47  0  0  1  0            999 V2000
    6.6920   55.0801   21.7399 C   0  0  0  0  0  0
    5.9044   54.5330   20.7260 C   0  0  0  0  0  0
    4.7835   53.7735   21.0866 C   0  0  0  0  0  0
    3.7880   53.0216   20.3963 C   0  0  0  0  0  0
    2.9093   52.5163   21.2211 N   0  0  0  0  0  0
    3.2738   52.8971   22.4574 N   0  0  0  0  0  0
    2.7254   52.6059   23.2521 H   0  0  0  0  0  0
    4.4450   53.6360   22.4561 C   0  0  0  0  0  0
    5.2191   54.1974   23.4844 C   0  0  0  0  0  0
    6.3686   54.8967   23.0827 C   0  0  0  0  0  0
    4.7634   54.1427   24.8116 N   0  0  0  0  0  0
    5.4262   54.3852   25.9619 C   0  0  0  0  0  0
    6.6547   54.4485   26.0545 O   0  0  0  0  0  0
    4.5503   54.6521   27.2147 C   0  0  2  0  0  0
    5.0257   53.9845   28.5269 C   0  0  2  0  0  0
    4.6134   52.5140   28.5645 C   0  0  0  0  0  0
    3.0688   52.3543   28.4503 C   0  0  1  0  0  0
    2.3783   53.0725   29.6331 C   0  0  0  0  0  0
    2.7587   54.5697   29.5855 C   0  0  1  0  0  0
    4.3044   54.6831   29.6817 C   0  0  0  0  0  0
    2.2730   55.1783   28.2488 C   0  0  0  0  0  0
    3.0044   54.4769   27.0683 C   0  0  2  0  0  0
    2.6003   52.9882   27.1108 C   0  0  0  0  0  0
    7.5762   55.6472   21.4849 H   0  0  0  0  0  0
    6.1722   54.6638   19.6875 H   0  0  0  0  0  0
    3.7042   52.8559   19.3315 H   0  0  0  0  0  0
    7.0093   55.3660   23.8142 H   0  0  0  0  0  0
    3.7747   53.9772   24.9088 H   0  0  0  0  0  0
    4.8099   55.6967   27.3293 H   0  0  0  0  0  0
    6.1069   54.0815   28.6535 H   0  0  0  0  0  0
    5.1162   52.0967   27.7035 H   0  0  0  0  0  0
    4.9998   52.0123   29.4524 H   0  0  0  0  0  0
    2.7987   51.2970   28.4700 H   0  0  0  0  0  0
    1.2953   52.9496   29.5755 H   0  0  0  0  0  0
    2.6843   52.6266   30.5808 H   0  0  0  0  0  0
    2.2869   55.1003   30.4138 H   0  0  0  0  0  0
    4.6396   54.2780   30.6326 H   0  0  0  0  0  0
    4.6177   55.7124   29.6817 H   0  0  0  0  0  0
    2.4300   56.2529   28.2503 H   0  0  0  0  0  0
    1.1928   55.0555   28.1496 H   0  0  0  0  0  0
    2.7044   54.8967   26.1174 H   0  0  0  0  0  0
    1.5214   52.8747   26.9915 H   0  0  0  0  0  0
    3.0491   52.4967   26.2542 H   0  0  0  0  0  0
  1 10  2  0  0  0
  1  2  1  0  0  0
  1 24  1  0  0  0
  2  3  2  0  0  0
  2 25  1  0  0  0
  3  8  1  0  0  0
  3  4  1  0  0  0
  4  5  2  0  0  0
  4 26  1  0  0  0
  5  6  1  0  0  0
  6  7  1  0  0  0
  6  8  1  0  0  0
  8  9  2  0  0  0
  9 10  1  0  0  0
  9 11  1  0  0  0
 10 27  1  0  0  0
 11 12  1  0  0  0
 11 28  1  0  0  0
 12 13  2  0  0  0
 12 14  1  0  0  0
 14 22  1  0  0  0
 14 15  1  0  0  0
 14 29  1  0  0  0
 15 20  1  0  0  0
 15 16  1  0  0  0
 15 30  1  0  0  0
 16 17  1  0  0  0
 16 31  1  0  0  0
 16 32  1  0  0  0
 17 23  1  0  0  0
 17 18  1  0  0  0
 17 33  1  0  0  0
 18 19  1  0  0  0
 18 34  1  0  0  0
 18 35  1  0  0  0
 19 20  1  0  0  0
 19 21  1  0  0  0
 19 36  1  0  0  0
 20 37  1  0  0  0
 20 38  1  0  0  0
 21 22  1  0  0  0
 21 39  1  0  0  0
 21 40  1  0  0  0
 22 23  1  0  0  0
 22 41  1  0  0  0
 23 42  1  0  0  0
 23 43  1  0  0  0
M  END
> <i_i_glide_confnum>
1

> <i_i_glide_lignum>
3780

> <i_i_glide_posenum>
364

> <i_i_glide_rotatable_bonds>
3

> <i_m_Source_File_Index>
5845

> <b_m_subgroup_collapsed>
0

> <r_i_docking_score>
-5.48714

> <r_i_glide_ecoul>
-1.33311

> <r_i_glide_eff_state_penalty>
0

> <r_i_glide_einternal>
7.28495

> <r_i_glide_emodel>
-34.8141

> <r_i_glide_energy>
-27.0718

> <r_i_glide_erotb>
0.629353

> <r_i_glide_esite>
0

> <r_i_glide_evdw>
-25.7387

> <r_i_glide_gscore>
-5.48714

> <r_i_glide_hbond>
-0.0443915

> <r_i_glide_ligand_efficiency>
-0.249415

> <r_i_glide_ligand_efficiency_ln>
-1.34126

> <r_i_glide_ligand_efficiency_sa>
-0.698872

> <r_i_glide_lipo>
-2.75291

> <r_i_glide_metal>
0

> <r_i_glide_rewards>
-1.83229

> <s_i_glide_gridfile>
wee1_glide-grid

> <s_m_Source_File>
wee1_decoys_glide_SP.sdf

> <s_m_Source_Path>
/Users/zhangxujun/Desktop

> <s_m_entry_id>
6120

> <s_m_entry_name>
wee1_decoys_glide_SP.5845

> <s_m_subgroup_title>
wee1_decoys_glide_SP

> <s_m_subgroupid>
wee1_decoys_glide_SP


$$$$
