ZINC40368181_5558
                    3D
 Schrodinger Suite 2024-2.
 69 73  0  0  1  0            999 V2000
    0.8796   52.5375   27.3033 C   0  0  0  0  0  0
    0.3269   52.0953   25.9508 C   0  0  0  0  0  0
    0.6622   52.5482   24.7129 C   0  0  0  0  0  0
   -0.0557   52.0300   23.4498 C   0  0  2  0  0  0
   -0.4450   52.8984   22.9169 H   0  0  0  0  0  0
   -1.2551   51.2369   23.8183 N   0  0  0  0  0  0
   -2.2732   51.1960   22.7488 C   0  0  0  0  0  0
   -3.1444   49.9270   22.8541 C   0  0  0  0  0  0
   -3.8590   49.7481   24.1991 C   0  0  0  0  0  0
   -2.6609   49.6067   25.5439 S   0  0  0  0  0  0
   -1.4818   50.7779   25.0625 C   0  0  0  0  0  0
   -0.6871   51.1723   26.0609 N   0  3  0  0  0  0
    0.8639   51.2861   22.4778 C   0  0  0  0  0  0
    1.4885   50.0971   22.8712 C   0  0  0  0  0  0
    2.3032   49.4054   21.9796 C   0  0  0  0  0  0
    2.4868   49.8826   20.6841 C   0  0  0  0  0  0
    1.8759   51.0648   20.2745 C   0  0  0  0  0  0
    1.0720   51.7752   21.1818 C   0  0  0  0  0  0
    2.1457   51.4938   18.9657 N   0  0  0  0  0  0
    1.3405   52.2190   18.1635 C   0  0  0  0  0  0
    0.1687   52.4989   18.4359 O   0  0  0  0  0  0
    1.9338   52.5803   16.7804 C   0  0  0  0  0  0
    0.8802   52.4901   15.6474 C   0  0  0  0  0  0
    0.4357   53.9291   15.3828 C   0  0  0  0  0  0
    1.7145   54.7374   15.5907 C   0  0  0  0  0  0
    2.4212   54.0565   16.7699 C   0  0  0  0  0  0
    1.6947   53.5421   24.4525 C   0  0  0  0  0  0
    1.5047   54.4840   23.6813 O   0  0  0  0  0  0
    2.8756   53.2973   25.0524 N   0  0  0  0  0  0
    4.0780   53.9895   24.8392 C   0  0  0  0  0  0
    4.7397   54.4783   25.9698 C   0  0  0  0  0  0
    5.9814   55.0967   25.8446 C   0  0  0  0  0  0
    6.5715   55.2158   24.5894 C   0  0  0  0  0  0
    5.9331   54.7036   23.4616 C   0  0  0  0  0  0
    4.6700   54.0951   23.5624 C   0  0  0  0  0  0
    4.0069   53.5491   22.4761 O   0  0  0  0  0  0
    4.4905   53.7903   21.1591 C   0  0  0  0  0  0
    1.4891   51.7465   27.7418 H   0  0  0  0  0  0
    1.4823   53.4427   27.2451 H   0  0  0  0  0  0
    0.0657   52.7584   27.9953 H   0  0  0  0  0  0
   -2.8795   52.0973   22.8487 H   0  0  0  0  0  0
   -1.7818   51.2336   21.7749 H   0  0  0  0  0  0
   -3.8903   49.9451   22.0585 H   0  0  0  0  0  0
   -2.5277   49.0494   22.6529 H   0  0  0  0  0  0
   -4.4984   50.6030   24.4225 H   0  0  0  0  0  0
   -4.4826   48.8533   24.2110 H   0  0  0  0  0  0
    1.3459   49.7055   23.8686 H   0  0  0  0  0  0
    2.7889   48.4947   22.2907 H   0  0  0  0  0  0
    3.1042   49.3236   19.9959 H   0  0  0  0  0  0
    0.6207   52.7104   20.8857 H   0  0  0  0  0  0
    3.0078   51.1509   18.5592 H   0  0  0  0  0  0
    2.7458   51.8850   16.5494 H   0  0  0  0  0  0
    0.0327   51.8385   15.8731 H   0  0  0  0  0  0
    1.3468   52.0795   14.7497 H   0  0  0  0  0  0
   -0.3259   54.2296   16.1053 H   0  0  0  0  0  0
    0.0179   54.0587   14.3818 H   0  0  0  0  0  0
    1.5093   55.7918   15.7813 H   0  0  0  0  0  0
    2.3384   54.6833   14.6970 H   0  0  0  0  0  0
    3.5052   54.1211   16.6580 H   0  0  0  0  0  0
    2.1596   54.5985   17.6839 H   0  0  0  0  0  0
    2.8933   52.5887   25.7691 H   0  0  0  0  0  0
    4.2992   54.3758   26.9511 H   0  0  0  0  0  0
    6.4823   55.4792   26.7232 H   0  0  0  0  0  0
    7.5266   55.7034   24.4795 H   0  0  0  0  0  0
    6.4351   54.7983   22.5115 H   0  0  0  0  0  0
    3.7749   53.3955   20.4388 H   0  0  0  0  0  0
    4.5963   54.8585   20.9595 H   0  0  0  0  0  0
    5.4466   53.2937   20.9865 H   0  0  0  0  0  0
   -0.8850   50.7636   26.9661 H   0  0  0  0  0  0
  1  2  1  0  0  0
  1 38  1  0  0  0
  1 39  1  0  0  0
  1 40  1  0  0  0
  2 12  1  0  0  0
  2  3  2  0  0  0
  3  4  1  0  0  0
  3 27  1  0  0  0
  4  5  1  0  0  0
  4  6  1  0  0  0
  4 13  1  0  0  0
  6 11  1  0  0  0
  6  7  1  0  0  0
  7  8  1  0  0  0
  7 41  1  0  0  0
  7 42  1  0  0  0
  8  9  1  0  0  0
  8 43  1  0  0  0
  8 44  1  0  0  0
  9 10  1  0  0  0
  9 45  1  0  0  0
  9 46  1  0  0  0
 10 11  1  0  0  0
 11 12  2  0  0  0
 12 69  1  0  0  0
 13 18  2  0  0  0
 13 14  1  0  0  0
 14 15  2  0  0  0
 14 47  1  0  0  0
 15 16  1  0  0  0
 15 48  1  0  0  0
 16 17  2  0  0  0
 16 49  1  0  0  0
 17 18  1  0  0  0
 17 19  1  0  0  0
 18 50  1  0  0  0
 19 20  1  0  0  0
 19 51  1  0  0  0
 20 21  2  0  0  0
 20 22  1  0  0  0
 22 26  1  0  0  0
 22 23  1  0  0  0
 22 52  1  0  0  0
 23 24  1  0  0  0
 23 53  1  0  0  0
 23 54  1  0  0  0
 24 25  1  0  0  0
 24 55  1  0  0  0
 24 56  1  0  0  0
 25 26  1  0  0  0
 25 57  1  0  0  0
 25 58  1  0  0  0
 26 59  1  0  0  0
 26 60  1  0  0  0
 27 28  2  0  0  0
 27 29  1  0  0  0
 29 30  1  0  0  0
 29 61  1  0  0  0
 30 35  2  0  0  0
 30 31  1  0  0  0
 31 32  2  0  0  0
 31 62  1  0  0  0
 32 33  1  0  0  0
 32 63  1  0  0  0
 33 34  2  0  0  0
 33 64  1  0  0  0
 34 35  1  0  0  0
 34 65  1  0  0  0
 35 36  1  0  0  0
 36 37  1  0  0  0
 37 66  1  0  0  0
 37 67  1  0  0  0
 37 68  1  0  0  0
M  CHG  1  12   1
M  END
> <i_i_glide_confnum>
359

> <i_i_glide_lignum>
5559

> <i_i_glide_posenum>
220

> <i_i_glide_rotatable_bonds>
8

> <i_m_Source_File_Index>
3632

> <b_m_subgroup_collapsed>
0

> <r_i_docking_score>
-4.65771

> <r_i_glide_ecoul>
-2.83151

> <r_i_glide_eff_state_penalty>
0

> <r_i_glide_einternal>
6.07729

> <r_i_glide_emodel>
-51.973

> <r_i_glide_energy>
-41.2072

> <r_i_glide_erotb>
0.56

> <r_i_glide_esite>
-0.116159

> <r_i_glide_evdw>
-38.3757

> <r_i_glide_gscore>
-4.65771

> <r_i_glide_hbond>
0

> <r_i_glide_ligand_efficiency>
-0.129381

> <r_i_glide_ligand_efficiency_ln>
-1.01619

> <r_i_glide_ligand_efficiency_sa>
-0.427207

> <r_i_glide_lipo>
-2.45867

> <r_i_glide_metal>
0

> <r_i_glide_rewards>
-0.299371

> <s_i_glide_gridfile>
wee1_glide-grid

> <s_m_Source_File>
wee1_decoys_glide_SP.sdf

> <s_m_Source_Path>
/Users/zhangxujun/Desktop

> <s_m_entry_id>
3907

> <s_m_entry_name>
wee1_decoys_glide_SP.3632

> <s_m_subgroup_title>
wee1_decoys_glide_SP

> <s_m_subgroupid>
wee1_decoys_glide_SP


$$$$
