ZINC20571345_2101
                    3D
 Schrodinger Suite 2024-2.
 57 60  0  0  1  0            999 V2000
    9.9888   50.1954   16.2419 C   0  0  0  0  0  0
    9.6371   51.6523   16.4819 C   0  0  0  0  0  0
    8.2987   52.0298   16.6214 C   0  0  0  0  0  0
    7.9713   53.3611   16.8612 C   0  0  0  0  0  0
    8.9838   54.3163   16.9662 C   0  0  0  0  0  0
   10.3235   53.9395   16.8421 C   0  0  0  0  0  0
   10.6484   52.6096   16.5876 C   0  0  0  0  0  0
    8.5733   56.0307   17.2781 S   0  0  0  0  0  0
    7.2111   56.2834   16.7918 O   0  0  0  0  0  0
    9.7000   56.8408   16.8067 O   0  0  0  0  0  0
    8.5772   56.2002   19.0434 N   0  0  0  0  0  0
    7.6157   55.6858   19.9266 C   0  0  0  0  0  0
    7.9431   55.6974   21.2795 C   0  0  0  0  0  0
    7.0623   55.2027   22.2307 C   0  0  0  0  0  0
    5.8326   54.6541   21.8405 C   0  0  0  0  0  0
    5.5015   54.6450   20.4787 C   0  0  0  0  0  0
    6.3782   55.1653   19.5301 C   0  0  0  0  0  0
    4.8862   54.0383   22.8449 C   0  0  0  0  0  0
    4.0985   53.1629   22.4817 O   0  0  0  0  0  0
    5.0096   54.4966   24.1102 N   0  0  0  0  0  0
    4.3173   54.1017   25.2470 C   0  0  0  0  0  0
    2.9834   53.6967   25.5019 C   0  0  0  0  0  0
    2.8596   53.3077   26.8756 C   0  0  0  0  0  0
    4.0465   53.4797   27.6099 C   0  0  0  0  0  0
    5.3217   54.1176   26.6531 S   0  0  0  0  0  0
    4.2274   53.2127   29.0966 C   0  0  0  0  0  0
    3.0487   52.3680   29.6137 C   0  0  0  0  0  0
    1.7019   52.9116   29.1131 C   0  0  0  0  0  0
    1.5781   52.8236   27.5756 C   0  0  0  0  0  0
    1.8821   53.6960   24.5244 C   0  0  0  0  0  0
    1.7954   54.4968   23.5926 O   0  0  0  0  0  0
    0.9882   52.7119   24.7677 O   0  0  0  0  0  0
   -0.1510   52.5468   23.9354 C   0  0  0  0  0  0
    9.5046   49.5616   16.9869 H   0  0  0  0  0  0
    9.6469   49.8732   15.2555 H   0  0  0  0  0  0
   11.0649   50.0152   16.3183 H   0  0  0  0  0  0
    7.5071   51.2971   16.5536 H   0  0  0  0  0  0
    6.9335   53.6402   16.9580 H   0  0  0  0  0  0
   11.1117   54.6726   16.9365 H   0  0  0  0  0  0
   11.6844   52.3226   16.4922 H   0  0  0  0  0  0
    9.4647   56.4723   19.4394 H   0  0  0  0  0  0
    8.8949   56.0937   21.6058 H   0  0  0  0  0  0
    7.3824   55.2204   23.2620 H   0  0  0  0  0  0
    4.5588   54.2322   20.1433 H   0  0  0  0  0  0
    6.0703   55.1396   18.5001 H   0  0  0  0  0  0
    5.8844   54.9575   24.2977 H   0  0  0  0  0  0
    4.2688   54.1553   29.6438 H   0  0  0  0  0  0
    5.1617   52.6833   29.2824 H   0  0  0  0  0  0
    3.0649   52.3443   30.7030 H   0  0  0  0  0  0
    3.1638   51.3341   29.2857 H   0  0  0  0  0  0
    1.5844   53.9474   29.4369 H   0  0  0  0  0  0
    0.8846   52.3590   29.5791 H   0  0  0  0  0  0
    1.3804   51.7901   27.2896 H   0  0  0  0  0  0
    0.7070   53.3959   27.2594 H   0  0  0  0  0  0
   -0.7484   51.7098   24.2941 H   0  0  0  0  0  0
   -0.7768   53.4419   23.9481 H   0  0  0  0  0  0
    0.1427   52.3433   22.9042 H   0  0  0  0  0  0
  1  2  1  0  0  0
  1 34  1  0  0  0
  1 35  1  0  0  0
  1 36  1  0  0  0
  2  7  2  0  0  0
  2  3  1  0  0  0
  3  4  2  0  0  0
  3 37  1  0  0  0
  4  5  1  0  0  0
  4 38  1  0  0  0
  5  6  2  0  0  0
  5  8  1  0  0  0
  6  7  1  0  0  0
  6 39  1  0  0  0
  7 40  1  0  0  0
  8  9  2  0  0  0
  8 10  2  0  0  0
  8 11  1  0  0  0
 11 12  1  0  0  0
 11 41  1  0  0  0
 12 17  2  0  0  0
 12 13  1  0  0  0
 13 14  2  0  0  0
 13 42  1  0  0  0
 14 15  1  0  0  0
 14 43  1  0  0  0
 15 16  2  0  0  0
 15 18  1  0  0  0
 16 17  1  0  0  0
 16 44  1  0  0  0
 17 45  1  0  0  0
 18 19  2  0  0  0
 18 20  1  0  0  0
 20 21  1  0  0  0
 20 46  1  0  0  0
 21 25  1  0  0  0
 21 22  2  0  0  0
 22 23  1  0  0  0
 22 30  1  0  0  0
 23 29  1  0  0  0
 23 24  2  0  0  0
 24 25  1  0  0  0
 24 26  1  0  0  0
 26 27  1  0  0  0
 26 47  1  0  0  0
 26 48  1  0  0  0
 27 28  1  0  0  0
 27 49  1  0  0  0
 27 50  1  0  0  0
 28 29  1  0  0  0
 28 51  1  0  0  0
 28 52  1  0  0  0
 29 53  1  0  0  0
 29 54  1  0  0  0
 30 31  2  0  0  0
 30 32  1  0  0  0
 32 33  1  0  0  0
 33 55  1  0  0  0
 33 56  1  0  0  0
 33 57  1  0  0  0
M  END
> <i_i_glide_confnum>
55

> <i_i_glide_lignum>
2102

> <i_i_glide_posenum>
273

> <i_i_glide_rotatable_bonds>
8

> <i_m_Source_File_Index>
549

> <b_m_subgroup_collapsed>
0

> <r_i_docking_score>
-5.84701

> <r_i_glide_ecoul>
-1.45492

> <r_i_glide_eff_state_penalty>
0

> <r_i_glide_einternal>
8.59426

> <r_i_glide_emodel>
-61.3947

> <r_i_glide_energy>
-48.01

> <r_i_glide_erotb>
0.605395

> <r_i_glide_esite>
-1.74085e-05

> <r_i_glide_evdw>
-46.5551

> <r_i_glide_gscore>
-5.84701

> <r_i_glide_hbond>
0

> <r_i_glide_ligand_efficiency>
-0.177182

> <r_i_glide_ligand_efficiency_ln>
-1.30035

> <r_i_glide_ligand_efficiency_sa>
-0.568318

> <r_i_glide_lipo>
-3.15787

> <r_i_glide_metal>
0

> <r_i_glide_rewards>
-0.748528

> <s_i_glide_gridfile>
wee1_glide-grid

> <s_m_Source_File>
wee1_decoys_glide_SP.sdf

> <s_m_Source_Path>
/Users/zhangxujun/Desktop

> <s_m_entry_id>
824

> <s_m_entry_name>
wee1_decoys_glide_SP.549

> <s_m_subgroup_title>
wee1_decoys_glide_SP

> <s_m_subgroupid>
wee1_decoys_glide_SP


$$$$
