ZINC65493116_1501
                    3D
 Schrodinger Suite 2024-2.
 53 57  0  0  1  0            999 V2000
   -0.0894   52.3292   30.8788 C   0  0  0  0  0  0
    0.9801   53.1677   30.2130 C   0  0  0  0  0  0
    0.8693   54.4410   30.2504 N   0  0  0  0  0  0
    1.9037   55.1828   29.6827 C   0  0  0  0  0  0
    3.0515   54.7967   29.2646 N   0  0  0  0  0  0
    3.3751   53.4380   29.2870 C   0  0  0  0  0  0
    4.4846   52.9439   29.1044 O   0  0  0  0  0  0
    2.1719   52.4644   29.5369 C   0  0  2  0  0  0
    2.5536   51.7096   30.2227 H   0  0  0  0  0  0
    1.7800   51.7782   28.1883 C   0  0  0  0  0  0
    0.8115   52.5412   27.2282 C   0  0  2  0  0  0
    0.8451   53.6108   27.4380 H   0  0  0  0  0  0
   -0.5598   52.0952   27.3969 N   0  0  0  0  0  0
   -1.1594   52.2491   26.0951 C   0  0  1  0  0  0
   -1.4107   53.2965   25.9461 H   0  0  0  0  0  0
   -0.1042   51.9037   25.1713 N   0  0  0  0  0  0
    1.1059   52.4071   25.8017 N   0  0  0  0  0  0
    2.0646   53.0717   25.0051 C   0  0  0  0  0  0
    2.0410   53.0358   23.5974 C   0  0  0  0  0  0
    3.0943   53.5559   22.8368 C   0  0  0  0  0  0
    4.2089   54.0965   23.4755 C   0  0  0  0  0  0
    4.2348   54.1693   24.8736 C   0  0  0  0  0  0
    3.1587   53.6972   25.6207 C   0  0  0  0  0  0
    5.3226   54.6735   25.5545 O   0  0  0  0  0  0
    6.5504   54.4760   24.8487 C   0  0  0  0  0  0
    6.4130   55.0062   23.4033 C   0  0  0  0  0  0
    5.3040   54.4256   22.6966 O   0  0  0  0  0  0
   -2.4317   51.4099   25.9068 C   0  0  0  0  0  0
   -3.7568   51.9523   26.3822 C   0  0  0  0  0  0
   -3.4671   51.8393   24.8963 C   0  0  0  0  0  0
    1.6747   56.6713   29.6298 C   0  0  0  0  0  0
    0.3251   51.7556   31.7071 H   0  0  0  0  0  0
   -0.8951   52.9363   31.2819 H   0  0  0  0  0  0
   -0.5350   51.6258   30.1774 H   0  0  0  0  0  0
    2.7016   51.5321   27.6700 H   0  0  0  0  0  0
    1.3607   50.7982   28.4085 H   0  0  0  0  0  0
   -0.5445   51.1021   27.5831 H   0  0  0  0  0  0
    0.0189   50.9013   25.1629 H   0  0  0  0  0  0
    1.2222   52.5649   23.0750 H   0  0  0  0  0  0
    3.0703   53.4848   21.7588 H   0  0  0  0  0  0
    3.2253   53.7535   26.6899 H   0  0  0  0  0  0
    6.7992   53.4136   24.8239 H   0  0  0  0  0  0
    7.3560   54.9896   25.3713 H   0  0  0  0  0  0
    7.3257   54.7999   22.8441 H   0  0  0  0  0  0
    6.3046   56.0891   23.4351 H   0  0  0  0  0  0
   -2.2565   50.3395   26.0345 H   0  0  0  0  0  0
   -4.4598   51.2586   26.8450 H   0  0  0  0  0  0
   -3.7772   52.9367   26.8505 H   0  0  0  0  0  0
   -3.2878   52.7466   24.3186 H   0  0  0  0  0  0
   -3.9706   51.0681   24.3127 H   0  0  0  0  0  0
    0.6447   56.9025   29.8766 H   0  0  0  0  0  0
    2.3027   57.1901   30.3533 H   0  0  0  0  0  0
    1.8872   57.0738   28.6396 H   0  0  0  0  0  0
  1  2  1  0  0  0
  1 32  1  0  0  0
  1 33  1  0  0  0
  1 34  1  0  0  0
  2  8  1  0  0  0
  2  3  2  0  0  0
  3  4  1  0  0  0
  4  5  2  0  0  0
  4 31  1  0  0  0
  5  6  1  0  0  0
  6  7  2  0  0  0
  6  8  1  0  0  0
  8  9  1  0  0  0
  8 10  1  0  0  0
 10 11  1  0  0  0
 10 35  1  0  0  0
 10 36  1  0  0  0
 11 12  1  0  0  0
 11 17  1  0  0  0
 11 13  1  0  0  0
 13 14  1  0  0  0
 13 37  1  0  0  0
 14 15  1  0  0  0
 14 16  1  0  0  0
 14 28  1  0  0  0
 16 17  1  0  0  0
 16 38  1  0  0  0
 17 18  1  0  0  0
 18 23  2  0  0  0
 18 19  1  0  0  0
 19 20  2  0  0  0
 19 39  1  0  0  0
 20 21  1  0  0  0
 20 40  1  0  0  0
 21 27  1  0  0  0
 21 22  2  0  0  0
 22 23  1  0  0  0
 22 24  1  0  0  0
 23 41  1  0  0  0
 24 25  1  0  0  0
 25 26  1  0  0  0
 25 42  1  0  0  0
 25 43  1  0  0  0
 26 27  1  0  0  0
 26 44  1  0  0  0
 26 45  1  0  0  0
 28 30  1  0  0  0
 28 29  1  0  0  0
 28 46  1  0  0  0
 29 30  1  0  0  0
 29 47  1  0  0  0
 29 48  1  0  0  0
 30 49  1  0  0  0
 30 50  1  0  0  0
 31 51  1  0  0  0
 31 52  1  0  0  0
 31 53  1  0  0  0
M  END
> <i_i_glide_confnum>
214

> <i_i_glide_lignum>
1502

> <i_i_glide_posenum>
95

> <i_i_glide_rotatable_bonds>
4

> <i_m_Source_File_Index>
3929

> <b_m_subgroup_collapsed>
0

> <r_i_docking_score>
-6.1777

> <r_i_glide_ecoul>
-1.55813

> <r_i_glide_eff_state_penalty>
0

> <r_i_glide_einternal>
5.08098

> <r_i_glide_emodel>
-60.772

> <r_i_glide_energy>
-45.7713

> <r_i_glide_erotb>
0.528661

> <r_i_glide_esite>
-0.0118727

> <r_i_glide_evdw>
-44.2132

> <r_i_glide_gscore>
-6.1777

> <r_i_glide_hbond>
0

> <r_i_glide_ligand_efficiency>
-0.220632

> <r_i_glide_ligand_efficiency_ln>
-1.42599

> <r_i_glide_ligand_efficiency_sa>
-0.669969

> <r_i_glide_lipo>
-2.40997

> <r_i_glide_metal>
0

> <r_i_glide_rewards>
-1.84014

> <s_i_glide_gridfile>
wee1_glide-grid

> <s_m_Source_File>
wee1_decoys_glide_SP.sdf

> <s_m_Source_Path>
/Users/zhangxujun/Desktop

> <s_m_entry_id>
4204

> <s_m_entry_name>
wee1_decoys_glide_SP.3929

> <s_m_subgroup_title>
wee1_decoys_glide_SP

> <s_m_subgroupid>
wee1_decoys_glide_SP


$$$$
