ZINC08652381_1727
                    3D
 Schrodinger Suite 2024-2.
 31 32  0  0  1  0            999 V2000
    6.7044   54.5909   26.8435 C   0  0  0  0  0  0
    6.6708   54.8602   25.4788 C   0  0  0  0  0  0
    5.4915   54.6705   24.7689 C   0  0  0  0  0  0
    4.3281   54.2144   25.3973 C   0  0  0  0  0  0
    4.3728   53.9100   26.7825 C   0  0  0  0  0  0
    5.5649   54.1179   27.4838 C   0  0  0  0  0  0
    3.1743   53.2966   27.5105 C   0  0  0  0  0  0
    1.8706   53.4952   26.7308 C   0  0  0  0  0  0
    2.0402   53.1106   25.2455 C   0  0  2  0  0  0
    2.4647   52.1112   25.1714 H   0  0  0  0  0  0
    3.0342   54.0890   24.5847 C   0  0  0  0  0  0
    0.6859   53.1195   24.5101 C   0  0  0  0  0  0
   -0.1546   52.1652   24.3914 N   0  0  0  0  0  0
    0.1918   50.9913   24.9692 N   0  0  0  0  0  0
   -0.6234   49.9234   25.0041 C   0  0  0  0  0  0
   -1.7519   49.8646   24.5184 O   0  0  0  0  0  0
   -0.0966   48.9078   25.6817 N   0  0  0  0  0  0
    7.6092   54.7330   27.4150 H   0  0  0  0  0  0
    7.5449   55.2158   24.9552 H   0  0  0  0  0  0
    5.4766   54.8969   23.7127 H   0  0  0  0  0  0
    5.6159   53.8904   28.5388 H   0  0  0  0  0  0
    3.0766   53.7241   28.5092 H   0  0  0  0  0  0
    3.3563   52.2314   27.6543 H   0  0  0  0  0  0
    1.4680   54.4967   26.8490 H   0  0  0  0  0  0
    1.1035   52.8655   27.1861 H   0  0  0  0  0  0
    3.2659   53.7580   23.5701 H   0  0  0  0  0  0
    2.6008   55.0847   24.4813 H   0  0  0  0  0  0
    0.4585   54.0905   24.0791 H   0  0  0  0  0  0
    1.0913   50.9738   25.4221 H   0  0  0  0  0  0
    0.8907   48.8372   25.8691 H   0  0  0  0  0  0
   -0.7093   48.1873   26.0413 H   0  0  0  0  0  0
  1  6  2  0  0  0
  1  2  1  0  0  0
  1 18  1  0  0  0
  2  3  2  0  0  0
  2 19  1  0  0  0
  3  4  1  0  0  0
  3 20  1  0  0  0
  4 11  1  0  0  0
  4  5  2  0  0  0
  5  6  1  0  0  0
  5  7  1  0  0  0
  6 21  1  0  0  0
  7  8  1  0  0  0
  7 22  1  0  0  0
  7 23  1  0  0  0
  8  9  1  0  0  0
  8 24  1  0  0  0
  8 25  1  0  0  0
  9 10  1  0  0  0
  9 11  1  0  0  0
  9 12  1  0  0  0
 11 26  1  0  0  0
 11 27  1  0  0  0
 12 13  2  0  0  0
 12 28  1  0  0  0
 13 14  1  0  0  0
 14 15  1  0  0  0
 14 29  1  0  0  0
 15 16  2  0  0  0
 15 17  1  0  0  0
 17 30  1  0  0  0
 17 31  1  0  0  0
M  END
> <i_i_glide_confnum>
2

> <i_i_glide_lignum>
1728

> <i_i_glide_posenum>
313

> <i_i_glide_rotatable_bonds>
3

> <i_m_Source_File_Index>
3684

> <b_m_subgroup_collapsed>
0

> <r_i_docking_score>
-5.85595

> <r_i_glide_ecoul>
-1.39135

> <r_i_glide_eff_state_penalty>
0

> <r_i_glide_einternal>
4.56498

> <r_i_glide_emodel>
-36.074

> <r_i_glide_energy>
-26.9226

> <r_i_glide_erotb>
0.355425

> <r_i_glide_esite>
-0.125209

> <r_i_glide_evdw>
-25.5313

> <r_i_glide_gscore>
-5.85595

> <r_i_glide_hbond>
0

> <r_i_glide_ligand_efficiency>
-0.365997

> <r_i_glide_ligand_efficiency_ln>
-1.55224

> <r_i_glide_ligand_efficiency_sa>
-0.922255

> <r_i_glide_lipo>
-2.37954

> <r_i_glide_metal>
0

> <r_i_glide_rewards>
-2.22136

> <s_i_glide_gridfile>
wee1_glide-grid

> <s_m_Source_File>
wee1_decoys_glide_SP.sdf

> <s_m_Source_Path>
/Users/zhangxujun/Desktop

> <s_m_entry_id>
3959

> <s_m_entry_name>
wee1_decoys_glide_SP.3684

> <s_m_subgroup_title>
wee1_decoys_glide_SP

> <s_m_subgroupid>
wee1_decoys_glide_SP


$$$$
