ZINC08690872_2982
                    3D
 Schrodinger Suite 2024-2.
 56 59  0  0  1  0            999 V2000
    5.8703   55.1919   26.0447 C   0  0  0  0  0  0
    4.5250   54.5054   25.8661 C   0  0  0  0  0  0
    3.8799   54.0889   24.6825 C   0  0  0  0  0  0
    2.7016   53.4618   25.1244 C   0  0  0  0  0  0
    2.6893   53.6215   26.5060 N   0  0  0  0  0  0
    3.7993   54.2529   26.9254 N   0  0  0  0  0  0
    1.7280   53.2318   27.4863 C   0  0  0  0  0  0
    1.5333   54.0286   28.6281 C   0  0  0  0  0  0
    0.6263   53.6437   29.6107 C   0  0  0  0  0  0
   -0.0922   52.4626   29.4592 C   0  0  0  0  0  0
    0.0744   51.6722   28.3244 C   0  0  0  0  0  0
    0.9862   52.0514   27.3445 C   0  0  0  0  0  0
    1.7071   52.7751   24.4496 N   0  0  0  0  0  0
    0.4759   53.4219   24.0263 C   0  0  0  0  0  0
   -0.3034   52.3905   23.2282 C   0  0  0  0  0  0
    0.7938   51.6784   22.4709 C   0  0  0  0  0  0
    1.9975   51.7820   23.4118 C   0  0  0  0  0  0
    4.3212   54.2918   23.3072 C   0  0  0  0  0  0
    5.5494   54.4964   23.0076 N   0  0  0  0  0  0
    5.9085   54.8265   21.7099 N   0  0  0  0  0  0
    5.4298   54.4143   20.4867 C   0  0  0  0  0  0
    5.7839   55.2909   19.4993 N   0  0  0  0  0  0
    5.4697   55.2481   18.1312 C   0  0  0  0  0  0
    4.2422   55.7696   17.7035 C   0  0  0  0  0  0
    3.8953   55.7511   16.3468 C   0  0  0  0  0  0
    4.7951   55.2094   15.4228 C   0  0  0  0  0  0
    6.0215   54.6942   15.8466 C   0  0  0  0  0  0
    6.3669   54.7100   17.1985 C   0  0  0  0  0  0
    7.8993   54.0614   17.6730 Cl  0  0  0  0  0  0
    2.5553   56.3134   15.8681 C   0  0  0  0  0  0
    2.7605   57.4974   15.2980 F   0  0  0  0  0  0
    1.6909   56.4779   16.8713 F   0  0  0  0  0  0
    1.9970   55.4988   14.9699 F   0  0  0  0  0  0
    4.5529   53.0057   20.2013 S   0  0  0  0  0  0
    6.0163   55.9763   25.3001 H   0  0  0  0  0  0
    5.9880   55.6670   27.0217 H   0  0  0  0  0  0
    6.6930   54.4847   25.9280 H   0  0  0  0  0  0
    2.0812   54.9492   28.7617 H   0  0  0  0  0  0
    0.4859   54.2551   30.4897 H   0  0  0  0  0  0
   -0.7891   52.1514   30.2247 H   0  0  0  0  0  0
   -0.4888   50.7562   28.2140 H   0  0  0  0  0  0
    1.1260   51.3936   26.4981 H   0  0  0  0  0  0
   -0.1146   53.7001   24.8811 H   0  0  0  0  0  0
    0.7016   54.3199   23.4464 H   0  0  0  0  0  0
   -0.8581   51.7224   23.8885 H   0  0  0  0  0  0
   -1.0287   52.8807   22.5790 H   0  0  0  0  0  0
    1.0014   52.1902   21.5311 H   0  0  0  0  0  0
    0.5281   50.6457   22.2483 H   0  0  0  0  0  0
    2.8356   52.1136   22.8021 H   0  0  0  0  0  0
    2.2794   50.8193   23.8386 H   0  0  0  0  0  0
    3.4963   54.2927   22.5968 H   0  0  0  0  0  0
    6.3538   56.0791   19.7687 H   0  0  0  0  0  0
    3.5549   56.1739   18.4360 H   0  0  0  0  0  0
    4.5494   55.1966   14.3692 H   0  0  0  0  0  0
    6.7050   54.2805   15.1211 H   0  0  0  0  0  0
    6.6854   55.4701   21.6880 H   0  0  0  0  0  0
  1  2  1  0  0  0
  1 35  1  0  0  0
  1 36  1  0  0  0
  1 37  1  0  0  0
  2  6  2  0  0  0
  2  3  1  0  0  0
  3  4  2  0  0  0
  3 18  1  0  0  0
  4  5  1  0  0  0
  4 13  1  0  0  0
  5  6  1  0  0  0
  5  7  1  0  0  0
  7 12  2  0  0  0
  7  8  1  0  0  0
  8  9  2  0  0  0
  8 38  1  0  0  0
  9 10  1  0  0  0
  9 39  1  0  0  0
 10 11  2  0  0  0
 10 40  1  0  0  0
 11 12  1  0  0  0
 11 41  1  0  0  0
 12 42  1  0  0  0
 13 17  1  0  0  0
 13 14  1  0  0  0
 14 15  1  0  0  0
 14 43  1  0  0  0
 14 44  1  0  0  0
 15 16  1  0  0  0
 15 45  1  0  0  0
 15 46  1  0  0  0
 16 17  1  0  0  0
 16 47  1  0  0  0
 16 48  1  0  0  0
 17 49  1  0  0  0
 17 50  1  0  0  0
 18 19  2  0  0  0
 18 51  1  0  0  0
 19 20  1  0  0  0
 20 21  1  0  0  0
 20 56  1  0  0  0
 21 22  1  0  0  0
 21 34  2  0  0  0
 22 23  1  0  0  0
 22 52  1  0  0  0
 23 28  2  0  0  0
 23 24  1  0  0  0
 24 25  2  0  0  0
 24 53  1  0  0  0
 25 26  1  0  0  0
 25 30  1  0  0  0
 26 27  2  0  0  0
 26 54  1  0  0  0
 27 28  1  0  0  0
 27 55  1  0  0  0
 28 29  1  0  0  0
 30 31  1  0  0  0
 30 32  1  0  0  0
 30 33  1  0  0  0
M  END
> <i_i_glide_confnum>
66

> <i_i_glide_lignum>
2983

> <i_i_glide_posenum>
64

> <i_i_glide_rotatable_bonds>
8

> <i_m_Source_File_Index>
839

> <b_m_subgroup_collapsed>
0

> <r_i_docking_score>
-4.59543

> <r_i_glide_ecoul>
1.03276

> <r_i_glide_eff_state_penalty>
0

> <r_i_glide_einternal>
3.27207

> <r_i_glide_emodel>
-54.0334

> <r_i_glide_energy>
-42.1145

> <r_i_glide_erotb>
0.557323

> <r_i_glide_esite>
-0.0329246

> <r_i_glide_evdw>
-43.1473

> <r_i_glide_gscore>
-4.59543

> <r_i_glide_hbond>
0

> <r_i_glide_ligand_efficiency>
-0.13516

> <r_i_glide_ligand_efficiency_ln>
-1.01526

> <r_i_glide_ligand_efficiency_sa>
-0.437865

> <r_i_glide_lipo>
-2.24376

> <r_i_glide_metal>
0

> <r_i_glide_rewards>
-0.873625

> <s_i_glide_gridfile>
wee1_glide-grid

> <s_m_Source_File>
wee1_decoys_glide_SP.sdf

> <s_m_Source_Path>
/Users/zhangxujun/Desktop

> <s_m_entry_id>
1114

> <s_m_entry_name>
wee1_decoys_glide_SP.839

> <s_m_subgroup_title>
wee1_decoys_glide_SP

> <s_m_subgroupid>
wee1_decoys_glide_SP


$$$$
