@<TRIPOS>MOLECULE
ZINC23078218_2143
47   50    1
SMALL
USER_CHARGES


@<TRIPOS>ATOM
      1 C1         -6.0969   48.8263   31.4725 C.ar      1 UNK         0.0000 
      2 C2         -6.0435   50.1588   31.0827 C.ar      1 UNK         0.0000 
      3 C3         -5.5374   50.4899   29.8281 C.ar      1 UNK         0.0000 
      4 C4         -5.0624   49.5075   28.9490 C.ar      1 UNK         0.0000 
      5 C5         -5.0780   48.1600   29.3642 C.ar      1 UNK         0.0000 
      6 C6         -5.6187   47.8386   30.6160 C.ar      1 UNK         0.0000 
      7 C7         -4.4577   47.0674   28.5056 C.3       1 UNK         0.0000 
      8 C8         -4.3448   47.4301   27.0047 C.3       1 UNK         0.0000 
      9 H9         -5.3005   47.4322   26.4776 H         1 UNK         0.0000 
     10 N10        -3.6956   48.8438   26.8818 N.4       1 UNK         0.0000 
     11 C11        -4.5860   49.9217   27.5579 C.3       1 UNK         0.0000 
     12 C12        -3.3674   49.3194   25.4275 C.3       1 UNK         0.0000 
     13 C13        -2.2279   50.3245   25.4286 C.2       1 UNK         0.0000 
     14 N14        -1.5156   50.7530   26.4339 N.2       1 UNK         0.0000 
     15 C15        -0.6296   51.5376   25.8480 C.2       1 UNK         0.0000 
     16 N16        -0.7415   51.6456   24.5377 N.2       1 UNK         0.0000 
     17 O17        -1.8254   50.8234   24.2347 O.3       1 UNK         0.0000 
     18 C18         0.4276   52.2592   26.6343 C.ar      1 UNK         0.0000 
     19 C19         1.5048   52.8969   26.0015 C.ar      1 UNK         0.0000 
     20 C20         2.4676   53.5761   26.7481 C.ar      1 UNK         0.0000 
     21 C21         2.3630   53.6317   28.1368 C.ar      1 UNK         0.0000 
     22 C22         1.2944   53.0070   28.7896 C.ar      1 UNK         0.0000 
     23 C23         0.3414   52.3169   28.0321 C.ar      1 UNK         0.0000 
     24 C24         1.1708   53.1023   30.3068 C.3       1 UNK         0.0000 
     25 F25         0.0802   52.4942   30.7709 F         1 UNK         0.0000 
     26 F26         2.2376   52.5411   30.8789 F         1 UNK         0.0000 
     27 F27         1.1037   54.3866   30.6556 F         1 UNK         0.0000 
     28 C28        -3.4159   46.3827   26.3303 C.2       1 UNK         0.0000 
     29 O29        -3.8930   45.4561   25.6807 O.2       1 UNK         0.0000 
     30 N30        -2.0957   46.4964   26.4816 N.am      1 UNK         0.0000 
     31 H31        -6.4916   48.5607   32.4430 H         1 UNK         0.0000 
     32 H32        -6.4007   50.9272   31.7525 H         1 UNK         0.0000 
     33 H33        -5.5265   51.5281   29.5287 H         1 UNK         0.0000 
     34 H34        -5.6326   46.8114   30.9484 H         1 UNK         0.0000 
     35 H35        -3.4649   46.8869   28.9293 H         1 UNK         0.0000 
     36 H36        -5.0142   46.1365   28.6195 H         1 UNK         0.0000 
     37 H37        -5.4480   50.0845   26.9094 H         1 UNK         0.0000 
     38 H38        -3.9920   50.8357   27.5908 H         1 UNK         0.0000 
     39 H39        -3.0758   48.4562   24.8326 H         1 UNK         0.0000 
     40 H40        -4.2892   49.7066   24.9924 H         1 UNK         0.0000 
     41 H41         1.6073   52.8689   24.9267 H         1 UNK         0.0000 
     42 H42         3.2935   54.0596   26.2477 H         1 UNK         0.0000 
     43 H43         3.1104   54.1675   28.7053 H         1 UNK         0.0000 
     44 H44        -0.4821   51.8302   28.5360 H         1 UNK         0.0000 
     45 H45        -1.4605   45.8443   26.0552 H         1 UNK         0.0000 
     46 H46        -1.7104   47.1731   27.1488 H         1 UNK         0.0000 
     47 H47        -2.8214   48.7825   27.4193 H         1 UNK         0.0000 
@<TRIPOS>BOND
     1    1    6 ar   
     2    1    2 ar   
     3    1   31 1    
     4    2    3 ar   
     5    2   32 1    
     6    3    4 ar   
     7    3   33 1    
     8    4   11 1    
     9    4    5 ar   
    10    5    6 ar   
    11    5    7 1    
    12    6   34 1    
    13    7    8 1    
    14    7   35 1    
    15    7   36 1    
    16    8    9 1    
    17    8   10 1    
    18    8   28 1    
    19   10   11 1    
    20   10   12 1    
    21   10   47 1    
    22   11   37 1    
    23   11   38 1    
    24   12   13 1    
    25   12   39 1    
    26   12   40 1    
    27   13   17 1    
    28   13   14 2    
    29   14   15 1    
    30   15   16 2    
    31   15   18 1    
    32   16   17 1    
    33   18   23 ar   
    34   18   19 ar   
    35   19   20 ar   
    36   19   41 1    
    37   20   21 ar   
    38   20   42 1    
    39   21   22 ar   
    40   21   43 1    
    41   22   23 ar   
    42   22   24 1    
    43   23   44 1    
    44   24   25 1    
    45   24   26 1    
    46   24   27 1    
    47   28   29 2    
    48   28   30 am   BACKBONE|DICT|INTERRES
    49   30   45 1    
    50   30   46 1    
@<TRIPOS>SUBSTRUCTURE
     1 UNK         1 GROUP             0       ****    0 ROOT    
