@<TRIPOS>MOLECULE
ZINC33575115_5497
69   73    1
SMALL
USER_CHARGES


@<TRIPOS>ATOM
      1 C1         -5.0229   47.1739   26.7961 C.3       1 UNK         0.0000 
      2 C2         -3.7547   46.7053   26.0821 C.2       1 UNK         0.0000 
      3 O3         -3.4964   45.5002   26.0797 O.2       1 UNK         0.0000 
      4 C4         -2.8534   47.7456   25.4962 C.ar      1 UNK         0.0000 
      5 C5         -1.5247   47.4164   25.2020 C.ar      1 UNK         0.0000 
      6 C6         -0.6566   48.3670   24.6744 C.ar      1 UNK         0.0000 
      7 C7         -1.1114   49.6650   24.4002 C.ar      1 UNK         0.0000 
      8 C8         -2.4478   49.9879   24.6742 C.ar      1 UNK         0.0000 
      9 C9         -3.3106   49.0406   25.2199 C.ar      1 UNK         0.0000 
     10 N10        -0.2324   50.6331   23.8469 N.am      1 UNK         0.0000 
     11 C11        -0.1771   51.9442   24.2617 C.2       1 UNK         0.0000 
     12 O12        -0.6897   52.4813   25.2435 O.2       1 UNK         0.0000 
     13 C13         0.5974   52.6559   23.1765 C.3       1 UNK         0.0000 
     14 H14        -0.1536   52.8966   22.4217 H         1 UNK         0.0000 
     15 C15         1.5042   53.8764   23.3380 C.3       1 UNK         0.0000 
     16 H16         0.9704   54.8119   23.1732 H         1 UNK         0.0000 
     17 N17         2.3988   53.6800   22.0814 N.4       1 UNK         0.0000 
     18 C18         2.2443   52.2244   21.5128 C.3       1 UNK         0.0000 
     19 C19         1.5250   51.6138   22.7494 C.3       1 UNK         0.0000 
     20 H20         2.3048   51.3989   23.4900 H         1 UNK         0.0000 
     21 C21         0.6406   50.3791   22.8138 C.2       1 UNK         0.0000 
     22 O22         0.7431   49.3751   22.1119 O.2       1 UNK         0.0000 
     23 C23         1.3968   52.1463   20.1767 C.3       1 UNK         0.0000 
     24 C24         2.0711   52.1433   18.7583 C.3       1 UNK         0.0000 
     25 C25         0.9827   52.1869   17.6570 C.3       1 UNK         0.0000 
     26 C26         1.5821   51.9824   16.2489 C.3       1 UNK         0.0000 
     27 C27         2.6918   53.0129   15.9509 C.3       1 UNK         0.0000 
     28 C28         3.7539   53.0561   17.0667 C.3       1 UNK         0.0000 
     29 C29         3.1153   53.2610   18.4534 C.3       1 UNK         0.0000 
     30 C30         3.6843   51.6667   21.3015 C.2       1 UNK         0.0000 
     31 O31         4.6871   52.3406   21.6455 O.co2     1 UNK         0.0000 
     32 O32         3.7298   50.4974   20.8784 O.co2     1 UNK         0.0000 
     33 C33         2.2849   53.9537   24.6463 C.2       1 UNK         0.0000 
     34 C34         3.6230   54.0655   24.7814 C.2       1 UNK         0.0000 
     35 C35         4.3792   54.0968   26.0484 C.ar      1 UNK         0.0000 
     36 C36         5.7160   54.5001   26.0157 C.ar      1 UNK         0.0000 
     37 C37         6.4764   54.4978   27.1784 C.ar      1 UNK         0.0000 
     38 C38         5.9026   54.0967   28.3802 C.ar      1 UNK         0.0000 
     39 C39         4.5691   53.7021   28.4324 C.ar      1 UNK         0.0000 
     40 C40         3.8065   53.7036   27.2675 C.ar      1 UNK         0.0000 
     41 H41        -4.7678   47.9298   27.5422 H         1 UNK         0.0000 
     42 H42        -5.7231   47.6188   26.0883 H         1 UNK         0.0000 
     43 H43        -5.5098   46.3433   27.3048 H         1 UNK         0.0000 
     44 H44        -1.1390   46.4305   25.4198 H         1 UNK         0.0000 
     45 H45         0.3714   48.0914   24.4925 H         1 UNK         0.0000 
     46 H46        -2.8287   50.9775   24.4687 H         1 UNK         0.0000 
     47 H47        -4.3298   49.3340   25.4222 H         1 UNK         0.0000 
     48 H48         3.3789   53.8189   22.2932 H         1 UNK         0.0000 
     49 H49         0.6263   52.9150   20.2023 H         1 UNK         0.0000 
     50 H50         0.8345   51.2141   20.2023 H         1 UNK         0.0000 
     51 H51         2.5936   51.1907   18.6384 H         1 UNK         0.0000 
     52 H52         0.4118   53.1143   17.7194 H         1 UNK         0.0000 
     53 H53         0.2546   51.3949   17.8373 H         1 UNK         0.0000 
     54 H54         0.7991   52.0481   15.4949 H         1 UNK         0.0000 
     55 H55         1.9961   50.9749   16.1699 H         1 UNK         0.0000 
     56 H56         2.2449   54.0025   15.8398 H         1 UNK         0.0000 
     57 H57         3.1652   52.7826   14.9951 H         1 UNK         0.0000 
     58 H58         4.4784   53.8468   16.8650 H         1 UNK         0.0000 
     59 H59         4.3153   52.1203   17.0602 H         1 UNK         0.0000 
     60 H60         3.9075   53.2747   19.1956 H         1 UNK         0.0000 
     61 H61         2.6976   54.2618   18.5095 H         1 UNK         0.0000 
     62 H62         1.6673   53.9091   25.5309 H         1 UNK         0.0000 
     63 H63         4.2319   54.1200   23.8908 H         1 UNK         0.0000 
     64 H64         6.1773   54.8007   25.0842 H         1 UNK         0.0000 
     65 H65         7.5069   54.8079   27.1607 H         1 UNK         0.0000 
     66 H66         6.5018   54.1001   29.2809 H         1 UNK         0.0000 
     67 H67         4.1306   53.3924   29.3691 H         1 UNK         0.0000 
     68 H68         2.7807   53.3714   27.3241 H         1 UNK         0.0000 
     69 H69         2.1606   54.3443   21.3478 H         1 UNK         0.0000 
@<TRIPOS>BOND
     1    1    2 1    
     2    1   41 1    
     3    1   42 1    
     4    1   43 1    
     5    2    3 2    
     6    2    4 1    
     7    4    9 ar   
     8    4    5 ar   
     9    5    6 ar   
    10    5   44 1    
    11    6    7 ar   
    12    6   45 1    
    13    7    8 ar   
    14    7   10 1    
    15    8    9 ar   
    16    8   46 1    
    17    9   47 1    
    18   10   21 am   BACKBONE|DICT|INTERRES
    19   10   11 am   BACKBONE|DICT|INTERRES
    20   11   12 2    
    21   11   13 1    
    22   13   14 1    
    23   13   19 1    
    24   13   15 1    
    25   15   16 1    
    26   15   17 1    
    27   15   33 1    
    28   17   18 1    
    29   17   48 1    
    30   17   69 1    
    31   18   19 1    
    32   18   23 1    
    33   18   30 1    
    34   19   20 1    
    35   19   21 1    
    36   21   22 2    
    37   23   24 1    
    38   23   49 1    
    39   23   50 1    
    40   24   29 1    
    41   24   25 1    
    42   24   51 1    
    43   25   26 1    
    44   25   52 1    
    45   25   53 1    
    46   26   27 1    
    47   26   54 1    
    48   26   55 1    
    49   27   28 1    
    50   27   56 1    
    51   27   57 1    
    52   28   29 1    
    53   28   58 1    
    54   28   59 1    
    55   29   60 1    
    56   29   61 1    
    57   30   31 2    
    58   30   32 1    
    59   33   34 2    
    60   33   62 1    
    61   34   35 1    
    62   34   63 1    
    63   35   40 ar   
    64   35   36 ar   
    65   36   37 ar   
    66   36   64 1    
    67   37   38 ar   
    68   37   65 1    
    69   38   39 ar   
    70   38   66 1    
    71   39   40 ar   
    72   39   67 1    
    73   40   68 1    
@<TRIPOS>SUBSTRUCTURE
     1 UNK         1 GROUP             0       ****    0 ROOT    
