ZINC40820496_1792
                    3D
 Schrodinger Suite 2024-2.
 41 44  0  0  1  0            999 V2000
    0.1232   53.4533   30.6553 C   0  0  0  0  0  0
   -0.0924   52.5138   29.6509 C   0  0  0  0  0  0
    0.6251   52.6845   28.4619 C   0  0  0  0  0  0
    1.5760   53.7404   28.2721 C   0  0  0  0  0  0
    1.7399   54.6705   29.3157 C   0  0  0  0  0  0
    0.9925   54.5245   30.4815 C   0  0  0  0  0  0
    2.6153   55.6961   29.2044 F   0  0  0  0  0  0
    2.1918   53.5596   26.9747 C   0  0  0  0  0  0
    1.5045   52.4968   26.4114 C   0  0  0  0  0  0
    0.6067   51.9597   27.2963 N   0  0  0  0  0  0
    0.0395   51.1478   27.0873 H   0  0  0  0  0  0
    3.3438   54.3855   26.3837 C   0  0  1  0  0  0
    3.1076   55.4367   26.5395 H   0  0  0  0  0  0
    4.6627   54.0800   27.1024 C   0  0  0  0  0  0
    5.7314   54.4975   26.1142 C   0  0  0  0  0  0
    5.1600   54.0980   24.7576 C   0  0  0  0  0  0
    3.7021   54.1701   24.9567 N   0  0  0  0  0  0
    2.8025   54.1499   23.9326 C   0  0  0  0  0  0
    1.6264   54.4855   24.0755 O   0  0  0  0  0  0
    3.2103   53.5498   22.6088 C   0  0  0  0  0  0
    4.2114   54.0965   21.7936 C   0  0  0  0  0  0
    4.5283   53.4866   20.5762 C   0  0  0  0  0  0
    3.8339   52.3313   20.2102 C   0  0  0  0  0  0
    2.8530   51.7887   20.9741 N   0  0  0  0  0  0
    2.5499   52.4043   22.1433 C   0  0  0  0  0  0
    5.5055   54.0181   19.7374 N   0  0  0  0  0  0
   -0.4124   53.3472   31.5896 H   0  0  0  0  0  0
   -0.7866   51.6971   29.7923 H   0  0  0  0  0  0
    1.1045   55.2449   31.2778 H   0  0  0  0  0  0
    1.6147   52.0404   25.4379 H   0  0  0  0  0  0
    4.7588   53.0105   27.3050 H   0  0  0  0  0  0
    4.7563   54.6177   28.0460 H   0  0  0  0  0  0
    6.7025   54.0397   26.3074 H   0  0  0  0  0  0
    5.8707   55.5797   26.1575 H   0  0  0  0  0  0
    5.4773   53.0888   24.5049 H   0  0  0  0  0  0
    5.5234   54.8158   24.0219 H   0  0  0  0  0  0
    4.7257   55.0013   22.0787 H   0  0  0  0  0  0
    4.0491   51.8221   19.2819 H   0  0  0  0  0  0
    1.7591   51.9465   22.7192 H   0  0  0  0  0  0
    5.9593   54.8885   19.9754 H   0  0  0  0  0  0
    5.6843   53.5677   18.8494 H   0  0  0  0  0  0
  1  6  2  0  0  0
  1  2  1  0  0  0
  1 27  1  0  0  0
  2  3  2  0  0  0
  2 28  1  0  0  0
  3 10  1  0  0  0
  3  4  1  0  0  0
  4  5  2  0  0  0
  4  8  1  0  0  0
  5  6  1  0  0  0
  5  7  1  0  0  0
  6 29  1  0  0  0
  8  9  2  0  0  0
  8 12  1  0  0  0
  9 10  1  0  0  0
  9 30  1  0  0  0
 10 11  1  0  0  0
 12 13  1  0  0  0
 12 17  1  0  0  0
 12 14  1  0  0  0
 14 15  1  0  0  0
 14 31  1  0  0  0
 14 32  1  0  0  0
 15 16  1  0  0  0
 15 33  1  0  0  0
 15 34  1  0  0  0
 16 17  1  0  0  0
 16 35  1  0  0  0
 16 36  1  0  0  0
 17 18  1  0  0  0
 18 19  2  0  0  0
 18 20  1  0  0  0
 20 25  2  0  0  0
 20 21  1  0  0  0
 21 22  2  0  0  0
 21 37  1  0  0  0
 22 23  1  0  0  0
 22 26  1  0  0  0
 23 24  2  0  0  0
 23 38  1  0  0  0
 24 25  1  0  0  0
 25 39  1  0  0  0
 26 40  1  0  0  0
 26 41  1  0  0  0
M  END
> <i_i_glide_confnum>
11

> <i_i_glide_lignum>
1793

> <i_i_glide_posenum>
171

> <i_i_glide_rotatable_bonds>
3

> <i_m_Source_File_Index>
5876

> <b_m_subgroup_collapsed>
0

> <r_i_docking_score>
-6.65024

> <r_i_glide_ecoul>
-2.65037

> <r_i_glide_eff_state_penalty>
0

> <r_i_glide_einternal>
5.01259

> <r_i_glide_emodel>
-55.1838

> <r_i_glide_energy>
-40.6565

> <r_i_glide_erotb>
0.534003

> <r_i_glide_esite>
-0.0137796

> <r_i_glide_evdw>
-38.0062

> <r_i_glide_gscore>
-6.65024

> <r_i_glide_hbond>
0

> <r_i_glide_ligand_efficiency>
-0.277093

> <r_i_glide_ligand_efficiency_ln>
-1.59171

> <r_i_glide_ligand_efficiency_sa>
-0.799276

> <r_i_glide_lipo>
-2.49425

> <r_i_glide_metal>
0

> <r_i_glide_rewards>
-2.37835

> <s_i_glide_gridfile>
wee1_glide-grid

> <s_m_Source_File>
wee1_decoys_glide_SP.sdf

> <s_m_Source_Path>
/Users/zhangxujun/Desktop

> <s_m_entry_id>
6151

> <s_m_entry_name>
wee1_decoys_glide_SP.5876

> <s_m_subgroup_title>
wee1_decoys_glide_SP

> <s_m_subgroupid>
wee1_decoys_glide_SP


$$$$
