@<TRIPOS>MOLECULE
ZINC64930587_49
53   56    1
SMALL
USER_CHARGES


@<TRIPOS>ATOM
      1 C1          1.2462   52.0966   31.9214 C.3       1 UNK         0.0000 
      2 C2          1.9716   52.4986   30.6510 C.ar      1 UNK         0.0000 
      3 C3          1.2283   52.8746   29.5334 C.ar      1 UNK         0.0000 
      4 C4          1.8765   53.2763   28.3719 C.ar      1 UNK         0.0000 
      5 C5          3.2714   53.3052   28.3251 C.ar      1 UNK         0.0000 
      6 C6          4.0206   52.8998   29.4362 C.ar      1 UNK         0.0000 
      7 C7          3.3682   52.4966   30.5987 C.ar      1 UNK         0.0000 
      8 N8          3.8291   53.6957   27.1016 N.am      1 UNK         0.0000 
      9 C9          5.0918   54.0600   26.7796 C.2       1 UNK         0.0000 
     10 O10         6.0077   54.2366   27.5829 O.2       1 UNK         0.0000 
     11 C11         5.3199   54.2021   25.3543 C.2       1 UNK         0.0000 
     12 N12         6.4505   54.4021   24.7150 N.2       1 UNK         0.0000 
     13 N13         6.3155   54.4224   23.3295 N.2       1 UNK         0.0000 
     14 C14         5.0808   54.2569   22.9083 C.2       1 UNK         0.0000 
     15 S15         3.9757   54.0988   24.2350 S.3       1 UNK         0.0000 
     16 C16         4.6307   54.2493   21.4426 C.3       1 UNK         0.0000 
     17 H17         3.7505   54.8906   21.3670 H         1 UNK         0.0000 
     18 C18         5.6728   54.8202   20.4651 C.3       1 UNK         0.0000 
     19 C19         5.2997   54.1863   19.1429 C.3       1 UNK         0.0000 
     20 C20         4.9639   52.7526   19.5324 C.3       1 UNK         0.0000 
     21 N21         4.3474   52.9109   20.8589 N.am      1 UNK         0.0000 
     22 C22         3.4104   52.0097   21.2593 C.2       1 UNK         0.0000 
     23 O23         3.4486   50.8364   20.8883 O.2       1 UNK         0.0000 
     24 N24         2.4234   52.5105   22.0367 N.am      1 UNK         0.0000 
     25 C25         1.5668   51.8416   22.9369 C.ar      1 UNK         0.0000 
     26 C26         1.5233   50.4465   23.1131 C.ar      1 UNK         0.0000 
     27 C27         0.7294   49.8946   24.1149 C.ar      1 UNK         0.0000 
     28 C28        -0.0199   50.7215   24.9519 C.ar      1 UNK         0.0000 
     29 C29        -0.0146   52.1029   24.7544 C.ar      1 UNK         0.0000 
     30 C30         0.7722   52.6590   23.7472 C.ar      1 UNK         0.0000 
     31 C31        -0.8254   50.1068   26.0814 C.3       1 UNK         0.0000 
     32 H32         1.7875   51.3219   32.4669 H         1 UNK         0.0000 
     33 H33         0.2603   51.6974   31.6827 H         1 UNK         0.0000 
     34 H34         1.1054   52.9529   32.5799 H         1 UNK         0.0000 
     35 H35         0.1486   52.8615   29.5658 H         1 UNK         0.0000 
     36 H36         1.2854   53.5651   27.5138 H         1 UNK         0.0000 
     37 H37         5.0991   52.8785   29.4038 H         1 UNK         0.0000 
     38 H38         3.9492   52.1958   31.4599 H         1 UNK         0.0000 
     39 H39         3.1839   53.6525   26.3284 H         1 UNK         0.0000 
     40 H40         5.6467   55.9091   20.4167 H         1 UNK         0.0000 
     41 H41         6.6887   54.5078   20.7201 H         1 UNK         0.0000 
     42 H42         4.4237   54.6782   18.7160 H         1 UNK         0.0000 
     43 H43         6.0921   54.2390   18.3949 H         1 UNK         0.0000 
     44 H44         4.2951   52.3221   18.7832 H         1 UNK         0.0000 
     45 H45         5.9021   52.2013   19.6240 H         1 UNK         0.0000 
     46 H46         2.4059   53.5138   22.1174 H         1 UNK         0.0000 
     47 H47         2.1188   49.7698   22.5193 H         1 UNK         0.0000 
     48 H48         0.7286   48.8232   24.2641 H         1 UNK         0.0000 
     49 H49        -0.6030   52.7465   25.3929 H         1 UNK         0.0000 
     50 H50         0.7858   53.7337   23.6260 H         1 UNK         0.0000 
     51 H51        -1.4230   49.2729   25.7121 H         1 UNK         0.0000 
     52 H52        -0.1598   49.7090   26.8495 H         1 UNK         0.0000 
     53 H53        -1.5089   50.8214   26.5415 H         1 UNK         0.0000 
@<TRIPOS>BOND
     1    1    2 1    
     2    1   32 1    
     3    1   33 1    
     4    1   34 1    
     5    2    7 ar   
     6    2    3 ar   
     7    3    4 ar   
     8    3   35 1    
     9    4    5 ar   
    10    4   36 1    
    11    5    6 ar   
    12    5    8 1    
    13    6    7 ar   
    14    6   37 1    
    15    7   38 1    
    16    8    9 am   BACKBONE|DICT|INTERRES
    17    8   39 1    
    18    9   10 2    
    19    9   11 1    
    20   11   15 1    
    21   11   12 2    
    22   12   13 1    
    23   13   14 2    
    24   14   15 1    
    25   14   16 1    
    26   16   17 1    
    27   16   21 1    
    28   16   18 1    
    29   18   19 1    
    30   18   40 1    
    31   18   41 1    
    32   19   20 1    
    33   19   42 1    
    34   19   43 1    
    35   20   21 1    
    36   20   44 1    
    37   20   45 1    
    38   21   22 am   BACKBONE|DICT|INTERRES
    39   22   23 2    
    40   22   24 am   BACKBONE|DICT|INTERRES
    41   24   25 1    
    42   24   46 1    
    43   25   30 ar   
    44   25   26 ar   
    45   26   27 ar   
    46   26   47 1    
    47   27   28 ar   
    48   27   48 1    
    49   28   29 ar   
    50   28   31 1    
    51   29   30 ar   
    52   29   49 1    
    53   30   50 1    
    54   31   51 1    
    55   31   52 1    
    56   31   53 1    
@<TRIPOS>SUBSTRUCTURE
     1 UNK         1 GROUP             0       ****    0 ROOT    
