ZINC39595362_778
                    3D
 Schrodinger Suite 2024-2.
 63 66  0  0  1  0            999 V2000
   -1.1524   52.4967   26.0229 C   0  0  0  0  0  0
    0.3348   52.0797   26.1183 C   0  0  1  0  0  0
    0.4123   51.1128   26.6182 H   0  0  0  0  0  0
    0.9778   51.9229   24.7210 C   0  0  0  0  0  0
    0.6039   50.6587   24.0844 N   0  0  0  0  0  0
   -0.4776   50.4706   23.3087 C   0  0  0  0  0  0
   -1.2043   51.3905   22.9309 O   0  0  0  0  0  0
   -0.8192   49.0019   22.9744 C   0  0  2  0  0  0
   -0.1305   48.3882   23.5526 H   0  0  0  0  0  0
   -0.5465   48.6815   21.4990 C   0  0  0  0  0  0
   -1.8656   48.5540   20.8847 N   0  0  0  0  0  0
   -2.9499   48.7822   21.8438 C   0  0  0  0  0  0
   -2.3035   48.5843   23.2377 C   0  0  0  0  0  0
   -2.4044   47.0751   23.6251 C   0  0  0  0  0  0
   -1.7878   46.7780   25.0205 C   0  0  0  0  0  0
   -2.4969   47.6479   26.0816 N   0  3  0  0  0  0
   -2.5304   49.1438   25.7267 C   0  0  0  0  0  0
   -3.1467   49.3092   24.3258 C   0  0  0  0  0  0
   -2.0766   48.0073   19.6613 C   0  0  0  0  0  0
   -3.2010   47.7753   19.2152 O   0  0  0  0  0  0
   -0.8648   47.6136   18.8488 C   0  0  0  0  0  0
   -0.0384   48.6092   18.3049 C   0  0  0  0  0  0
    1.1062   48.2667   17.5830 C   0  0  0  0  0  0
    1.4336   46.9263   17.3904 C   0  0  0  0  0  0
    0.6264   45.9299   17.9354 C   0  0  0  0  0  0
   -0.5129   46.2611   18.6716 C   0  0  0  0  0  0
   -1.4349   44.9641   19.3617 Cl  0  0  0  0  0  0
    2.8376   46.4966   16.4830 Cl  0  0  0  0  0  0
    1.0982   53.0498   26.8418 O   0  0  0  0  0  0
    0.8649   53.2447   28.1921 C   0  0  0  0  0  0
    0.2102   52.3209   29.0262 C   0  0  0  0  0  0
    0.0117   52.6107   30.3733 C   0  0  0  0  0  0
    0.4651   53.8192   30.8907 C   0  0  0  0  0  0
    1.1154   54.7421   30.0764 C   0  0  0  0  0  0
    1.3233   54.4473   28.7318 C   0  0  0  0  0  0
    0.2830   54.0956   32.1996 F   0  0  0  0  0  0
   -1.7772   51.6820   25.6747 H   0  0  0  0  0  0
   -1.5620   52.8265   26.9756 H   0  0  0  0  0  0
   -1.2936   53.2963   25.3001 H   0  0  0  0  0  0
    0.7402   52.7804   24.0870 H   0  0  0  0  0  0
    2.0629   51.9454   24.8194 H   0  0  0  0  0  0
    1.1995   49.8670   24.2814 H   0  0  0  0  0  0
    0.1362   49.3859   21.0191 H   0  0  0  0  0  0
   -0.0956   47.6967   21.4633 H   0  0  0  0  0  0
   -3.8512   48.1783   21.7233 H   0  0  0  0  0  0
   -3.2252   49.8366   21.7840 H   0  0  0  0  0  0
   -3.4430   46.7394   23.5960 H   0  0  0  0  0  0
   -1.8968   46.4657   22.8747 H   0  0  0  0  0  0
   -1.9343   45.7498   25.3461 H   0  0  0  0  0  0
   -0.7278   47.0164   25.1055 H   0  0  0  0  0  0
   -3.4406   47.3207   26.2309 H   0  0  0  0  0  0
   -3.1120   49.6268   26.5141 H   0  0  0  0  0  0
   -1.4936   49.4708   25.8017 H   0  0  0  0  0  0
   -3.2213   50.3745   24.1053 H   0  0  0  0  0  0
   -4.1809   48.9596   24.3189 H   0  0  0  0  0  0
   -0.2745   49.6559   18.4407 H   0  0  0  0  0  0
    1.7463   49.0374   17.1725 H   0  0  0  0  0  0
    0.8920   44.8934   17.7915 H   0  0  0  0  0  0
   -0.1554   51.3757   28.6560 H   0  0  0  0  0  0
   -0.4957   51.9063   31.0193 H   0  0  0  0  0  0
    1.4595   55.6791   30.4897 H   0  0  0  0  0  0
    1.8278   55.1608   28.0969 H   0  0  0  0  0  0
   -2.0338   47.5978   26.9989 H   0  0  0  0  0  0
  1  2  1  0  0  0
  1 37  1  0  0  0
  1 38  1  0  0  0
  1 39  1  0  0  0
  2  3  1  0  0  0
  2  4  1  0  0  0
  2 29  1  0  0  0
  4  5  1  0  0  0
  4 40  1  0  0  0
  4 41  1  0  0  0
  5  6  1  0  0  0
  5 42  1  0  0  0
  6  7  2  0  0  0
  6  8  1  0  0  0
  8  9  1  0  0  0
  8 13  1  0  0  0
  8 10  1  0  0  0
 10 11  1  0  0  0
 10 43  1  0  0  0
 10 44  1  0  0  0
 11 12  1  0  0  0
 11 19  1  0  0  0
 12 13  1  0  0  0
 12 45  1  0  0  0
 12 46  1  0  0  0
 13 18  1  0  0  0
 13 14  1  0  0  0
 14 15  1  0  0  0
 14 47  1  0  0  0
 14 48  1  0  0  0
 15 16  1  0  0  0
 15 49  1  0  0  0
 15 50  1  0  0  0
 16 17  1  0  0  0
 16 51  1  0  0  0
 16 63  1  0  0  0
 17 18  1  0  0  0
 17 52  1  0  0  0
 17 53  1  0  0  0
 18 54  1  0  0  0
 18 55  1  0  0  0
 19 20  2  0  0  0
 19 21  1  0  0  0
 21 26  2  0  0  0
 21 22  1  0  0  0
 22 23  2  0  0  0
 22 56  1  0  0  0
 23 24  1  0  0  0
 23 57  1  0  0  0
 24 25  2  0  0  0
 24 28  1  0  0  0
 25 26  1  0  0  0
 25 58  1  0  0  0
 26 27  1  0  0  0
 29 30  1  0  0  0
 30 35  2  0  0  0
 30 31  1  0  0  0
 31 32  2  0  0  0
 31 59  1  0  0  0
 32 33  1  0  0  0
 32 60  1  0  0  0
 33 34  2  0  0  0
 33 36  1  0  0  0
 34 35  1  0  0  0
 34 61  1  0  0  0
 35 62  1  0  0  0
M  CHG  1  16   1
M  END
> <i_i_glide_confnum>
375

> <i_i_glide_lignum>
779

> <i_i_glide_posenum>
95

> <i_i_glide_rotatable_bonds>
8

> <i_m_Source_File_Index>
926

> <b_m_subgroup_collapsed>
0

> <r_i_docking_score>
-3.33892

> <r_i_glide_ecoul>
-6.19383

> <r_i_glide_eff_state_penalty>
0

> <r_i_glide_einternal>
10.2976

> <r_i_glide_emodel>
-41.9945

> <r_i_glide_energy>
-36.9041

> <r_i_glide_erotb>
0.552423

> <r_i_glide_esite>
-0.170216

> <r_i_glide_evdw>
-30.7103

> <r_i_glide_gscore>
-3.33892

> <r_i_glide_hbond>
-0.2

> <r_i_glide_ligand_efficiency>
-0.0982035

> <r_i_glide_ligand_efficiency_ln>
-0.737661

> <r_i_glide_ligand_efficiency_sa>
-0.318141

> <r_i_glide_lipo>
-1.08472

> <r_i_glide_metal>
0

> <r_i_glide_rewards>
0.0281789

> <s_i_glide_gridfile>
wee1_glide-grid

> <s_m_Source_File>
wee1_decoys_glide_SP.sdf

> <s_m_Source_Path>
/Users/zhangxujun/Desktop

> <s_m_entry_id>
1201

> <s_m_entry_name>
wee1_decoys_glide_SP.926

> <s_m_subgroup_title>
wee1_decoys_glide_SP

> <s_m_subgroupid>
wee1_decoys_glide_SP


$$$$
