@<TRIPOS>MOLECULE
ZINC32958862_1437
58   60    1
SMALL
USER_CHARGES


@<TRIPOS>ATOM
      1 C1          6.7044   54.8482   24.0062 C.3       1 UNK         0.0000 
      2 C2          5.4419   54.4907   24.7765 C.ar      1 UNK         0.0000 
      3 C3          5.4584   54.6147   26.1711 C.ar      1 UNK         0.0000 
      4 C4          4.3192   54.3125   26.9156 C.ar      1 UNK         0.0000 
      5 C5          3.1489   53.9350   26.2664 C.ar      1 UNK         0.0000 
      6 C6          3.1129   53.8094   24.8824 C.ar      1 UNK         0.0000 
      7 C7          4.2702   54.0425   24.1292 C.ar      1 UNK         0.0000 
      8 S8          4.2440   53.6530   22.3679 S.o2      1 UNK         0.0000 
      9 O9          5.5043   52.9627   22.0838 O.2       1 UNK         0.0000 
     10 O10         3.9037   54.8961   21.6810 O.2       1 UNK         0.0000 
     11 N11         2.9290   52.4808   22.1311 N.pl3     1 UNK         0.0000 
     12 C12         3.2754   51.1024   21.7264 C.3       1 UNK         0.0000 
     13 C13         2.2657   50.1147   22.3529 C.3       1 UNK         0.0000 
     14 C14         0.7758   50.4578   22.0311 C.3       1 UNK         0.0000 
     15 C15         0.5145   51.9662   22.3561 C.3       1 UNK         0.0000 
     16 C16         1.5687   52.9355   21.7687 C.3       1 UNK         0.0000 
     17 C17         0.4096   50.1772   20.5430 C.2       1 UNK         0.0000 
     18 O18        -0.5525   50.7506   20.0302 O.2       1 UNK         0.0000 
     19 N19         1.1476   49.2672   19.8760 N.am      1 UNK         0.0000 
     20 C20         1.0391   48.8312   18.4788 C.3       1 UNK         0.0000 
     21 C21         2.0965   47.7318   18.2684 C.3       1 UNK         0.0000 
     22 C22         1.3368   50.0002   17.5142 C.3       1 UNK         0.0000 
     23 C23        -0.3525   48.2305   18.1731 C.3       1 UNK         0.0000 
     24 O24         1.9903   53.6944   26.9716 O.3       1 UNK         0.0000 
     25 C25         2.0951   53.3677   28.3811 C.3       1 UNK         0.0000 
     26 H26         1.2758   53.8776   28.8888 H         1 UNK         0.0000 
     27 C27         3.4075   53.8059   29.1155 C.2       1 UNK         0.0000 
     28 O28         3.5857   53.6984   30.3254 O.2       1 UNK         0.0000 
     29 N29         4.3462   54.3144   28.3012 N.am      1 UNK         0.0000 
     30 C30         1.8944   51.8535   28.5685 C.3       1 UNK         0.0000 
     31 H31         7.3469   55.5217   24.5738 H         1 UNK         0.0000 
     32 H32         7.2725   53.9505   23.7547 H         1 UNK         0.0000 
     33 H33         6.4633   55.3717   23.0809 H         1 UNK         0.0000 
     34 H34         6.3641   54.9218   26.6763 H         1 UNK         0.0000 
     35 H35         2.1930   53.4948   24.4168 H         1 UNK         0.0000 
     36 H36         4.2976   50.8966   22.0336 H         1 UNK         0.0000 
     37 H37         3.2148   51.0361   20.6384 H         1 UNK         0.0000 
     38 H38         2.3744   50.1025   23.4390 H         1 UNK         0.0000 
     39 H39         2.4950   49.0689   22.1419 H         1 UNK         0.0000 
     40 H40         0.0609   49.8420   22.5784 H         1 UNK         0.0000 
     41 H41        -0.5053   52.2542   22.0943 H         1 UNK         0.0000 
     42 H42         0.4476   52.0698   23.4399 H         1 UNK         0.0000 
     43 H43         1.4213   53.9629   22.1018 H         1 UNK         0.0000 
     44 H44         1.4870   52.9002   20.6815 H         1 UNK         0.0000 
     45 H45         1.9345   48.8778   20.3717 H         1 UNK         0.0000 
     46 H46         2.1057   47.3757   17.2373 H         1 UNK         0.0000 
     47 H47         1.9042   46.8692   18.9075 H         1 UNK         0.0000 
     48 H48         3.1043   48.0924   18.4870 H         1 UNK         0.0000 
     49 H49         0.6023   50.8009   17.6016 H         1 UNK         0.0000 
     50 H50         2.3168   50.4370   17.7071 H         1 UNK         0.0000 
     51 H51         1.3336   49.6701   16.4751 H         1 UNK         0.0000 
     52 H52        -1.1441   48.9758   18.2504 H         1 UNK         0.0000 
     53 H53        -0.3967   47.8272   17.1605 H         1 UNK         0.0000 
     54 H54        -0.5972   47.4184   18.8577 H         1 UNK         0.0000 
     55 H55         5.1930   54.5921   28.7744 H         1 UNK         0.0000 
     56 H56         1.8710   51.5674   29.6189 H         1 UNK         0.0000 
     57 H57         0.9497   51.5334   28.1316 H         1 UNK         0.0000 
     58 H58         2.6907   51.2929   28.0837 H         1 UNK         0.0000 
@<TRIPOS>BOND
     1    1    2 1    
     2    1   31 1    
     3    1   32 1    
     4    1   33 1    
     5    2    7 ar   
     6    2    3 ar   
     7    3    4 ar   
     8    3   34 1    
     9    4   29 1    
    10    4    5 ar   
    11    5    6 ar   
    12    5   24 1    
    13    6    7 ar   
    14    6   35 1    
    15    7    8 1    
    16    8    9 2    
    17    8   10 2    
    18    8   11 1    
    19   11   16 1    
    20   11   12 1    
    21   12   13 1    
    22   12   36 1    
    23   12   37 1    
    24   13   14 1    
    25   13   38 1    
    26   13   39 1    
    27   14   15 1    
    28   14   17 1    
    29   14   40 1    
    30   15   16 1    
    31   15   41 1    
    32   15   42 1    
    33   16   43 1    
    34   16   44 1    
    35   17   18 2    
    36   17   19 am   BACKBONE|DICT|INTERRES
    37   19   20 1    
    38   19   45 1    
    39   20   21 1    
    40   20   22 1    
    41   20   23 1    
    42   21   46 1    
    43   21   47 1    
    44   21   48 1    
    45   22   49 1    
    46   22   50 1    
    47   22   51 1    
    48   23   52 1    
    49   23   53 1    
    50   23   54 1    
    51   24   25 1    
    52   25   26 1    
    53   25   27 1    
    54   25   30 1    
    55   27   28 2    
    56   27   29 am   BACKBONE|DICT|INTERRES
    57   29   55 1    
    58   30   56 1    
    59   30   57 1    
    60   30   58 1    
@<TRIPOS>SUBSTRUCTURE
     1 UNK         1 GROUP             0       ****    0 ROOT    
