ZINC43743318_1106
                    3D
 Schrodinger Suite 2024-2.
 86 90  0  0  1  0            999 V2000
    0.2114   48.1160   24.3154 C   0  0  0  0  0  0
   -0.8589   49.1871   24.4667 C   0  0  0  0  0  0
   -1.5906   49.2417   25.5885 C   0  0  0  0  0  0
   -2.6525   50.2947   25.8509 C   0  0  1  0  0  0
   -2.7100   50.3647   26.9371 H   0  0  0  0  0  0
   -2.1706   51.6750   25.2883 C   0  0  2  0  0  0
   -1.4019   51.9446   26.0149 H   0  0  0  0  0  0
   -3.2744   52.7654   25.4860 C   0  0  0  0  0  0
   -4.7134   52.3604   25.0670 C   0  0  0  0  0  0
   -5.1431   50.9819   25.6512 C   0  0  2  0  0  0
   -4.0475   49.9395   25.2857 C   0  0  2  0  0  0
   -3.9330   49.9441   24.1989 H   0  0  0  0  0  0
   -4.6836   48.5862   25.6247 C   0  0  0  0  0  0
   -6.1930   48.7779   25.3473 C   0  0  0  0  0  0
   -6.3890   50.2901   24.9719 C   0  0  1  0  0  0
   -7.7364   50.9635   25.4034 C   0  0  0  0  0  0
   -8.1151   52.0208   24.8977 O   0  0  0  0  0  0
   -8.5928   50.3081   26.4839 C   0  0  0  0  0  0
   -6.2466   50.4738   23.5318 O   0  0  0  0  0  0
   -7.0212   50.0021   22.4948 C   0  0  0  0  0  0
   -6.6638   50.0975   21.3240 O   0  0  0  0  0  0
   -8.3717   49.3607   22.8186 C   0  0  0  0  0  0
   -5.3202   51.1365   27.2034 C   0  0  0  0  0  0
   -1.4621   51.6474   23.8538 C   0  0  1  0  0  0
   -1.0728   50.2024   23.4433 C   0  0  0  0  0  0
   -0.9262   49.8550   22.1439 C   0  0  0  0  0  0
   -1.1033   50.7577   20.9359 C   0  0  1  0  0  0
   -1.8114   50.2671   20.2651 H   0  0  0  0  0  0
   -1.6263   52.1645   21.3104 C   0  0  0  0  0  0
   -2.3275   52.2254   22.6846 C   0  0  0  0  0  0
    0.1613   50.7764   20.3015 O   0  0  0  0  0  0
    0.3437   51.1010   19.0074 C   0  0  0  0  0  0
   -0.5012   51.5809   18.2524 O   0  0  0  0  0  0
    1.7618   50.7664   18.5278 C   0  0  0  0  0  0
    2.8399   50.6996   19.6405 C   0  0  0  0  0  0
    3.1212   52.1049   20.2307 N   0  3  0  0  0  0
    4.1433   52.8461   19.3282 C   0  0  0  0  0  0
    4.4091   54.2443   19.9045 C   0  0  0  0  0  0
    4.8827   54.1776   21.3670 C   0  0  0  0  0  0
    3.8786   53.4008   22.2388 C   0  0  0  0  0  0
    3.6230   51.9859   21.6901 C   0  0  0  0  0  0
   -0.1416   52.4630   23.9707 C   0  0  0  0  0  0
    1.1012   48.5470   23.8546 H   0  0  0  0  0  0
    0.5358   47.7318   25.2815 H   0  0  0  0  0  0
   -0.1365   47.3003   23.6834 H   0  0  0  0  0  0
   -1.4274   48.4769   26.3313 H   0  0  0  0  0  0
   -3.3044   53.0204   26.5446 H   0  0  0  0  0  0
   -2.9710   53.6964   25.0206 H   0  0  0  0  0  0
   -4.7497   52.3405   23.9822 H   0  0  0  0  0  0
   -5.4303   53.1360   25.3431 H   0  0  0  0  0  0
   -4.5459   48.3682   26.6851 H   0  0  0  0  0  0
   -4.2292   47.7621   25.0722 H   0  0  0  0  0  0
   -6.7535   48.4779   26.2331 H   0  0  0  0  0  0
   -6.4975   48.1032   24.5499 H   0  0  0  0  0  0
   -8.0156   50.1465   27.3930 H   0  0  0  0  0  0
   -9.4411   50.9465   26.7308 H   0  0  0  0  0  0
   -8.9871   49.3548   26.1321 H   0  0  0  0  0  0
   -8.7041   48.7619   21.9718 H   0  0  0  0  0  0
   -9.1158   50.1385   22.9855 H   0  0  0  0  0  0
   -8.3371   48.7169   23.6920 H   0  0  0  0  0  0
   -4.4159   51.4612   27.7121 H   0  0  0  0  0  0
   -6.0765   51.8843   27.4434 H   0  0  0  0  0  0
   -5.6252   50.2076   27.6828 H   0  0  0  0  0  0
   -0.6498   48.8341   21.9223 H   0  0  0  0  0  0
   -0.8129   52.8936   21.2833 H   0  0  0  0  0  0
   -2.3155   52.4876   20.5296 H   0  0  0  0  0  0
   -3.2502   51.6513   22.6041 H   0  0  0  0  0  0
   -2.6190   53.2570   22.8791 H   0  0  0  0  0  0
    1.7057   49.7885   18.0489 H   0  0  0  0  0  0
    2.0567   51.4583   17.7395 H   0  0  0  0  0  0
    2.5298   50.0470   20.4599 H   0  0  0  0  0  0
    3.7847   50.2978   19.2896 H   0  0  0  0  0  0
    5.0518   52.2434   19.2830 H   0  0  0  0  0  0
    3.7000   52.9206   18.3327 H   0  0  0  0  0  0
    5.1559   54.7536   19.2943 H   0  0  0  0  0  0
    3.5047   54.8487   19.8291 H   0  0  0  0  0  0
    5.0164   55.1876   21.7572 H   0  0  0  0  0  0
    5.8683   53.7023   21.4200 H   0  0  0  0  0  0
    2.9360   53.9471   22.2893 H   0  0  0  0  0  0
    4.2499   53.3392   23.2638 H   0  0  0  0  0  0
    2.8300   51.4958   22.2578 H   0  0  0  0  0  0
    4.5236   51.3686   21.6754 H   0  0  0  0  0  0
   -0.3442   53.5128   24.1829 H   0  0  0  0  0  0
    0.4904   52.0857   24.7756 H   0  0  0  0  0  0
    0.4663   52.4228   23.0671 H   0  0  0  0  0  0
    2.2601   52.6367   20.2401 H   0  0  0  0  0  0
  1  2  1  0  0  0
  1 43  1  0  0  0
  1 44  1  0  0  0
  1 45  1  0  0  0
  2 25  1  0  0  0
  2  3  2  0  0  0
  3  4  1  0  0  0
  3 46  1  0  0  0
  4  5  1  0  0  0
  4 11  1  0  0  0
  4  6  1  0  0  0
  6  7  1  0  0  0
  6  8  1  0  0  0
  6 24  1  0  0  0
  8  9  1  0  0  0
  8 47  1  0  0  0
  8 48  1  0  0  0
  9 10  1  0  0  0
  9 49  1  0  0  0
  9 50  1  0  0  0
 10 15  1  0  0  0
 10 11  1  0  0  0
 10 23  1  0  0  0
 11 12  1  0  0  0
 11 13  1  0  0  0
 13 14  1  0  0  0
 13 51  1  0  0  0
 13 52  1  0  0  0
 14 15  1  0  0  0
 14 53  1  0  0  0
 14 54  1  0  0  0
 15 16  1  0  0  0
 15 19  1  0  0  0
 16 17  2  0  0  0
 16 18  1  0  0  0
 18 55  1  0  0  0
 18 56  1  0  0  0
 18 57  1  0  0  0
 19 20  1  0  0  0
 20 21  2  0  0  0
 20 22  1  0  0  0
 22 58  1  0  0  0
 22 59  1  0  0  0
 22 60  1  0  0  0
 23 61  1  0  0  0
 23 62  1  0  0  0
 23 63  1  0  0  0
 24 30  1  0  0  0
 24 25  1  0  0  0
 24 42  1  0  0  0
 25 26  2  0  0  0
 26 27  1  0  0  0
 26 64  1  0  0  0
 27 28  1  0  0  0
 27 29  1  0  0  0
 27 31  1  0  0  0
 29 30  1  0  0  0
 29 65  1  0  0  0
 29 66  1  0  0  0
 30 67  1  0  0  0
 30 68  1  0  0  0
 31 32  1  0  0  0
 32 33  2  0  0  0
 32 34  1  0  0  0
 34 35  1  0  0  0
 34 69  1  0  0  0
 34 70  1  0  0  0
 35 36  1  0  0  0
 35 71  1  0  0  0
 35 72  1  0  0  0
 36 41  1  0  0  0
 36 37  1  0  0  0
 36 86  1  0  0  0
 37 38  1  0  0  0
 37 73  1  0  0  0
 37 74  1  0  0  0
 38 39  1  0  0  0
 38 75  1  0  0  0
 38 76  1  0  0  0
 39 40  1  0  0  0
 39 77  1  0  0  0
 39 78  1  0  0  0
 40 41  1  0  0  0
 40 79  1  0  0  0
 40 80  1  0  0  0
 41 81  1  0  0  0
 41 82  1  0  0  0
 42 83  1  0  0  0
 42 84  1  0  0  0
 42 85  1  0  0  0
M  CHG  1  36   1
M  END
> <i_i_glide_confnum>
33

> <i_i_glide_lignum>
1107

> <i_i_glide_posenum>
399

> <i_i_glide_rotatable_bonds>
8

> <i_m_Source_File_Index>
5551

> <b_m_subgroup_collapsed>
0

> <r_i_docking_score>
1.39412

> <r_i_glide_ecoul>
-2.33302

> <r_i_glide_eff_state_penalty>
0

> <r_i_glide_einternal>
9.37478

> <r_i_glide_emodel>
-6.58384

> <r_i_glide_energy>
-22.4799

> <r_i_glide_erotb>
0.371084

> <r_i_glide_esite>
-0.0381089

> <r_i_glide_evdw>
-20.1469

> <r_i_glide_gscore>
1.39412

> <r_i_glide_hbond>
0

> <r_i_glide_ligand_efficiency>
0.0366872

> <r_i_glide_ligand_efficiency_ln>
0.300612

> <r_i_glide_ligand_efficiency_sa>
0.123342

> <r_i_glide_lipo>
-0.513119

> <r_i_glide_metal>
0

> <r_i_glide_rewards>
2.93156

> <s_i_glide_gridfile>
wee1_glide-grid

> <s_m_Source_File>
wee1_decoys_glide_SP.sdf

> <s_m_Source_Path>
/Users/zhangxujun/Desktop

> <s_m_entry_id>
5826

> <s_m_entry_name>
wee1_decoys_glide_SP.5551

> <s_m_subgroup_title>
wee1_decoys_glide_SP

> <s_m_subgroupid>
wee1_decoys_glide_SP


$$$$
