@<TRIPOS>MOLECULE
ZINC08301912_1521
54   57    1
SMALL
USER_CHARGES


@<TRIPOS>ATOM
      1 C1         -0.6031   48.8632   22.5804 C.3       1 UNK         0.0000 
      2 C2          0.3355   50.0391   22.7762 C.ar      1 UNK         0.0000 
      3 C3          1.3609   50.2874   21.8641 C.ar      1 UNK         0.0000 
      4 C4          2.2210   51.3672   22.0541 C.ar      1 UNK         0.0000 
      5 C5          2.0790   52.2158   23.1675 C.ar      1 UNK         0.0000 
      6 C6          1.0279   51.9739   24.0639 C.ar      1 UNK         0.0000 
      7 C7          0.1671   50.8893   23.8696 C.ar      1 UNK         0.0000 
      8 C8          0.8135   52.8970   25.2491 C.3       1 UNK         0.0000 
      9 O9          2.9331   53.2716   23.4546 O.3       1 UNK         0.0000 
     10 C10         4.0919   53.4572   22.6948 C.3       1 UNK         0.0000 
     11 H11         4.5677   52.4967   22.4812 H         1 UNK         0.0000 
     12 C12         5.0554   54.3774   23.4879 C.3       1 UNK         0.0000 
     13 H13         4.4923   55.2901   23.6805 H         1 UNK         0.0000 
     14 C14         6.2855   54.6968   22.5752 C.3       1 UNK         0.0000 
     15 H15         6.8964   53.7987   22.4954 H         1 UNK         0.0000 
     16 C16         5.8647   55.1421   21.1642 C.3       1 UNK         0.0000 
     17 H17         5.4241   56.1370   21.2365 H         1 UNK         0.0000 
     18 C18         4.8706   54.1325   20.5916 C.3       1 UNK         0.0000 
     19 H19         5.3805   53.1709   20.4871 H         1 UNK         0.0000 
     20 O20         3.7490   54.0458   21.4643 O.3       1 UNK         0.0000 
     21 C21         4.4778   54.5930   19.1844 C.3       1 UNK         0.0000 
     22 O22         5.6682   54.7269   18.4010 O.3       1 UNK         0.0000 
     23 C23         6.5939   55.6196   18.9823 C.3       1 UNK         0.0000 
     24 H24         6.1261   56.6041   19.0718 H         1 UNK         0.0000 
     25 O25         6.9773   55.1818   20.2684 O.3       1 UNK         0.0000 
     26 C26         7.8072   55.6280   18.1303 C.2       1 UNK         0.0000 
     27 C27         9.1282   55.2766   18.3615 C.2       1 UNK         0.0000 
     28 C28         9.8170   55.5022   17.1695 C.2       1 UNK         0.0000 
     29 C29         8.8813   55.9793   16.2650 C.2       1 UNK         0.0000 
     30 O30         7.6588   56.0565   16.8495 O.3       1 UNK         0.0000 
     31 O31         7.1044   55.6968   23.1162 O.3       1 UNK         0.0000 
     32 N32         5.3481   53.8829   24.8457 N.am      1 UNK         0.0000 
     33 C33         5.9767   54.4975   25.8648 C.2       1 UNK         0.0000 
     34 O34         6.4468   55.6311   25.8186 O.2       1 UNK         0.0000 
     35 C35         6.0993   53.6994   27.1569 C.3       1 UNK         0.0000 
     36 H36        -0.4240   48.3454   21.6378 H         1 UNK         0.0000 
     37 H37        -1.6382   49.2071   22.5815 H         1 UNK         0.0000 
     38 H38        -0.4947   48.1516   23.4007 H         1 UNK         0.0000 
     39 H39         1.4978   49.6460   21.0051 H         1 UNK         0.0000 
     40 H40         2.9948   51.5255   21.3189 H         1 UNK         0.0000 
     41 H41        -0.6335   50.7021   24.5716 H         1 UNK         0.0000 
     42 H42         1.6547   52.8360   25.9399 H         1 UNK         0.0000 
     43 H43         0.7587   53.9229   24.8815 H         1 UNK         0.0000 
     44 H44        -0.1086   52.6787   25.7889 H         1 UNK         0.0000 
     45 H45         3.8274   53.8531   18.7167 H         1 UNK         0.0000 
     46 H46         3.9200   55.5294   19.1827 H         1 UNK         0.0000 
     47 H47         9.5413   54.9031   19.2863 H         1 UNK         0.0000 
     48 H48        10.8688   55.3356   16.9913 H         1 UNK         0.0000 
     49 H49         8.9338   56.2868   15.2309 H         1 UNK         0.0000 
     50 H50         7.9959   55.3494   23.2817 H         1 UNK         0.0000 
     51 H51         4.9792   52.9639   25.0438 H         1 UNK         0.0000 
     52 H52         5.4328   52.8369   27.1623 H         1 UNK         0.0000 
     53 H53         7.1223   53.3455   27.2842 H         1 UNK         0.0000 
     54 H54         5.8488   54.3285   28.0121 H         1 UNK         0.0000 
@<TRIPOS>BOND
     1    1    2 1    
     2    1   36 1    
     3    1   37 1    
     4    1   38 1    
     5    2    7 ar   
     6    2    3 ar   
     7    3    4 ar   
     8    3   39 1    
     9    4    5 ar   
    10    4   40 1    
    11    5    6 ar   
    12    5    9 1    
    13    6    7 ar   
    14    6    8 1    
    15    7   41 1    
    16    8   42 1    
    17    8   43 1    
    18    8   44 1    
    19    9   10 1    
    20   10   11 1    
    21   10   20 1    
    22   10   12 1    
    23   12   13 1    
    24   12   14 1    
    25   12   32 1    
    26   14   15 1    
    27   14   16 1    
    28   14   31 1    
    29   16   17 1    
    30   16   25 1    
    31   16   18 1    
    32   18   19 1    
    33   18   20 1    
    34   18   21 1    
    35   21   22 1    
    36   21   45 1    
    37   21   46 1    
    38   22   23 1    
    39   23   24 1    
    40   23   25 1    
    41   23   26 1    
    42   26   30 1    
    43   26   27 2    
    44   27   28 1    
    45   27   47 1    
    46   28   29 2    
    47   28   48 1    
    48   29   30 1    
    49   29   49 1    
    50   31   50 1    
    51   32   33 am   BACKBONE|DICT|INTERRES
    52   32   51 1    
    53   33   34 2    
    54   33   35 1    
    55   35   52 1    
    56   35   53 1    
    57   35   54 1    
@<TRIPOS>SUBSTRUCTURE
     1 UNK         1 GROUP             0       ****    0 ROOT    
