@<TRIPOS>MOLECULE
ZINC00528143_4695
39   42    1
SMALL
USER_CHARGES


@<TRIPOS>ATOM
      1 C1          5.9051   54.4964   22.3907 C.ar      1 UNK         0.0000 
      2 C2          6.0019   54.3528   23.7716 C.ar      1 UNK         0.0000 
      3 C3          4.8558   54.0970   24.5208 C.ar      1 UNK         0.0000 
      4 C4          3.6039   53.9877   23.8951 C.ar      1 UNK         0.0000 
      5 C5          3.5267   54.1344   22.5037 C.ar      1 UNK         0.0000 
      6 C6          4.6736   54.3805   21.7522 C.ar      1 UNK         0.0000 
      7 C7          2.3159   53.7122   24.6919 C.3       1 UNK         0.0000 
      8 H8          1.6955   54.5842   24.4759 H         1 UNK         0.0000 
      9 C9          1.5958   52.4236   24.2109 C.3       1 UNK         0.0000 
     10 C10         0.2635   52.1287   24.9394 C.3       1 UNK         0.0000 
     11 H11        -0.4412   52.9089   24.6449 H         1 UNK         0.0000 
     12 N12         0.5074   52.3334   26.3712 N.pl3     1 UNK         0.0000 
     13 C13         1.5138   53.0790   26.9360 C.ar      1 UNK         0.0000 
     14 N14         1.4029   53.0890   28.2383 N.2       1 UNK         0.0000 
     15 C15         0.3209   52.3530   28.4337 C.ar      1 UNK         0.0000 
     16 N16        -0.2744   51.8798   27.3611 N.2       1 UNK         0.0000 
     17 N17        -0.1539   52.0982   29.6827 N.pl3     1 UNK         0.0000 
     18 N18         2.4750   53.6967   26.1597 N.pl3     1 UNK         0.0000 
     19 C19        -0.3299   50.7714   24.5426 C.ar      1 UNK         0.0000 
     20 C20         0.0824   49.5890   25.1695 C.ar      1 UNK         0.0000 
     21 C21        -0.4669   48.3693   24.7870 C.ar      1 UNK         0.0000 
     22 C22        -1.4144   48.3208   23.7699 C.ar      1 UNK         0.0000 
     23 C23        -1.8227   49.4888   23.1316 C.ar      1 UNK         0.0000 
     24 C24        -1.2821   50.7136   23.5190 C.ar      1 UNK         0.0000 
     25 F25        -1.9369   47.1297   23.3971 F         1 UNK         0.0000 
     26 H26         6.7924   54.6979   21.8091 H         1 UNK         0.0000 
     27 H27         6.9636   54.4349   24.2565 H         1 UNK         0.0000 
     28 H28         4.9609   53.9708   25.5878 H         1 UNK         0.0000 
     29 H29         2.5762   54.0738   21.9939 H         1 UNK         0.0000 
     30 H30         4.6027   54.4902   20.6795 H         1 UNK         0.0000 
     31 H31         1.3976   52.4670   23.1399 H         1 UNK         0.0000 
     32 H32         2.2732   51.5757   24.3183 H         1 UNK         0.0000 
     33 H33         0.2783   52.4893   30.5068 H         1 UNK         0.0000 
     34 H34        -0.9011   51.4307   29.8293 H         1 UNK         0.0000 
     35 H35         2.9904   54.4791   26.5345 H         1 UNK         0.0000 
     36 H36         0.8155   49.6082   25.9632 H         1 UNK         0.0000 
     37 H37        -0.1592   47.4615   25.2811 H         1 UNK         0.0000 
     38 H38        -2.5578   49.4434   22.3421 H         1 UNK         0.0000 
     39 H39        -1.6037   51.6157   23.0192 H         1 UNK         0.0000 
@<TRIPOS>BOND
     1    1    6 ar   
     2    1    2 ar   
     3    1   26 1    
     4    2    3 ar   
     5    2   27 1    
     6    3    4 ar   
     7    3   28 1    
     8    4    5 ar   
     9    4    7 1    
    10    5    6 ar   
    11    5   29 1    
    12    6   30 1    
    13    7    8 1    
    14    7   18 1    
    15    7    9 1    
    16    9   10 1    
    17    9   31 1    
    18    9   32 1    
    19   10   11 1    
    20   10   12 1    
    21   10   19 1    
    22   12   16 ar   
    23   12   13 ar   
    24   13   14 ar   
    25   13   18 1    
    26   14   15 ar   
    27   15   16 ar   
    28   15   17 1    
    29   17   33 1    
    30   17   34 1    
    31   18   35 1    
    32   19   24 ar   
    33   19   20 ar   
    34   20   21 ar   
    35   20   36 1    
    36   21   22 ar   
    37   21   37 1    
    38   22   23 ar   
    39   22   25 1    
    40   23   24 ar   
    41   23   38 1    
    42   24   39 1    
@<TRIPOS>SUBSTRUCTURE
     1 UNK         1 GROUP             0       ****    0 ROOT    
