@<TRIPOS>MOLECULE
ZINC35300897_2877
66   69    1
SMALL
USER_CHARGES


@<TRIPOS>ATOM
      1 C1          5.1207   56.6328   17.6360 C.3       1 UNK         0.0000 
      2 C2          4.2437   55.4182   17.2969 C.3       1 UNK         0.0000 
      3 C3          4.6011   54.1009   18.0287 C.3       1 UNK         0.0000 
      4 H4          3.8372   53.3969   17.6847 H         1 UNK         0.0000 
      5 C5          5.9412   53.5113   17.5275 C.3       1 UNK         0.0000 
      6 C6          4.4983   54.2336   19.5870 C.3       1 UNK         0.0000 
      7 H7          3.6680   54.8964   19.8284 H         1 UNK         0.0000 
      8 C8          4.1752   52.8307   20.1626 C.2       1 UNK         0.0000 
      9 O9          5.1040   52.0897   20.4848 O.2       1 UNK         0.0000 
     10 N10         2.8608   52.5580   20.3270 N.am      1 UNK         0.0000 
     11 C11         2.3530   51.4888   21.0477 C.2       1 UNK         0.0000 
     12 N12         3.0420   50.5668   21.6818 N.2       1 UNK         0.0000 
     13 N13         2.2415   49.6964   22.3997 N.2       1 UNK         0.0000 
     14 C14         0.9630   49.9573   22.2665 C.2       1 UNK         0.0000 
     15 S15         0.6283   51.3386   21.2522 S.3       1 UNK         0.0000 
     16 C16        -0.1056   49.1579   22.9301 C.ar      1 UNK         0.0000 
     17 C17         0.0427   48.8104   24.2717 C.ar      1 UNK         0.0000 
     18 C18        -0.8948   47.9903   24.8891 C.ar      1 UNK         0.0000 
     19 C19        -1.9957   47.4778   24.1868 C.ar      1 UNK         0.0000 
     20 C20        -2.1405   47.8577   22.8416 C.ar      1 UNK         0.0000 
     21 C21        -1.2130   48.6943   22.2198 C.ar      1 UNK         0.0000 
     22 N22        -2.9182   46.5910   24.8171 N.pl3     1 UNK         0.0000 
     23 C23        -2.8458   46.3904   26.2692 C.3       1 UNK         0.0000 
     24 C24        -4.2181   46.3434   24.1931 C.3       1 UNK         0.0000 
     25 N25         5.7117   54.8568   20.1679 N.am      1 UNK         0.0000 
     26 C26         6.0907   55.0407   21.4498 C.2       1 UNK         0.0000 
     27 O27         7.1015   55.6936   21.6987 O.2       1 UNK         0.0000 
     28 N28         5.2737   54.4966   22.3788 N.am      1 UNK         0.0000 
     29 C29         5.3530   54.4942   23.7858 C.ar      1 UNK         0.0000 
     30 C30         6.5416   54.7627   24.4838 C.ar      1 UNK         0.0000 
     31 C31         6.5815   54.7069   25.8726 C.ar      1 UNK         0.0000 
     32 C32         5.4481   54.3875   26.6061 C.ar      1 UNK         0.0000 
     33 C33         4.2359   54.0780   25.9517 C.ar      1 UNK         0.0000 
     34 C34         4.1754   54.1189   24.5213 C.ar      1 UNK         0.0000 
     35 C35         2.9351   53.7786   23.8979 C.ar      1 UNK         0.0000 
     36 C36         1.8348   53.3855   24.6570 C.ar      1 UNK         0.0000 
     37 C37         1.9124   53.3380   26.0437 C.ar      1 UNK         0.0000 
     38 C38         3.0893   53.6974   26.6955 C.ar      1 UNK         0.0000 
     39 H39         4.9230   57.4555   16.9494 H         1 UNK         0.0000 
     40 H40         4.9177   56.9982   18.6423 H         1 UNK         0.0000 
     41 H41         6.1826   56.4007   17.5683 H         1 UNK         0.0000 
     42 H42         4.2647   55.2514   16.2184 H         1 UNK         0.0000 
     43 H43         3.2094   55.6746   17.5261 H         1 UNK         0.0000 
     44 H44         6.7905   54.1514   17.7653 H         1 UNK         0.0000 
     45 H45         6.1406   52.5384   17.9801 H         1 UNK         0.0000 
     46 H46         5.9297   53.3645   16.4482 H         1 UNK         0.0000 
     47 H47         2.1919   53.2386   19.9967 H         1 UNK         0.0000 
     48 H48         0.8969   49.1547   24.8380 H         1 UNK         0.0000 
     49 H49        -0.7315   47.7603   25.9301 H         1 UNK         0.0000 
     50 H50        -2.9689   47.5046   22.2450 H         1 UNK         0.0000 
     51 H51        -1.3377   48.9478   21.1759 H         1 UNK         0.0000 
     52 H52        -3.0569   47.3243   26.7940 H         1 UNK         0.0000 
     53 H53        -3.5575   45.6422   26.6193 H         1 UNK         0.0000 
     54 H54        -1.8513   46.0680   26.5793 H         1 UNK         0.0000 
     55 H55        -4.1040   45.9166   23.1966 H         1 UNK         0.0000 
     56 H56        -4.8334   45.6641   24.7839 H         1 UNK         0.0000 
     57 H57        -4.7697   47.2792   24.0878 H         1 UNK         0.0000 
     58 H58         6.3441   55.2246   19.4754 H         1 UNK         0.0000 
     59 H59         4.5132   53.9509   22.0117 H         1 UNK         0.0000 
     60 H60         7.4633   54.9909   23.9661 H         1 UNK         0.0000 
     61 H61         7.5033   54.8974   26.3934 H         1 UNK         0.0000 
     62 H62         5.5005   54.3450   27.6853 H         1 UNK         0.0000 
     63 H63         2.8364   53.8103   22.8240 H         1 UNK         0.0000 
     64 H64         0.9117   53.1118   24.1665 H         1 UNK         0.0000 
     65 H65         1.0534   53.0268   26.6216 H         1 UNK         0.0000 
     66 H66         3.1427   53.6605   27.7731 H         1 UNK         0.0000 
@<TRIPOS>BOND
     1    1    2 1    
     2    1   39 1    
     3    1   40 1    
     4    1   41 1    
     5    2    3 1    
     6    2   42 1    
     7    2   43 1    
     8    3    4 1    
     9    3    5 1    
    10    3    6 1    
    11    5   44 1    
    12    5   45 1    
    13    5   46 1    
    14    6    7 1    
    15    6    8 1    
    16    6   25 1    
    17    8    9 2    
    18    8   10 am   BACKBONE|DICT|INTERRES
    19   10   11 am   BACKBONE|DICT|INTERRES
    20   10   47 1    
    21   11   15 1    
    22   11   12 2    
    23   12   13 1    
    24   13   14 2    
    25   14   15 1    
    26   14   16 1    
    27   16   21 ar   
    28   16   17 ar   
    29   17   18 ar   
    30   17   48 1    
    31   18   19 ar   
    32   18   49 1    
    33   19   20 ar   
    34   19   22 1    
    35   20   21 ar   
    36   20   50 1    
    37   21   51 1    
    38   22   23 1    
    39   22   24 1    
    40   23   52 1    
    41   23   53 1    
    42   23   54 1    
    43   24   55 1    
    44   24   56 1    
    45   24   57 1    
    46   25   26 am   BACKBONE|DICT|INTERRES
    47   25   58 1    
    48   26   27 2    
    49   26   28 am   BACKBONE|DICT|INTERRES
    50   28   29 1    
    51   28   59 1    
    52   29   34 ar   
    53   29   30 ar   
    54   30   31 ar   
    55   30   60 1    
    56   31   32 ar   
    57   31   61 1    
    58   32   33 ar   
    59   32   62 1    
    60   33   38 ar   
    61   33   34 ar   
    62   34   35 ar   
    63   35   36 ar   
    64   35   63 1    
    65   36   37 ar   
    66   36   64 1    
    67   37   38 ar   
    68   37   65 1    
    69   38   66 1    
@<TRIPOS>SUBSTRUCTURE
     1 UNK         1 GROUP             0       ****    0 ROOT    
