@<TRIPOS>MOLECULE
ZINC25922484_4383
62   66    1
SMALL
USER_CHARGES


@<TRIPOS>ATOM
      1 C1          5.3353   55.1673   17.0291 C.3       1 UNK         0.0000 
      2 C2          5.1325   55.2703   18.5592 C.3       1 UNK         0.0000 
      3 C3          3.9050   54.4162   18.9208 C.3       1 UNK         0.0000 
      4 C4          6.4368   54.9318   19.3793 C.3       1 UNK         0.0000 
      5 H5          6.6245   53.8616   19.2794 H         1 UNK         0.0000 
      6 C6          6.2513   55.1938   20.9084 C.2       1 UNK         0.0000 
      7 O7          6.8824   56.0967   21.4617 O.2       1 UNK         0.0000 
      8 N8          5.4313   54.3454   21.5773 N.am      1 UNK         0.0000 
      9 C9          5.2041   54.3100   22.9681 C.ar      1 UNK         0.0000 
     10 C10         6.2529   54.5021   23.8827 C.ar      1 UNK         0.0000 
     11 C11         6.0074   54.4670   25.2523 C.ar      1 UNK         0.0000 
     12 C12         4.7085   54.2398   25.7245 C.ar      1 UNK         0.0000 
     13 C13         3.6583   54.0693   24.8290 C.ar      1 UNK         0.0000 
     14 C14         3.9062   54.0704   23.4551 C.ar      1 UNK         0.0000 
     15 Br15        2.4403   53.6968   22.2985 Br        1 UNK         0.0000 
     16 O16         4.4159   54.1924   27.0709 O.3       1 UNK         0.0000 
     17 C17         5.5416   53.8348   27.8770 C.3       1 UNK         0.0000 
     18 C18         6.7605   54.6994   27.4828 C.3       1 UNK         0.0000 
     19 O19         7.0940   54.5577   26.0976 O.3       1 UNK         0.0000 
     20 N20         7.6395   55.5590   18.7941 N.am      1 UNK         0.0000 
     21 C21         7.8698   56.8736   18.5927 C.2       1 UNK         0.0000 
     22 O22         7.1043   57.7399   19.0219 O.2       1 UNK         0.0000 
     23 C23         9.1211   57.2963   17.7609 C.3       1 UNK         0.0000 
     24 C24        10.0307   58.2217   18.6296 C.3       1 UNK         0.0000 
     25 C25        11.2479   58.7079   17.7975 C.3       1 UNK         0.0000 
     26 C26        10.7411   59.4991   16.5631 C.3       1 UNK         0.0000 
     27 C27         9.8520   58.5858   15.6815 C.3       1 UNK         0.0000 
     28 C28         8.6330   58.0970   16.5093 C.3       1 UNK         0.0000 
     29 C29        10.6781   57.3612   15.2081 C.3       1 UNK         0.0000 
     30 C30        11.1830   56.5634   16.4401 C.3       1 UNK         0.0000 
     31 C31        12.0726   57.4816   17.3189 C.3       1 UNK         0.0000 
     32 C32         9.9691   56.0712   17.2697 C.3       1 UNK         0.0000 
     33 H33         5.6912   54.1756   16.7423 H         1 UNK         0.0000 
     34 H34         4.4077   55.3537   16.4882 H         1 UNK         0.0000 
     35 H35         6.0552   55.8955   16.6571 H         1 UNK         0.0000 
     36 H36         4.8594   56.3091   18.7537 H         1 UNK         0.0000 
     37 H37         4.1380   53.3525   18.9130 H         1 UNK         0.0000 
     38 H38         3.5113   54.6772   19.8948 H         1 UNK         0.0000 
     39 H39         3.0840   54.5739   18.2216 H         1 UNK         0.0000 
     40 H40         4.8666   53.7156   21.0237 H         1 UNK         0.0000 
     41 H41         7.2613   54.6561   23.5313 H         1 UNK         0.0000 
     42 H42         2.6611   53.8883   25.1996 H         1 UNK         0.0000 
     43 H43         5.7810   52.7796   27.7291 H         1 UNK         0.0000 
     44 H44         5.2930   53.9822   28.9281 H         1 UNK         0.0000 
     45 H45         7.6266   54.4307   28.0833 H         1 UNK         0.0000 
     46 H46         6.5282   55.7442   27.6811 H         1 UNK         0.0000 
     47 H47         8.3258   54.9055   18.4489 H         1 UNK         0.0000 
     48 H48         9.4748   59.0923   18.9830 H         1 UNK         0.0000 
     49 H49        10.3771   57.6974   19.5244 H         1 UNK         0.0000 
     50 H50        11.8803   59.3494   18.4108 H         1 UNK         0.0000 
     51 H51        11.5864   59.8774   15.9831 H         1 UNK         0.0000 
     52 H52        10.1785   60.3779   16.8820 H         1 UNK         0.0000 
     53 H53         9.5000   59.1460   14.8136 H         1 UNK         0.0000 
     54 H54         7.9874   57.4789   15.8818 H         1 UNK         0.0000 
     55 H55         8.0281   58.9596   16.8044 H         1 UNK         0.0000 
     56 H56        10.0730   56.7217   14.5632 H         1 UNK         0.0000 
     57 H57        11.5220   57.6899   14.5992 H         1 UNK         0.0000 
     58 H58        11.7662   55.7049   16.1031 H         1 UNK         0.0000 
     59 H59        12.9455   57.8114   16.7533 H         1 UNK         0.0000 
     60 H60        12.4619   56.9261   18.1729 H         1 UNK         0.0000 
     61 H61        10.3256   55.4814   18.1162 H         1 UNK         0.0000 
     62 H62         9.3646   55.3983   16.6595 H         1 UNK         0.0000 
@<TRIPOS>BOND
     1    1    2 1    
     2    1   33 1    
     3    1   34 1    
     4    1   35 1    
     5    2    3 1    
     6    2    4 1    
     7    2   36 1    
     8    3   37 1    
     9    3   38 1    
    10    3   39 1    
    11    4    5 1    
    12    4    6 1    
    13    4   20 1    
    14    6    7 2    
    15    6    8 am   BACKBONE|DICT|INTERRES
    16    8    9 1    
    17    8   40 1    
    18    9   14 ar   
    19    9   10 ar   
    20   10   11 ar   
    21   10   41 1    
    22   11   19 1    
    23   11   12 ar   
    24   12   13 ar   
    25   12   16 1    
    26   13   14 ar   
    27   13   42 1    
    28   14   15 1    
    29   16   17 1    
    30   17   18 1    
    31   17   43 1    
    32   17   44 1    
    33   18   19 1    
    34   18   45 1    
    35   18   46 1    
    36   20   21 am   BACKBONE|DICT|INTERRES
    37   20   47 1    
    38   21   22 2    
    39   21   23 1    
    40   23   28 1    
    41   23   32 1    
    42   23   24 1    
    43   24   25 1    
    44   24   48 1    
    45   24   49 1    
    46   25   31 1    
    47   25   26 1    
    48   25   50 1    
    49   26   27 1    
    50   26   51 1    
    51   26   52 1    
    52   27   28 1    
    53   27   29 1    
    54   27   53 1    
    55   28   54 1    
    56   28   55 1    
    57   29   30 1    
    58   29   56 1    
    59   29   57 1    
    60   30   31 1    
    61   30   32 1    
    62   30   58 1    
    63   31   59 1    
    64   31   60 1    
    65   32   61 1    
    66   32   62 1    
@<TRIPOS>SUBSTRUCTURE
     1 UNK         1 GROUP             0       ****    0 ROOT    
