@<TRIPOS>MOLECULE
ZINC08817835_2082
79   83    1
SMALL
USER_CHARGES


@<TRIPOS>ATOM
      1 C1          0.6309   52.9869   31.5988 C.3       1 UNK         0.0000 
      2 C2          0.7382   53.6609   30.2395 C.2       1 UNK         0.0000 
      3 O3         -0.2612   54.0963   29.6852 O.2       1 UNK         0.0000 
      4 C4          2.1406   53.7906   29.6209 C.3       1 UNK         0.0000 
      5 H5          2.8017   53.8709   30.4811 H         1 UNK         0.0000 
      6 C6          2.3183   55.0738   28.7697 C.3       1 UNK         0.0000 
      7 C7          3.1848   54.6365   27.5879 C.3       1 UNK         0.0000 
      8 C8          2.7365   53.1950   27.2893 C.3       1 UNK         0.0000 
      9 H9          3.5390   52.6861   26.7561 H         1 UNK         0.0000 
     10 C10         2.5934   52.5817   28.7211 C.3       1 UNK         0.0000 
     11 C11         1.7116   51.2902   28.6868 C.3       1 UNK         0.0000 
     12 C12         0.4430   51.3470   27.8214 C.3       1 UNK         0.0000 
     13 C13         0.7598   51.7347   26.3663 C.3       1 UNK         0.0000 
     14 H14         1.5006   51.0642   25.9757 H         1 UNK         0.0000 
     15 C15         1.4527   53.1182   26.3808 C.3       1 UNK         0.0000 
     16 H16         0.7049   53.7633   26.8186 H         1 UNK         0.0000 
     17 C17         1.8164   53.4907   24.9241 C.3       1 UNK         0.0000 
     18 C18         0.6120   53.5131   23.9822 C.3       1 UNK         0.0000 
     19 C19        -0.1367   52.1829   24.0064 C.2       1 UNK         0.0000 
     20 C20        -0.5284   51.5986   22.8526 C.2       1 UNK         0.0000 
     21 C21        -1.3396   50.4126   22.7172 C.2       1 UNK         0.0000 
     22 N22        -1.8008   49.9273   21.6290 N.2       1 UNK         0.0000 
     23 O23        -1.3569   50.6300   20.4908 O.3       1 UNK         0.0000 
     24 C24        -2.4730   51.2191   19.8320 C.3       1 UNK         0.0000 
     25 C25        -2.0249   51.8640   18.5160 C.2       1 UNK         0.0000 
     26 O26        -2.7301   52.7366   18.0113 O.2       1 UNK         0.0000 
     27 N27        -0.8730   51.4347   17.9721 N.am      1 UNK         0.0000 
     28 C28        -0.3241   51.7891   16.6525 C.3       1 UNK         0.0000 
     29 H29        -1.0959   51.5239   15.9262 H         1 UNK         0.0000 
     30 C30        -0.0464   53.2978   16.4476 C.3       1 UNK         0.0000 
     31 C31         0.8325   53.9592   17.5223 C.3       1 UNK         0.0000 
     32 C32         2.2306   53.3445   17.7079 C.3       1 UNK         0.0000 
     33 C33         2.2442   51.8715   18.1634 C.3       1 UNK         0.0000 
     34 N34         1.9044   50.8954   17.1259 N.am      1 UNK         0.0000 
     35 C35         0.8625   50.8689   16.2701 C.2       1 UNK         0.0000 
     36 O36         0.8316   50.1467   15.2760 O.2       1 UNK         0.0000 
     37 C37        -1.7428   49.7236   24.0233 C.3       1 UNK         0.0000 
     38 C38        -0.7914   50.0706   25.1932 C.3       1 UNK         0.0000 
     39 C39        -0.4820   51.5922   25.3986 C.3       1 UNK         0.0000 
     40 C40        -1.7556   52.2937   25.9378 C.3       1 UNK         0.0000 
     41 C41         4.0046   52.1815   29.2481 C.3       1 UNK         0.0000 
     42 H42         1.4140   52.2428   31.7367 H         1 UNK         0.0000 
     43 H43        -0.3359   52.4956   31.6808 H         1 UNK         0.0000 
     44 H44         0.7031   53.7245   32.3970 H         1 UNK         0.0000 
     45 H45         1.3768   55.4746   28.3887 H         1 UNK         0.0000 
     46 H46         2.7937   55.8752   29.3373 H         1 UNK         0.0000 
     47 H47         3.1039   55.3015   26.7349 H         1 UNK         0.0000 
     48 H48         4.2377   54.6518   27.8735 H         1 UNK         0.0000 
     49 H49         2.3042   50.4908   28.2450 H         1 UNK         0.0000 
     50 H50         1.4878   50.9340   29.6824 H         1 UNK         0.0000 
     51 H51        -0.3151   52.0005   28.2451 H         1 UNK         0.0000 
     52 H52        -0.0316   50.3683   27.8337 H         1 UNK         0.0000 
     53 H53         2.3036   54.4641   24.8824 H         1 UNK         0.0000 
     54 H54         2.5720   52.7996   24.5461 H         1 UNK         0.0000 
     55 H55         0.9652   53.7407   22.9745 H         1 UNK         0.0000 
     56 H56        -0.0649   54.3237   24.2294 H         1 UNK         0.0000 
     57 H57        -0.2278   52.1086   21.9500 H         1 UNK         0.0000 
     58 H58        -3.2530   50.4886   19.6111 H         1 UNK         0.0000 
     59 H59        -2.8956   51.9998   20.4643 H         1 UNK         0.0000 
     60 H60        -0.4236   50.6449   18.4153 H         1 UNK         0.0000 
     61 H61         0.4225   53.4469   15.4733 H         1 UNK         0.0000 
     62 H62        -0.9931   53.8340   16.3857 H         1 UNK         0.0000 
     63 H63         0.3046   53.9415   18.4759 H         1 UNK         0.0000 
     64 H64         0.9460   55.0158   17.2765 H         1 UNK         0.0000 
     65 H65         2.7433   53.9350   18.4680 H         1 UNK         0.0000 
     66 H66         2.8229   53.4586   16.7991 H         1 UNK         0.0000 
     67 H67         1.6139   51.7156   19.0401 H         1 UNK         0.0000 
     68 H68         3.2507   51.6268   18.5069 H         1 UNK         0.0000 
     69 H69         2.6497   50.2462   16.8794 H         1 UNK         0.0000 
     70 H70        -2.7681   50.0019   24.2686 H         1 UNK         0.0000 
     71 H71        -1.7402   48.6415   23.8825 H         1 UNK         0.0000 
     72 H72         0.1411   49.5291   25.0224 H         1 UNK         0.0000 
     73 H73        -1.2025   49.6360   26.1054 H         1 UNK         0.0000 
     74 H74        -2.1843   51.7513   26.7812 H         1 UNK         0.0000 
     75 H75        -1.5537   53.2965   26.2952 H         1 UNK         0.0000 
     76 H76        -2.5357   52.3671   25.1794 H         1 UNK         0.0000 
     77 H77         4.6007   51.6969   28.4846 H         1 UNK         0.0000 
     78 H78         4.6016   53.0422   29.5534 H         1 UNK         0.0000 
     79 H79         3.9455   51.5186   30.1111 H         1 UNK         0.0000 
@<TRIPOS>BOND
     1    1    2 1    
     2    1   42 1    
     3    1   43 1    
     4    1   44 1    
     5    2    3 2    
     6    2    4 1    
     7    4    5 1    
     8    4   10 1    
     9    4    6 1    
    10    6    7 1    
    11    6   45 1    
    12    6   46 1    
    13    7    8 1    
    14    7   47 1    
    15    7   48 1    
    16    8    9 1    
    17    8   15 1    
    18    8   10 1    
    19   10   11 1    
    20   10   41 1    
    21   11   12 1    
    22   11   49 1    
    23   11   50 1    
    24   12   13 1    
    25   12   51 1    
    26   12   52 1    
    27   13   14 1    
    28   13   39 1    
    29   13   15 1    
    30   15   16 1    
    31   15   17 1    
    32   17   18 1    
    33   17   53 1    
    34   17   54 1    
    35   18   19 1    
    36   18   55 1    
    37   18   56 1    
    38   19   39 1    
    39   19   20 2    
    40   20   21 1    
    41   20   57 1    
    42   21   22 2    
    43   21   37 1    
    44   22   23 1    
    45   23   24 1    
    46   24   25 1    
    47   24   58 1    
    48   24   59 1    
    49   25   26 2    
    50   25   27 am   BACKBONE|DICT|INTERRES
    51   27   28 1    
    52   27   60 1    
    53   28   29 1    
    54   28   35 1    
    55   28   30 1    
    56   30   31 1    
    57   30   61 1    
    58   30   62 1    
    59   31   32 1    
    60   31   63 1    
    61   31   64 1    
    62   32   33 1    
    63   32   65 1    
    64   32   66 1    
    65   33   34 1    
    66   33   67 1    
    67   33   68 1    
    68   34   35 am   BACKBONE|DICT|INTERRES
    69   34   69 1    
    70   35   36 2    
    71   37   38 1    
    72   37   70 1    
    73   37   71 1    
    74   38   39 1    
    75   38   72 1    
    76   38   73 1    
    77   39   40 1    
    78   40   74 1    
    79   40   75 1    
    80   40   76 1    
    81   41   77 1    
    82   41   78 1    
    83   41   79 1    
@<TRIPOS>SUBSTRUCTURE
     1 UNK         1 GROUP             0       ****    0 ROOT    
