@<TRIPOS>MOLECULE
ZINC44004504_3282
63   66    1
SMALL
USER_CHARGES


@<TRIPOS>ATOM
      1 C1          4.6241   55.8432   16.9485 C.2       1 UNK         0.0000 
      2 C2          4.5801   55.0594   18.1079 C.2       1 UNK         0.0000 
      3 C3          5.4262   55.5161   19.1140 C.2       1 UNK         0.0000 
      4 S4          6.2903   56.9532   18.5986 S.3       1 UNK         0.0000 
      5 C5          5.4995   56.9126   17.0578 C.2       1 UNK         0.0000 
      6 N6          5.5291   54.9352   20.3758 N.am      1 UNK         0.0000 
      7 C7          6.3336   55.2941   21.4058 C.2       1 UNK         0.0000 
      8 O8          7.2443   56.1159   21.2822 O.2       1 UNK         0.0000 
      9 N9          6.0456   54.7049   22.6074 N.am      1 UNK         0.0000 
     10 C10         5.0397   53.6213   22.7765 C.3       1 UNK         0.0000 
     11 C11         4.1390   54.0152   23.9631 C.3       1 UNK         0.0000 
     12 C12         4.9520   54.2007   25.2649 C.3       1 UNK         0.0000 
     13 C13         5.9828   55.3146   25.0057 C.3       1 UNK         0.0000 
     14 C14         6.8879   55.0063   23.7915 C.3       1 UNK         0.0000 
     15 C15         4.0870   54.4689   26.5190 C.3       1 UNK         0.0000 
     16 N16         3.0080   53.4958   26.6829 N.am      1 UNK         0.0000 
     17 C17         1.9279   53.6567   27.4657 C.2       1 UNK         0.0000 
     18 O18         1.8410   54.5506   28.3063 O.2       1 UNK         0.0000 
     19 C19         0.7791   52.7039   27.2126 C.ar      1 UNK         0.0000 
     20 C20        -0.1569   52.4552   28.2265 C.ar      1 UNK         0.0000 
     21 C21        -1.2952   51.6981   27.9633 C.ar      1 UNK         0.0000 
     22 C22        -1.5081   51.1824   26.6836 C.ar      1 UNK         0.0000 
     23 C23        -0.5500   51.3646   25.6878 C.ar      1 UNK         0.0000 
     24 C24         0.5820   52.1285   25.9452 C.ar      1 UNK         0.0000 
     25 S25        -3.0224   50.2992   26.2930 S.o2      1 UNK         0.0000 
     26 O26        -3.7470   50.0931   27.5524 O.2       1 UNK         0.0000 
     27 O27        -2.6396   49.1793   25.4231 O.2       1 UNK         0.0000 
     28 N28        -3.9670   51.4405   25.3171 N.pl3     1 UNK         0.0000 
     29 C29        -3.6128   51.6588   23.8904 C.3       1 UNK         0.0000 
     30 C30        -3.0411   53.0699   23.6488 C.3       1 UNK         0.0000 
     31 C31        -3.9667   54.1560   24.2319 C.3       1 UNK         0.0000 
     32 C32        -4.2319   53.9049   25.7335 C.3       1 UNK         0.0000 
     33 C33        -4.7857   52.4875   25.9807 C.3       1 UNK         0.0000 
     34 H34         4.0323   55.6405   16.0676 H         1 UNK         0.0000 
     35 H35         3.9474   54.1886   18.2080 H         1 UNK         0.0000 
     36 H36         5.7162   57.6703   16.3187 H         1 UNK         0.0000 
     37 H37         4.8611   54.2048   20.5557 H         1 UNK         0.0000 
     38 H38         5.5760   52.7008   23.0005 H         1 UNK         0.0000 
     39 H39         4.4024   53.4515   21.9082 H         1 UNK         0.0000 
     40 H40         3.3966   53.2323   24.1007 H         1 UNK         0.0000 
     41 H41         3.5422   54.8984   23.7399 H         1 UNK         0.0000 
     42 H42         5.5309   53.2969   25.4406 H         1 UNK         0.0000 
     43 H43         5.5039   56.2812   24.8824 H         1 UNK         0.0000 
     44 H44         6.6012   55.4500   25.8952 H         1 UNK         0.0000 
     45 H45         7.5084   54.1327   23.9996 H         1 UNK         0.0000 
     46 H46         7.5081   55.8900   23.6370 H         1 UNK         0.0000 
     47 H47         3.6132   55.4388   26.3783 H         1 UNK         0.0000 
     48 H48         4.6996   54.5705   27.4173 H         1 UNK         0.0000 
     49 H49         3.1091   52.6321   26.1737 H         1 UNK         0.0000 
     50 H50        -0.0232   52.8736   29.2148 H         1 UNK         0.0000 
     51 H51        -2.0201   51.5315   28.7483 H         1 UNK         0.0000 
     52 H52        -0.7005   50.9478   24.7028 H         1 UNK         0.0000 
     53 H53         1.2757   52.3006   25.1331 H         1 UNK         0.0000 
     54 H54        -4.5036   51.4677   23.2907 H         1 UNK         0.0000 
     55 H55        -2.8792   50.9083   23.5928 H         1 UNK         0.0000 
     56 H56        -2.8839   53.2274   22.5830 H         1 UNK         0.0000 
     57 H57        -2.0531   53.1559   24.1038 H         1 UNK         0.0000 
     58 H58        -3.5397   55.1468   24.0809 H         1 UNK         0.0000 
     59 H59        -4.9105   54.1643   23.6826 H         1 UNK         0.0000 
     60 H60        -3.3036   54.0258   26.2975 H         1 UNK         0.0000 
     61 H61        -4.9224   54.6495   26.1284 H         1 UNK         0.0000 
     62 H62        -5.8160   52.3814   25.6333 H         1 UNK         0.0000 
     63 H63        -4.8073   52.2913   27.0523 H         1 UNK         0.0000 
@<TRIPOS>BOND
     1    1    5 2    
     2    1    2 1    
     3    1   34 1    
     4    2    3 2    
     5    2   35 1    
     6    3    4 1    
     7    3    6 am   BACKBONE|DICT|INTERRES
     8    4    5 1    
     9    5   36 1    
    10    6    7 am   BACKBONE|DICT|INTERRES
    11    6   37 1    
    12    7    8 2    
    13    7    9 am   BACKBONE|DICT|INTERRES
    14    9   14 1    
    15    9   10 1    
    16   10   11 1    
    17   10   38 1    
    18   10   39 1    
    19   11   12 1    
    20   11   40 1    
    21   11   41 1    
    22   12   13 1    
    23   12   15 1    
    24   12   42 1    
    25   13   14 1    
    26   13   43 1    
    27   13   44 1    
    28   14   45 1    
    29   14   46 1    
    30   15   16 1    
    31   15   47 1    
    32   15   48 1    
    33   16   17 am   BACKBONE|DICT|INTERRES
    34   16   49 1    
    35   17   18 2    
    36   17   19 1    
    37   19   24 ar   
    38   19   20 ar   
    39   20   21 ar   
    40   20   50 1    
    41   21   22 ar   
    42   21   51 1    
    43   22   23 ar   
    44   22   25 1    
    45   23   24 ar   
    46   23   52 1    
    47   24   53 1    
    48   25   26 2    
    49   25   27 2    
    50   25   28 1    
    51   28   33 1    
    52   28   29 1    
    53   29   30 1    
    54   29   54 1    
    55   29   55 1    
    56   30   31 1    
    57   30   56 1    
    58   30   57 1    
    59   31   32 1    
    60   31   58 1    
    61   31   59 1    
    62   32   33 1    
    63   32   60 1    
    64   32   61 1    
    65   33   62 1    
    66   33   63 1    
@<TRIPOS>SUBSTRUCTURE
     1 UNK         1 GROUP             0       ****    0 ROOT    
