@<TRIPOS>MOLECULE
ZINC09346182_1139
59   64    1
SMALL
USER_CHARGES


@<TRIPOS>ATOM
      1 C1         -6.4900   53.5505   24.8540 C.3       1 UNK         0.0000 
      2 C2         -5.1829   52.7982   25.0267 C.ar      1 UNK         0.0000 
      3 C3         -4.3814   53.0366   26.1413 C.ar      1 UNK         0.0000 
      4 C4         -3.1968   52.3252   26.3147 C.ar      1 UNK         0.0000 
      5 C5         -2.7912   51.3954   25.3564 C.ar      1 UNK         0.0000 
      6 C6         -3.5938   51.1665   24.2319 C.ar      1 UNK         0.0000 
      7 C7         -4.7963   51.8488   24.0817 C.ar      1 UNK         0.0000 
      8 C8         -1.4851   50.6211   25.5507 C.3       1 UNK         0.0000 
      9 H9         -1.2025   50.6610   26.6001 H         1 UNK         0.0000 
     10 C10        -0.3381   51.1330   24.6532 C.2       1 UNK         0.0000 
     11 C11         0.2511   50.3408   23.7197 C.2       1 UNK         0.0000 
     12 C12         1.2697   50.8863   22.8032 C.ar      1 UNK         0.0000 
     13 C13         2.0330   50.1001   21.9262 C.ar      1 UNK         0.0000 
     14 C14         2.9421   50.7013   21.0528 C.ar      1 UNK         0.0000 
     15 C15         3.1180   52.0846   21.0605 C.ar      1 UNK         0.0000 
     16 C16         2.3756   52.8748   21.9367 C.ar      1 UNK         0.0000 
     17 C17         1.4593   52.2751   22.7990 C.ar      1 UNK         0.0000 
     18 O18         0.6843   53.1189   23.5733 O.3       1 UNK         0.0000 
     19 C19         0.1568   52.5876   24.8102 C.3       1 UNK         0.0000 
     20 H20        -0.7122   53.2142   25.0097 H         1 UNK         0.0000 
     21 C21         1.1044   52.8191   26.0035 C.ar      1 UNK         0.0000 
     22 C22         0.6619   52.5743   27.3109 C.ar      1 UNK         0.0000 
     23 C23         1.5188   52.7328   28.3947 C.ar      1 UNK         0.0000 
     24 C24         2.8208   53.1726   28.1832 C.ar      1 UNK         0.0000 
     25 C25         3.2626   53.4705   26.8943 C.ar      1 UNK         0.0000 
     26 C26         2.4069   53.2967   25.8105 C.ar      1 UNK         0.0000 
     27 S27         3.9044   53.3415   29.5673 S.3       1 UNK         0.0000 
     28 C28         4.7866   54.8967   29.2890 C.3       1 UNK         0.0000 
     29 N29        -0.1324   49.0116   23.6101 N.pl3     1 UNK         0.0000 
     30 C30        -1.0474   48.4468   24.4042 C.ar      1 UNK         0.0000 
     31 N31        -1.6738   49.1965   25.2823 N.pl3     1 UNK         0.0000 
     32 N32        -2.3790   48.3766   26.0817 N.pl3     1 UNK         0.0000 
     33 C33        -2.2080   47.1269   25.4502 C.ar      1 UNK         0.0000 
     34 N34        -1.4272   47.1783   24.4370 N.2       1 UNK         0.0000 
     35 S35        -3.0850   45.6967   26.0817 S.3       1 UNK         0.0000 
     36 C36        -3.2214   46.0967   27.8507 C.3       1 UNK         0.0000 
     37 H37        -7.2541   52.8967   24.4311 H         1 UNK         0.0000 
     38 H38        -6.3600   54.3966   24.1781 H         1 UNK         0.0000 
     39 H39        -6.8776   53.9089   25.8083 H         1 UNK         0.0000 
     40 H40        -4.6825   53.7624   26.8817 H         1 UNK         0.0000 
     41 H41        -2.5966   52.4967   27.1944 H         1 UNK         0.0000 
     42 H42        -3.2988   50.4461   23.4826 H         1 UNK         0.0000 
     43 H43        -5.4256   51.6464   23.2283 H         1 UNK         0.0000 
     44 H44         1.9251   49.0261   21.8980 H         1 UNK         0.0000 
     45 H45         3.5044   50.0967   20.3557 H         1 UNK         0.0000 
     46 H46         3.8147   52.5431   20.3730 H         1 UNK         0.0000 
     47 H47         2.4869   53.9493   21.9248 H         1 UNK         0.0000 
     48 H48        -0.3482   52.2647   27.5117 H         1 UNK         0.0000 
     49 H49         1.1687   52.5194   29.3944 H         1 UNK         0.0000 
     50 H50         4.2737   53.8022   26.7165 H         1 UNK         0.0000 
     51 H51         2.7803   53.5168   24.8222 H         1 UNK         0.0000 
     52 H52         5.5044   55.0916   30.0817 H         1 UNK         0.0000 
     53 H53         5.3332   54.8955   28.3471 H         1 UNK         0.0000 
     54 H54         4.0507   55.6967   29.2817 H         1 UNK         0.0000 
     55 H55        -3.8170   45.3334   28.3487 H         1 UNK         0.0000 
     56 H56        -2.2360   46.0967   28.3183 H         1 UNK         0.0000 
     57 H57        -3.6956   47.0627   28.0244 H         1 UNK         0.0000 
     58 H58         0.3312   48.4285   22.9317 H         1 UNK         0.0000 
     59 H59        -2.0956   48.4753   27.0814 H         1 UNK         0.0000 
@<TRIPOS>BOND
     1    1    2 1    
     2    1   37 1    
     3    1   38 1    
     4    1   39 1    
     5    2    7 ar   
     6    2    3 ar   
     7    3    4 ar   
     8    3   40 1    
     9    4    5 ar   
    10    4   41 1    
    11    5    6 ar   
    12    5    8 1    
    13    6    7 ar   
    14    6   42 1    
    15    7   43 1    
    16    8    9 1    
    17    8   31 1    
    18    8   10 1    
    19   10   19 1    
    20   10   11 2    
    21   11   12 1    
    22   11   29 1    
    23   12   17 ar   
    24   12   13 ar   
    25   13   14 ar   
    26   13   44 1    
    27   14   15 ar   
    28   14   45 1    
    29   15   16 ar   
    30   15   46 1    
    31   16   17 ar   
    32   16   47 1    
    33   17   18 1    
    34   18   19 1    
    35   19   20 1    
    36   19   21 1    
    37   21   26 ar   
    38   21   22 ar   
    39   22   23 ar   
    40   22   48 1    
    41   23   24 ar   
    42   23   49 1    
    43   24   25 ar   
    44   24   27 1    
    45   25   26 ar   
    46   25   50 1    
    47   26   51 1    
    48   27   28 1    
    49   28   52 1    
    50   28   53 1    
    51   28   54 1    
    52   29   30 2    
    53   29   58 1    
    54   30   34 ar   
    55   30   31 ar   
    56   31   32 1    
    57   32   33 ar   
    58   32   59 1    
    59   33   34 ar   
    60   33   35 1    
    61   35   36 1    
    62   36   55 1    
    63   36   56 1    
    64   36   57 1    
@<TRIPOS>SUBSTRUCTURE
     1 UNK         1 GROUP             0       ****    0 ROOT    
