@<TRIPOS>MOLECULE
ZINC24093865_2816
58   61    1
SMALL
USER_CHARGES


@<TRIPOS>ATOM
      1 C1          1.5932   50.8098   21.0301 C.3       1 UNK         0.0000 
      2 C2          0.9340   50.7304   22.3956 C.ar      1 UNK         0.0000 
      3 C3          1.2882   49.7098   23.2751 C.ar      1 UNK         0.0000 
      4 C4          0.7031   49.6394   24.5380 C.ar      1 UNK         0.0000 
      5 C5         -0.2357   50.5921   24.9339 C.ar      1 UNK         0.0000 
      6 C6         -0.6109   51.5970   24.0324 C.ar      1 UNK         0.0000 
      7 C7         -0.0192   51.6744   22.7743 C.ar      1 UNK         0.0000 
      8 N8         -0.7923   50.4761   26.2193 N.pl3     1 UNK         0.0000 
      9 S9         -1.1350   51.8503   27.2921 S.o2      1 UNK         0.0000 
     10 O10        -1.8789   51.2967   28.4238 O.2       1 UNK         0.0000 
     11 O11        -1.7576   52.8966   26.4812 O.2       1 UNK         0.0000 
     12 C12         0.4689   52.4871   27.8665 C.ar      1 UNK         0.0000 
     13 C13         1.3515   52.9483   26.8771 C.ar      1 UNK         0.0000 
     14 C14         2.6025   53.5034   27.2002 C.ar      1 UNK         0.0000 
     15 C15         2.9820   53.5348   28.5461 C.ar      1 UNK         0.0000 
     16 C16         2.1200   53.0842   29.5386 C.ar      1 UNK         0.0000 
     17 C17         0.8506   52.5964   29.2227 C.ar      1 UNK         0.0000 
     18 C18        -0.0719   52.2913   30.3931 C.3       1 UNK         0.0000 
     19 C19         3.5304   54.0969   26.1587 C.2       1 UNK         0.0000 
     20 O20         4.4042   54.8923   26.5074 O.2       1 UNK         0.0000 
     21 N21         3.3428   53.6968   24.8812 N.am      1 UNK         0.0000 
     22 C22         4.1210   53.9889   23.7421 C.ar      1 UNK         0.0000 
     23 C23         5.4332   54.4967   23.7852 C.ar      1 UNK         0.0000 
     24 C24         6.1310   54.7577   22.6061 C.ar      1 UNK         0.0000 
     25 C25         5.5069   54.5488   21.3699 C.ar      1 UNK         0.0000 
     26 C26         4.2591   53.9307   21.3222 C.ar      1 UNK         0.0000 
     27 C27         3.5610   53.6661   22.5011 C.ar      1 UNK         0.0000 
     28 C28         3.9568   53.5062   19.9129 C.3       1 UNK         0.0000 
     29 C29         5.0014   54.2542   19.0986 C.3       1 UNK         0.0000 
     30 N30         6.0091   54.7091   20.0636 N.am      1 UNK         0.0000 
     31 C31         7.0365   55.5140   19.6820 C.2       1 UNK         0.0000 
     32 O32         7.7704   56.0964   20.4810 O.2       1 UNK         0.0000 
     33 C33         7.3096   55.7232   18.1895 C.3       1 UNK         0.0000 
     34 H34         1.2299   50.0112   20.3820 H         1 UNK         0.0000 
     35 H35         1.4160   51.7714   20.5454 H         1 UNK         0.0000 
     36 H36         2.6738   50.6898   21.1250 H         1 UNK         0.0000 
     37 H37         2.0167   48.9705   22.9773 H         1 UNK         0.0000 
     38 H38         0.9936   48.8435   25.2101 H         1 UNK         0.0000 
     39 H39        -1.3701   52.3209   24.2751 H         1 UNK         0.0000 
     40 H40        -0.3105   52.4608   22.0937 H         1 UNK         0.0000 
     41 H41        -0.7044   49.5907   26.7046 H         1 UNK         0.0000 
     42 H42         1.0241   52.9129   25.8492 H         1 UNK         0.0000 
     43 H43         3.9424   53.9377   28.8385 H         1 UNK         0.0000 
     44 H44         2.4321   53.1550   30.5691 H         1 UNK         0.0000 
     45 H45         0.4239   52.3761   31.3622 H         1 UNK         0.0000 
     46 H46        -0.8960   52.9982   30.3826 H         1 UNK         0.0000 
     47 H47        -0.4951   51.2941   30.3494 H         1 UNK         0.0000 
     48 H48         2.5577   53.0895   24.7109 H         1 UNK         0.0000 
     49 H49         5.9407   54.6873   24.7170 H         1 UNK         0.0000 
     50 H50         7.1381   55.1420   22.6764 H         1 UNK         0.0000 
     51 H51         2.5906   53.1951   22.4521 H         1 UNK         0.0000 
     52 H52         2.9454   53.6925   19.5550 H         1 UNK         0.0000 
     53 H53         4.1253   52.4332   19.8033 H         1 UNK         0.0000 
     54 H54         4.5109   55.1646   18.7472 H         1 UNK         0.0000 
     55 H55         5.3513   53.7474   18.1979 H         1 UNK         0.0000 
     56 H56         7.3878   54.7687   17.6699 H         1 UNK         0.0000 
     57 H57         8.2503   56.2551   18.0472 H         1 UNK         0.0000 
     58 H58         6.5161   56.3136   17.7320 H         1 UNK         0.0000 
@<TRIPOS>BOND
     1    1    2 1    
     2    1   34 1    
     3    1   35 1    
     4    1   36 1    
     5    2    7 ar   
     6    2    3 ar   
     7    3    4 ar   
     8    3   37 1    
     9    4    5 ar   
    10    4   38 1    
    11    5    6 ar   
    12    5    8 1    
    13    6    7 ar   
    14    6   39 1    
    15    7   40 1    
    16    8    9 1    
    17    8   41 1    
    18    9   10 2    
    19    9   11 2    
    20    9   12 1    
    21   12   17 ar   
    22   12   13 ar   
    23   13   14 ar   
    24   13   42 1    
    25   14   15 ar   
    26   14   19 1    
    27   15   16 ar   
    28   15   43 1    
    29   16   17 ar   
    30   16   44 1    
    31   17   18 1    
    32   18   45 1    
    33   18   46 1    
    34   18   47 1    
    35   19   20 2    
    36   19   21 am   BACKBONE|DICT|INTERRES
    37   21   22 1    
    38   21   48 1    
    39   22   27 ar   
    40   22   23 ar   
    41   23   24 ar   
    42   23   49 1    
    43   24   25 ar   
    44   24   50 1    
    45   25   30 1    
    46   25   26 ar   
    47   26   27 ar   
    48   26   28 1    
    49   27   51 1    
    50   28   29 1    
    51   28   52 1    
    52   28   53 1    
    53   29   30 1    
    54   29   54 1    
    55   29   55 1    
    56   30   31 am   BACKBONE|DICT|INTERRES
    57   31   32 2    
    58   31   33 1    
    59   33   56 1    
    60   33   57 1    
    61   33   58 1    
@<TRIPOS>SUBSTRUCTURE
     1 UNK         1 GROUP             0       ****    0 ROOT    
