@<TRIPOS>MOLECULE
ZINC65216921_1352
49   52    1
SMALL
USER_CHARGES


@<TRIPOS>ATOM
      1 C1          5.6129   54.7070   24.5650 C.3       1 UNK         0.0000 
      2 C2          5.8368   54.0860   23.1769 C.3       1 UNK         0.0000 
      3 H3          5.8718   52.9995   23.2757 H         1 UNK         0.0000 
      4 C4          4.7706   54.4935   22.1307 C.3       1 UNK         0.0000 
      5 H5          4.1327   55.2673   22.5567 H         1 UNK         0.0000 
      6 N6          5.5043   55.1906   21.0770 N.pl3     1 UNK         0.0000 
      7 C7          6.7779   55.5481   21.6585 C.3       1 UNK         0.0000 
      8 H8          6.6836   56.4968   22.1695 H         1 UNK         0.0000 
      9 N9          7.1044   54.4970   22.6055 N.3       1 UNK         0.0000 
     10 S10         7.9176   55.6965   20.2761 S.3       1 UNK         0.0000 
     11 C11         6.7248   54.7972   19.2765 C.2       1 UNK         0.0000 
     12 N12         5.5821   54.6309   19.7977 N.2       1 UNK         0.0000 
     13 C13         7.0884   54.1943   17.9404 C.3       1 UNK         0.0000 
     14 C14         3.7832   53.3738   21.7301 C.3       1 UNK         0.0000 
     15 N15         2.9611   52.9923   22.8818 N.am      1 UNK         0.0000 
     16 C16         1.6464   52.7164   22.8709 C.2       1 UNK         0.0000 
     17 O17         0.9755   52.6882   21.8424 O.2       1 UNK         0.0000 
     18 C18         0.9646   52.4049   24.2124 C.3       1 UNK         0.0000 
     19 C19         1.6963   52.8926   25.4938 C.3       1 UNK         0.0000 
     20 C20         1.0286   52.4947   26.8034 C.2       1 UNK         0.0000 
     21 C21         0.9578   53.1399   27.9846 C.2       1 UNK         0.0000 
     22 C22         1.5176   54.4297   28.4228 C.2       1 UNK         0.0000 
     23 C23         1.3066   54.8853   29.6751 C.2       1 UNK         0.0000 
     24 C24         0.5238   54.0536   30.5807 C.2       1 UNK         0.0000 
     25 C25         0.0133   52.8568   30.1937 C.2       1 UNK         0.0000 
     26 C26         0.2029   52.3917   28.8905 C.2       1 UNK         0.0000 
     27 N27        -0.2443   51.2967   28.3298 N.pl3     1 UNK         0.0000 
     28 C28         0.2424   51.2040   26.9498 C.3       1 UNK         0.0000 
     29 H29         5.6662   55.7944   24.5178 H         1 UNK         0.0000 
     30 H30         4.6355   54.4343   24.9659 H         1 UNK         0.0000 
     31 H31         6.3656   54.3637   25.2753 H         1 UNK         0.0000 
     32 H32         7.8107   54.7760   23.2802 H         1 UNK         0.0000 
     33 H33         7.2460   53.1194   18.0320 H         1 UNK         0.0000 
     34 H34         6.2935   54.3498   17.2097 H         1 UNK         0.0000 
     35 H35         8.0026   54.6382   17.5429 H         1 UNK         0.0000 
     36 H36         3.1549   53.7237   20.9061 H         1 UNK         0.0000 
     37 H37         4.3219   52.5014   21.3547 H         1 UNK         0.0000 
     38 H38         3.4520   52.9011   23.7565 H         1 UNK         0.0000 
     39 H39        -0.0362   52.8395   24.1854 H         1 UNK         0.0000 
     40 H40         0.8319   51.3234   24.2429 H         1 UNK         0.0000 
     41 H41         2.7102   52.4969   25.5244 H         1 UNK         0.0000 
     42 H42         1.8081   53.9779   25.4688 H         1 UNK         0.0000 
     43 H43         2.1106   55.0386   27.7575 H         1 UNK         0.0000 
     44 H44         1.7077   55.8347   30.0010 H         1 UNK         0.0000 
     45 H45         0.3484   54.3897   31.5945 H         1 UNK         0.0000 
     46 H46        -0.5292   52.2627   30.9107 H         1 UNK         0.0000 
     47 H47        -0.6270   51.1262   26.2943 H         1 UNK         0.0000 
     48 H48         0.8449   50.2956   26.8700 H         1 UNK         0.0000 
     49 H49        -0.8253   50.5843   28.7740 H         1 UNK         0.0000 
@<TRIPOS>BOND
     1    1    2 1    
     2    1   29 1    
     3    1   30 1    
     4    1   31 1    
     5    2    3 1    
     6    2    9 1    
     7    2    4 1    
     8    4    5 1    
     9    4    6 1    
    10    4   14 1    
    11    6   12 1    
    12    6    7 1    
    13    7    8 1    
    14    7    9 1    
    15    7   10 1    
    16    9   32 1    
    17   10   11 1    
    18   11   12 2    
    19   11   13 1    
    20   13   33 1    
    21   13   34 1    
    22   13   35 1    
    23   14   15 1    
    24   14   36 1    
    25   14   37 1    
    26   15   16 am   BACKBONE|DICT|INTERRES
    27   15   38 1    
    28   16   17 2    
    29   16   18 1    
    30   18   19 1    
    31   18   39 1    
    32   18   40 1    
    33   19   20 1    
    34   19   41 1    
    35   19   42 1    
    36   20   28 1    
    37   20   21 2    
    38   21   26 1    
    39   21   22 1    
    40   22   23 2    
    41   22   43 1    
    42   23   24 1    
    43   23   44 1    
    44   24   25 2    
    45   24   45 1    
    46   25   26 1    
    47   25   46 1    
    48   26   27 2    
    49   27   28 1    
    50   27   49 1    
    51   28   47 1    
    52   28   48 1    
@<TRIPOS>SUBSTRUCTURE
     1 UNK         1 GROUP             0       ****    0 ROOT    
