ZINC25224295_1401
                    3D
 Schrodinger Suite 2024-2.
 43 45  0  0  1  0            999 V2000
    0.0227   53.7552   29.5856 C   0  0  0  0  0  0
    1.1944   53.1376   28.7874 C   0  0  1  0  0  0
    2.2628   54.2099   28.5848 C   0  0  0  0  0  0
    2.0860   55.3191   28.0833 O   0  0  0  0  0  0
    3.4153   53.6826   29.0453 N   0  0  0  0  0  0
    3.2529   52.4974   29.6830 C   0  0  0  0  0  0
    4.1143   51.7381   30.1127 O   0  0  0  0  0  0
    1.9415   52.2482   29.6346 N   0  0  0  0  0  0
    4.7030   54.3986   28.9619 C   0  0  0  0  0  0
    5.7555   53.7660   28.0073 C   0  0  1  0  0  0
    5.7213   52.6788   28.1084 H   0  0  0  0  0  0
    5.5535   54.0766   26.5146 C   0  0  0  0  0  0
    6.5720   54.6467   25.7425 C   0  0  0  0  0  0
    6.4198   54.8120   24.3684 C   0  0  0  0  0  0
    5.2349   54.4141   23.7579 C   0  0  0  0  0  0
    4.1923   53.8933   24.5148 C   0  0  0  0  0  0
    4.3676   53.6990   25.8831 C   0  0  0  0  0  0
    5.1063   54.4974   22.4153 F   0  0  0  0  0  0
    7.0502   54.0967   28.4765 O   0  0  0  0  0  0
    0.7208   52.4225   27.4947 C   0  0  0  0  0  0
    1.0140   52.8959   26.2045 C   0  0  0  0  0  0
    0.5863   52.2083   25.0730 C   0  0  0  0  0  0
   -0.1642   51.0338   25.1977 C   0  0  0  0  0  0
   -0.4994   50.5844   26.4805 C   0  0  0  0  0  0
   -0.0738   51.2779   27.6101 C   0  0  0  0  0  0
   -0.6052   50.2872   23.9937 N   0  3  0  0  0  0
   -0.3883   50.7799   22.8901 O   0  0  0  0  0  0
   -1.1741   49.2082   24.1415 O   0  5  0  0  0  0
   -0.4929   54.4954   28.9799 H   0  0  0  0  0  0
   -0.7102   52.9991   29.8708 H   0  0  0  0  0  0
    0.3463   54.2474   30.5058 H   0  0  0  0  0  0
    1.4631   51.6796   30.3172 H   0  0  0  0  0  0
    5.1015   54.4826   29.9730 H   0  0  0  0  0  0
    4.5342   55.4258   28.6534 H   0  0  0  0  0  0
    7.5044   54.9100   26.2044 H   0  0  0  0  0  0
    7.2262   55.2137   23.7728 H   0  0  0  0  0  0
    3.2831   53.5727   24.0299 H   0  0  0  0  0  0
    3.6084   53.1856   26.4428 H   0  0  0  0  0  0
    7.0643   54.9836   28.8788 H   0  0  0  0  0  0
    1.5580   53.8137   26.0483 H   0  0  0  0  0  0
    0.8399   52.5963   24.0963 H   0  0  0  0  0  0
   -1.0949   49.6920   26.6161 H   0  0  0  0  0  0
   -0.3497   50.8958   28.5829 H   0  0  0  0  0  0
  1  2  1  0  0  0
  1 29  1  0  0  0
  1 30  1  0  0  0
  1 31  1  0  0  0
  2  8  1  0  0  0
  2  3  1  0  0  0
  2 20  1  0  0  0
  3  4  2  0  0  0
  3  5  1  0  0  0
  5  6  1  0  0  0
  5  9  1  0  0  0
  6  7  2  0  0  0
  6  8  1  0  0  0
  8 32  1  0  0  0
  9 10  1  0  0  0
  9 33  1  0  0  0
  9 34  1  0  0  0
 10 11  1  0  0  0
 10 12  1  0  0  0
 10 19  1  0  0  0
 12 17  2  0  0  0
 12 13  1  0  0  0
 13 14  2  0  0  0
 13 35  1  0  0  0
 14 15  1  0  0  0
 14 36  1  0  0  0
 15 16  2  0  0  0
 15 18  1  0  0  0
 16 17  1  0  0  0
 16 37  1  0  0  0
 17 38  1  0  0  0
 19 39  1  0  0  0
 20 25  2  0  0  0
 20 21  1  0  0  0
 21 22  2  0  0  0
 21 40  1  0  0  0
 22 23  1  0  0  0
 22 41  1  0  0  0
 23 24  2  0  0  0
 23 26  1  0  0  0
 24 25  1  0  0  0
 24 42  1  0  0  0
 25 43  1  0  0  0
 26 27  2  0  0  0
 26 28  1  0  0  0
M  CHG  2  26   1  28  -1
M  END
> <i_i_glide_confnum>
13

> <i_i_glide_lignum>
1402

> <i_i_glide_posenum>
260

> <i_i_glide_rotatable_bonds>
6

> <i_m_Source_File_Index>
2800

> <b_m_subgroup_collapsed>
0

> <r_i_docking_score>
-7.5254

> <r_i_glide_ecoul>
-6.50419

> <r_i_glide_eff_state_penalty>
0

> <r_i_glide_einternal>
8.60666

> <r_i_glide_emodel>
-57.8932

> <r_i_glide_energy>
-42.2209

> <r_i_glide_erotb>
0.554573

> <r_i_glide_esite>
-0.0203362

> <r_i_glide_evdw>
-35.7167

> <r_i_glide_gscore>
-7.5254

> <r_i_glide_hbond>
-0.570117

> <r_i_glide_ligand_efficiency>
-0.278719

> <r_i_glide_ligand_efficiency_ln>
-1.75179

> <r_i_glide_ligand_efficiency_sa>
-0.836156

> <r_i_glide_lipo>
-2.73529

> <r_i_glide_metal>
0

> <r_i_glide_rewards>
-1.99277

> <s_i_glide_gridfile>
wee1_glide-grid

> <s_m_Source_File>
wee1_decoys_glide_SP.sdf

> <s_m_Source_Path>
/Users/zhangxujun/Desktop

> <s_m_entry_id>
3075

> <s_m_entry_name>
wee1_decoys_glide_SP.2800

> <s_m_subgroup_title>
wee1_decoys_glide_SP

> <s_m_subgroupid>
wee1_decoys_glide_SP


$$$$
