@<TRIPOS>MOLECULE
ZINC32970967_488
53   56    1
SMALL
USER_CHARGES


@<TRIPOS>ATOM
      1 C1          0.7874   51.8084   19.2279 C.3       1 UNK         0.0000 
      2 C2         -0.1969   51.7383   20.4006 C.3       1 UNK         0.0000 
      3 H3         -0.9652   52.4964   20.2451 H         1 UNK         0.0000 
      4 C4          0.4182   52.1015   21.7826 C.2       1 UNK         0.0000 
      5 O5         -0.1513   51.7410   22.8131 O.2       1 UNK         0.0000 
      6 N6          1.5263   52.8812   21.7718 N.am      1 UNK         0.0000 
      7 C7          2.2530   53.3192   22.8657 C.2       1 UNK         0.0000 
      8 N8          1.9421   53.2023   24.1360 N.2       1 UNK         0.0000 
      9 C9          2.8669   53.6969   24.9453 C.2       1 UNK         0.0000 
     10 C10         3.9630   54.2495   24.2716 C.2       1 UNK         0.0000 
     11 S11         3.7636   54.0965   22.5545 S.3       1 UNK         0.0000 
     12 C12         2.6872   53.6158   26.4330 C.ar      1 UNK         0.0000 
     13 C13         3.7173   54.0507   27.3002 C.ar      1 UNK         0.0000 
     14 C14         3.5866   53.9677   28.6920 C.ar      1 UNK         0.0000 
     15 C15         2.3967   53.4581   29.1922 C.ar      1 UNK         0.0000 
     16 C16         1.3911   53.0333   28.3743 C.ar      1 UNK         0.0000 
     17 C17         1.5035   53.0880   26.9902 C.ar      1 UNK         0.0000 
     18 O18         0.3683   52.5525   29.1268 O.3       1 UNK         0.0000 
     19 C19         0.6743   52.9119   30.4475 C.3       1 UNK         0.0000 
     20 O20         2.0353   53.2527   30.4820 O.3       1 UNK         0.0000 
     21 N21        -0.9492   50.4459   20.4251 N.pl3     1 UNK         0.0000 
     22 S22        -0.1640   48.9175   20.8521 S.o2      1 UNK         0.0000 
     23 O23         1.2667   49.1573   21.0775 O.2       1 UNK         0.0000 
     24 O24        -0.6023   47.9257   19.8641 O.2       1 UNK         0.0000 
     25 C25        -0.8948   48.4223   22.4115 C.ar      1 UNK         0.0000 
     26 C26        -0.2690   48.7479   23.6157 C.ar      1 UNK         0.0000 
     27 C27        -0.8170   48.3174   24.8193 C.ar      1 UNK         0.0000 
     28 C28        -1.9789   47.5446   24.8236 C.ar      1 UNK         0.0000 
     29 C29        -2.6132   47.2233   23.6174 C.ar      1 UNK         0.0000 
     30 C30        -2.0713   47.6683   22.4132 C.ar      1 UNK         0.0000 
     31 N31        -2.4629   47.1748   26.0817 N.am      1 UNK         0.0000 
     32 C32        -3.2753   46.1652   26.4395 C.2       1 UNK         0.0000 
     33 O33        -3.7285   45.3072   25.6813 O.2       1 UNK         0.0000 
     34 C34        -3.5940   46.0970   27.9251 C.3       1 UNK         0.0000 
     35 H35         1.0918   52.8381   19.0395 H         1 UNK         0.0000 
     36 H36         1.6743   51.2067   19.4264 H         1 UNK         0.0000 
     37 H37         0.3145   51.4284   18.3223 H         1 UNK         0.0000 
     38 H38         1.8888   53.1540   20.8692 H         1 UNK         0.0000 
     39 H39         4.8515   54.7118   24.6762 H         1 UNK         0.0000 
     40 H40         4.6395   54.4460   26.9020 H         1 UNK         0.0000 
     41 H41         4.3885   54.2886   29.3398 H         1 UNK         0.0000 
     42 H42         0.6968   52.7285   26.3686 H         1 UNK         0.0000 
     43 H43         0.4525   52.0974   31.1403 H         1 UNK         0.0000 
     44 H44         0.0774   53.7813   30.7301 H         1 UNK         0.0000 
     45 H45        -1.8825   50.5330   20.8365 H         1 UNK         0.0000 
     46 H46         0.6481   49.3211   23.6258 H         1 UNK         0.0000 
     47 H47        -0.3219   48.5703   25.7477 H         1 UNK         0.0000 
     48 H48        -3.5293   46.6514   23.6003 H         1 UNK         0.0000 
     49 H49        -2.5594   47.4118   21.4844 H         1 UNK         0.0000 
     50 H50        -2.0715   47.6967   26.8651 H         1 UNK         0.0000 
     51 H51        -2.6733   46.0983   28.5157 H         1 UNK         0.0000 
     52 H52        -4.1294   45.1760   28.1530 H         1 UNK         0.0000 
     53 H53        -4.2098   46.9458   28.2309 H         1 UNK         0.0000 
@<TRIPOS>BOND
     1    1    2 1    
     2    1   35 1    
     3    1   36 1    
     4    1   37 1    
     5    2    3 1    
     6    2    4 1    
     7    2   21 1    
     8    4    5 2    
     9    4    6 am   BACKBONE|DICT|INTERRES
    10    6    7 am   BACKBONE|DICT|INTERRES
    11    6   38 1    
    12    7   11 1    
    13    7    8 2    
    14    8    9 1    
    15    9   10 2    
    16    9   12 1    
    17   10   11 1    
    18   10   39 1    
    19   12   17 ar   
    20   12   13 ar   
    21   13   14 ar   
    22   13   40 1    
    23   14   15 ar   
    24   14   41 1    
    25   15   20 1    
    26   15   16 ar   
    27   16   17 ar   
    28   16   18 1    
    29   17   42 1    
    30   18   19 1    
    31   19   20 1    
    32   19   43 1    
    33   19   44 1    
    34   21   22 1    
    35   21   45 1    
    36   22   23 2    
    37   22   24 2    
    38   22   25 1    
    39   25   30 ar   
    40   25   26 ar   
    41   26   27 ar   
    42   26   46 1    
    43   27   28 ar   
    44   27   47 1    
    45   28   29 ar   
    46   28   31 1    
    47   29   30 ar   
    48   29   48 1    
    49   30   49 1    
    50   31   32 am   BACKBONE|DICT|INTERRES
    51   31   50 1    
    52   32   33 2    
    53   32   34 1    
    54   34   51 1    
    55   34   52 1    
    56   34   53 1    
@<TRIPOS>SUBSTRUCTURE
     1 UNK         1 GROUP             0       ****    0 ROOT    
