@<TRIPOS>MOLECULE
ZINC39637142_218
69   72    1
SMALL
USER_CHARGES


@<TRIPOS>ATOM
      1 C1         -5.5328   47.8349   30.8774 C.3       1 UNK         0.0000 
      2 C2         -4.8835   48.1626   29.5175 C.3       1 UNK         0.0000 
      3 H3         -3.8154   48.3100   29.6861 H         1 UNK         0.0000 
      4 C4         -5.0161   46.9653   28.5408 C.3       1 UNK         0.0000 
      5 C5         -4.3862   47.2387   27.1614 C.3       1 UNK         0.0000 
      6 C6         -4.9362   48.5480   26.5597 C.3       1 UNK         0.0000 
      7 C7         -4.7138   49.7510   27.5028 C.3       1 UNK         0.0000 
      8 H8         -5.2198   50.6099   27.0533 H         1 UNK         0.0000 
      9 C9         -5.4188   49.4779   28.8646 C.3       1 UNK         0.0000 
     10 H10        -6.4643   49.2691   28.6319 H         1 UNK         0.0000 
     11 C11        -5.3983   50.7096   29.7980 C.3       1 UNK         0.0000 
     12 N12        -3.2957   50.0975   27.6602 N.am      1 UNK         0.0000 
     13 C13        -2.6941   51.2195   27.2387 C.2       1 UNK         0.0000 
     14 O14        -3.3115   52.1701   26.7573 O.2       1 UNK         0.0000 
     15 C15        -1.1631   51.2781   27.4593 C.3       1 UNK         0.0000 
     16 H16        -0.9057   50.5828   28.2605 H         1 UNK         0.0000 
     17 C17        -0.7499   52.6967   27.8850 C.3       1 UNK         0.0000 
     18 N18         0.6521   52.7828   27.4732 N.am      1 UNK         0.0000 
     19 C19         1.0192   51.6496   26.6130 C.3       1 UNK         0.0000 
     20 C20        -0.3048   50.9655   26.2039 C.3       1 UNK         0.0000 
     21 C21        -0.8596   51.5817   24.8792 C.3       1 UNK         0.0000 
     22 C22         0.0780   51.3414   23.6773 C.3       1 UNK         0.0000 
     23 N23         0.2389   49.8171   23.4870 N.4       1 UNK         0.0000 
     24 C24         0.7013   49.0606   24.7507 C.3       1 UNK         0.0000 
     25 C25        -0.2098   49.4372   25.9393 C.3       1 UNK         0.0000 
     26 C26         1.5051   53.6519   28.0827 C.2       1 UNK         0.0000 
     27 O27         1.1486   54.3721   29.0185 O.2       1 UNK         0.0000 
     28 C28         2.9289   53.7792   27.5875 C.ar      1 UNK         0.0000 
     29 C29         3.9816   53.8809   28.5075 C.ar      1 UNK         0.0000 
     30 C30         5.2928   54.0709   28.0714 C.ar      1 UNK         0.0000 
     31 C31         5.5635   54.1709   26.7090 C.ar      1 UNK         0.0000 
     32 C32         4.5352   54.0972   25.7684 C.ar      1 UNK         0.0000 
     33 C33         3.2173   53.9059   26.2198 C.ar      1 UNK         0.0000 
     34 O34         4.8978   54.2284   24.4423 O.3       1 UNK         0.0000 
     35 C35         3.8975   54.1256   23.4330 C.3       1 UNK         0.0000 
     36 H36        -6.6151   47.7418   30.7908 H         1 UNK         0.0000 
     37 H37        -5.1534   46.8961   31.2814 H         1 UNK         0.0000 
     38 H38        -5.3220   48.6072   31.6169 H         1 UNK         0.0000 
     39 H39        -4.5680   46.0763   28.9842 H         1 UNK         0.0000 
     40 H40        -6.0732   46.7221   28.4121 H         1 UNK         0.0000 
     41 H41        -3.3001   47.2972   27.2586 H         1 UNK         0.0000 
     42 H42        -4.5860   46.4061   26.4871 H         1 UNK         0.0000 
     43 H43        -4.4669   48.7430   25.5941 H         1 UNK         0.0000 
     44 H44        -6.0001   48.4353   26.3493 H         1 UNK         0.0000 
     45 H45        -4.3953   50.8953   30.1846 H         1 UNK         0.0000 
     46 H46        -6.0659   50.5818   30.6508 H         1 UNK         0.0000 
     47 H47        -5.7243   51.6074   29.2720 H         1 UNK         0.0000 
     48 H48        -2.6881   49.3522   28.0177 H         1 UNK         0.0000 
     49 H49        -1.2956   53.4246   27.2818 H         1 UNK         0.0000 
     50 H50        -0.8955   52.8162   28.9609 H         1 UNK         0.0000 
     51 H51         1.5141   50.9453   27.2805 H         1 UNK         0.0000 
     52 H52         1.7204   51.8413   25.8067 H         1 UNK         0.0000 
     53 H53        -1.8570   51.2052   24.6478 H         1 UNK         0.0000 
     54 H54        -0.9879   52.6583   25.0016 H         1 UNK         0.0000 
     55 H55        -0.3420   51.7206   22.7451 H         1 UNK         0.0000 
     56 H56         1.0772   51.7580   23.7970 H         1 UNK         0.0000 
     57 H57        -0.6544   49.4383   23.2028 H         1 UNK         0.0000 
     58 H58         0.6329   47.9978   24.5161 H         1 UNK         0.0000 
     59 H59         1.7527   49.2968   24.8823 H         1 UNK         0.0000 
     60 H60         0.1860   48.9420   26.8279 H         1 UNK         0.0000 
     61 H61        -1.2038   49.0032   25.8141 H         1 UNK         0.0000 
     62 H62         3.7898   53.8204   29.5690 H         1 UNK         0.0000 
     63 H63         6.0964   54.1474   28.7905 H         1 UNK         0.0000 
     64 H64         6.5808   54.3161   26.3766 H         1 UNK         0.0000 
     65 H65         2.4050   53.8881   25.5110 H         1 UNK         0.0000 
     66 H66         4.3587   54.2440   22.4519 H         1 UNK         0.0000 
     67 H67         3.4098   53.1513   23.4530 H         1 UNK         0.0000 
     68 H68         3.1394   54.9028   23.5346 H         1 UNK         0.0000 
     69 H69         0.8817   49.6324   22.7280 H         1 UNK         0.0000 
@<TRIPOS>BOND
     1    1    2 1    
     2    1   36 1    
     3    1   37 1    
     4    1   38 1    
     5    2    3 1    
     6    2    9 1    
     7    2    4 1    
     8    4    5 1    
     9    4   39 1    
    10    4   40 1    
    11    5    6 1    
    12    5   41 1    
    13    5   42 1    
    14    6    7 1    
    15    6   43 1    
    16    6   44 1    
    17    7    8 1    
    18    7    9 1    
    19    7   12 1    
    20    9   10 1    
    21    9   11 1    
    22   11   45 1    
    23   11   46 1    
    24   11   47 1    
    25   12   13 am   BACKBONE|DICT|INTERRES
    26   12   48 1    
    27   13   14 2    
    28   13   15 1    
    29   15   16 1    
    30   15   20 1    
    31   15   17 1    
    32   17   18 1    
    33   17   49 1    
    34   17   50 1    
    35   18   19 1    
    36   18   26 am   BACKBONE|DICT|INTERRES
    37   19   20 1    
    38   19   51 1    
    39   19   52 1    
    40   20   25 1    
    41   20   21 1    
    42   21   22 1    
    43   21   53 1    
    44   21   54 1    
    45   22   23 1    
    46   22   55 1    
    47   22   56 1    
    48   23   24 1    
    49   23   57 1    
    50   23   69 1    
    51   24   25 1    
    52   24   58 1    
    53   24   59 1    
    54   25   60 1    
    55   25   61 1    
    56   26   27 2    
    57   26   28 1    
    58   28   33 ar   
    59   28   29 ar   
    60   29   30 ar   
    61   29   62 1    
    62   30   31 ar   
    63   30   63 1    
    64   31   32 ar   
    65   31   64 1    
    66   32   33 ar   
    67   32   34 1    
    68   33   65 1    
    69   34   35 1    
    70   35   66 1    
    71   35   67 1    
    72   35   68 1    
@<TRIPOS>SUBSTRUCTURE
     1 UNK         1 GROUP             0       ****    0 ROOT    
