ZINC01040679_869
                    3D
 Schrodinger Suite 2024-2.
 43 45  0  0  1  0            999 V2000
    3.9265   53.6967   26.5777 C   0  0  0  0  0  0
    3.5044   53.7185   25.2539 C   0  0  0  0  0  0
    4.3642   54.1458   24.2281 C   0  0  0  0  0  0
    5.6623   54.5423   24.5640 C   0  0  0  0  0  0
    6.0959   54.4834   25.8884 C   0  0  0  0  0  0
    5.2348   54.0564   26.9056 C   0  0  0  0  0  0
    5.7021   53.9504   28.2980 N   0  3  0  0  0  0
    6.8883   53.6967   28.4817 O   0  0  0  0  0  0
    4.8740   54.0967   29.1941 O   0  5  0  0  0  0
    6.7441   55.1109   23.3439 Cl  0  0  0  0  0  0
    3.9786   54.2174   22.9021 O   0  0  0  0  0  0
    3.1702   53.2375   22.3743 C   0  0  0  0  0  0
    1.7870   53.3134   22.5232 C   0  0  0  0  0  0
    0.9625   52.2885   22.0681 C   0  0  0  0  0  0
    1.5233   51.1811   21.4316 C   0  0  0  0  0  0
    2.9065   51.1249   21.2271 C   0  0  0  0  0  0
    3.7238   52.1600   21.6817 C   0  0  0  0  0  0
    5.4239   52.0967   21.4221 Cl  0  0  0  0  0  0
    0.4644   49.8714   20.8397 S   0  0  0  0  0  0
   -0.8678   50.0240   21.4313 O   0  0  0  0  0  0
    1.2103   48.6089   20.8708 O   0  0  0  0  0  0
    0.3062   50.3357   19.2251 N   0  0  0  0  0  0
    1.2725   50.1719   18.3284 C   0  0  0  0  0  0
    1.1961   50.9636   17.1101 C   0  0  0  0  0  0
    2.3044   51.6968   16.6568 C   0  0  0  0  0  0
    2.1948   52.4484   15.4861 C   0  0  0  0  0  0
    1.0539   52.5111   14.7554 N   0  0  0  0  0  0
   -0.0174   51.8067   15.1986 C   0  0  0  0  0  0
    0.0114   51.0316   16.3601 C   0  0  0  0  0  0
    1.1044   54.6918   23.2817 Cl  0  0  0  0  0  0
    3.2432   53.3532   27.3421 H   0  0  0  0  0  0
    2.5009   53.3854   25.0539 H   0  0  0  0  0  0
    7.1044   54.7722   26.1303 H   0  0  0  0  0  0
   -0.1062   52.3573   22.2125 H   0  0  0  0  0  0
    3.3544   50.2855   20.7186 H   0  0  0  0  0  0
   -0.4346   50.9972   19.0713 H   0  0  0  0  0  0
    2.3288   48.7561   19.2926 H   0  0  0  0  0  0
    3.2338   51.6967   17.2093 H   0  0  0  0  0  0
    3.0352   53.0193   15.1179 H   0  0  0  0  0  0
   -0.9122   51.8697   14.5961 H   0  0  0  0  0  0
   -0.8657   50.4786   16.6639 H   0  0  0  0  0  0
    2.3044   49.3601   18.4817 N   0  3  0  0  0  0
    3.0342   49.2967   17.7545 H   0  0  0  0  0  0
  1  6  2  0  0  0
  1  2  1  0  0  0
  1 31  1  0  0  0
  2  3  2  0  0  0
  2 32  1  0  0  0
  3  4  1  0  0  0
  3 11  1  0  0  0
  4  5  2  0  0  0
  4 10  1  0  0  0
  5  6  1  0  0  0
  5 33  1  0  0  0
  6  7  1  0  0  0
  7  8  2  0  0  0
  7  9  1  0  0  0
 11 12  1  0  0  0
 12 17  2  0  0  0
 12 13  1  0  0  0
 13 14  2  0  0  0
 13 30  1  0  0  0
 14 15  1  0  0  0
 14 34  1  0  0  0
 15 16  2  0  0  0
 15 19  1  0  0  0
 16 17  1  0  0  0
 16 35  1  0  0  0
 17 18  1  0  0  0
 19 20  2  0  0  0
 19 21  2  0  0  0
 19 22  1  0  0  0
 22 23  1  0  0  0
 22 36  1  0  0  0
 23 24  1  0  0  0
 23 42  2  0  0  0
 24 29  2  0  0  0
 24 25  1  0  0  0
 25 26  2  0  0  0
 25 38  1  0  0  0
 26 27  1  0  0  0
 26 39  1  0  0  0
 27 28  2  0  0  0
 28 29  1  0  0  0
 28 40  1  0  0  0
 29 41  1  0  0  0
 37 42  1  0  0  0
 42 43  1  0  0  0
M  CHG  3   7   1   9  -1  42   1
M  END
> <i_i_glide_confnum>
21

> <i_i_glide_lignum>
870

> <i_i_glide_posenum>
250

> <i_i_glide_rotatable_bonds>
7

> <i_m_Source_File_Index>
3633

> <b_m_subgroup_collapsed>
0

> <r_i_docking_score>
-4.86464

> <r_i_glide_ecoul>
-5.37881

> <r_i_glide_eff_state_penalty>
0

> <r_i_glide_einternal>
3.02523

> <r_i_glide_emodel>
-56.3975

> <r_i_glide_energy>
-39.1691

> <r_i_glide_erotb>
0.404268

> <r_i_glide_esite>
-0.159914

> <r_i_glide_evdw>
-33.7903

> <r_i_glide_gscore>
-4.86464

> <r_i_glide_hbond>
-0.2

> <r_i_glide_ligand_efficiency>
-0.156924

> <r_i_glide_ligand_efficiency_ln>
-1.09713

> <r_i_glide_ligand_efficiency_sa>
-0.492958

> <r_i_glide_lipo>
-1.98657

> <r_i_glide_metal>
0

> <r_i_glide_rewards>
-0.426091

> <s_i_glide_gridfile>
wee1_glide-grid

> <s_m_Source_File>
wee1_decoys_glide_SP.sdf

> <s_m_Source_Path>
/Users/zhangxujun/Desktop

> <s_m_entry_id>
3908

> <s_m_entry_name>
wee1_decoys_glide_SP.3633

> <s_m_subgroup_title>
wee1_decoys_glide_SP

> <s_m_subgroupid>
wee1_decoys_glide_SP


$$$$
