ZINC39884128_3349
                    3D
 Schrodinger Suite 2024-2.
 48 52  0  0  1  0            999 V2000
   -3.6354   50.2144   19.1681 C   0  0  0  0  0  0
   -3.5753   50.4757   17.8022 C   0  0  0  0  0  0
   -2.5590   49.9109   17.0364 C   0  0  0  0  0  0
   -1.6085   49.0798   17.6232 C   0  0  0  0  0  0
   -1.6718   48.8185   18.9891 C   0  0  0  0  0  0
   -2.6785   49.3925   19.7776 C   0  0  0  0  0  0
   -2.7657   49.1431   21.2956 C   0  0  2  0  0  0
   -3.4439   49.9275   21.6403 H   0  0  0  0  0  0
   -1.5024   49.3542   22.1268 C   0  0  0  0  0  0
   -1.5075   49.2302   23.4650 C   0  0  0  0  0  0
   -0.3133   49.4862   24.0803 N   0  0  0  0  0  0
    0.7374   49.8314   23.2224 C   0  0  0  0  0  0
    1.9048   50.1001   23.5018 O   0  0  0  0  0  0
    0.0773   49.8523   21.5380 S   0  0  0  0  0  0
   -0.0886   49.4500   25.5421 C   0  0  0  0  0  0
   -0.0974   50.8671   26.1590 C   0  0  0  0  0  0
   -0.1761   51.8808   25.4577 O   0  0  0  0  0  0
   -0.0272   50.8967   27.5027 N   0  0  0  0  0  0
    0.1884   52.0187   28.3236 C   0  0  0  0  0  0
   -0.3084   51.9646   29.6280 C   0  0  0  0  0  0
   -0.0954   53.0284   30.4998 C   0  0  0  0  0  0
    0.5932   54.1557   30.0608 C   0  0  0  0  0  0
    1.1115   54.2129   28.7706 C   0  0  0  0  0  0
    0.9197   53.1410   27.9032 C   0  0  0  0  0  0
    0.7431   55.2151   30.8848 F   0  0  0  0  0  0
   -2.9469   48.7379   24.4185 S   0  0  0  0  0  0
   -3.8584   47.7261   23.1753 C   0  0  1  0  0  0
   -4.9159   47.9530   23.3139 H   0  0  0  0  0  0
   -3.4556   47.8065   21.7054 C   0  0  2  0  0  0
   -4.3559   47.6993   21.0979 H   0  0  0  0  0  0
   -2.6831   46.4913   21.5340 C   0  0  0  0  0  0
   -1.9961   46.2320   20.5517 O   0  0  0  0  0  0
   -2.8931   45.6965   22.5500 N   0  5  0  0  0  0
   -3.6169   46.2561   23.4815 C   0  0  0  0  0  0
   -4.0554   45.6972   24.4863 O   0  0  0  0  0  0
   -2.4954   50.1776   15.6973 O   0  0  0  0  0  0
   -4.4295   50.6595   19.7504 H   0  0  0  0  0  0
   -4.3101   51.1169   17.3380 H   0  0  0  0  0  0
   -0.8184   48.6418   17.0323 H   0  0  0  0  0  0
   -0.9231   48.1799   19.4316 H   0  0  0  0  0  0
   -0.8265   48.8239   26.0476 H   0  0  0  0  0  0
    0.8807   48.9902   25.7441 H   0  0  0  0  0  0
   -0.2675   50.0322   27.9754 H   0  0  0  0  0  0
   -0.8681   51.1045   29.9731 H   0  0  0  0  0  0
   -0.4873   52.9844   31.5067 H   0  0  0  0  0  0
    1.6532   55.0876   28.4435 H   0  0  0  0  0  0
    1.3407   53.1942   26.9097 H   0  0  0  0  0  0
   -1.7401   49.7653   15.2740 H   0  0  0  0  0  0
  1  6  2  0  0  0
  1  2  1  0  0  0
  1 37  1  0  0  0
  2  3  2  0  0  0
  2 38  1  0  0  0
  3  4  1  0  0  0
  3 36  1  0  0  0
  4  5  2  0  0  0
  4 39  1  0  0  0
  5  6  1  0  0  0
  5 40  1  0  0  0
  6  7  1  0  0  0
  7  8  1  0  0  0
  7 29  1  0  0  0
  7  9  1  0  0  0
  9 14  1  0  0  0
  9 10  2  0  0  0
 10 11  1  0  0  0
 10 26  1  0  0  0
 11 12  1  0  0  0
 11 15  1  0  0  0
 12 13  2  0  0  0
 12 14  1  0  0  0
 15 16  1  0  0  0
 15 41  1  0  0  0
 15 42  1  0  0  0
 16 17  2  0  0  0
 16 18  1  0  0  0
 18 19  1  0  0  0
 18 43  1  0  0  0
 19 24  2  0  0  0
 19 20  1  0  0  0
 20 21  2  0  0  0
 20 44  1  0  0  0
 21 22  1  0  0  0
 21 45  1  0  0  0
 22 23  2  0  0  0
 22 25  1  0  0  0
 23 24  1  0  0  0
 23 46  1  0  0  0
 24 47  1  0  0  0
 26 27  1  0  0  0
 27 28  1  0  0  0
 27 34  1  0  0  0
 27 29  1  0  0  0
 29 30  1  0  0  0
 29 31  1  0  0  0
 31 32  2  0  0  0
 31 33  1  0  0  0
 33 34  1  0  0  0
 34 35  2  0  0  0
 36 48  1  0  0  0
M  CHG  1  33  -1
M  END
> <i_i_glide_confnum>
7

> <i_i_glide_lignum>
3350

> <i_i_glide_posenum>
260

> <i_i_glide_rotatable_bonds>
6

> <i_m_Source_File_Index>
5872

> <b_m_subgroup_collapsed>
0

> <r_i_docking_score>
-3.48072

> <r_i_glide_ecoul>
-5.46755

> <r_i_glide_eff_state_penalty>
0

> <r_i_glide_einternal>
2.6848

> <r_i_glide_emodel>
-42.9094

> <r_i_glide_energy>
-34.8754

> <r_i_glide_erotb>
0.346054

> <r_i_glide_esite>
-0.162201

> <r_i_glide_evdw>
-29.4079

> <r_i_glide_gscore>
-3.48072

> <r_i_glide_hbond>
-0.268186

> <r_i_glide_ligand_efficiency>
-0.105476

> <r_i_glide_ligand_efficiency_ln>
-0.774094

> <r_i_glide_ligand_efficiency_sa>
-0.338319

> <r_i_glide_lipo>
-0.716291

> <r_i_glide_metal>
0

> <r_i_glide_rewards>
-0.389572

> <s_i_glide_gridfile>
wee1_glide-grid

> <s_m_Source_File>
wee1_decoys_glide_SP.sdf

> <s_m_Source_Path>
/Users/zhangxujun/Desktop

> <s_m_entry_id>
6147

> <s_m_entry_name>
wee1_decoys_glide_SP.5872

> <s_m_subgroup_title>
wee1_decoys_glide_SP

> <s_m_subgroupid>
wee1_decoys_glide_SP


$$$$
