@<TRIPOS>MOLECULE
ZINC20441797_1176
64   68    1
SMALL
USER_CHARGES


@<TRIPOS>ATOM
      1 C1         -0.2818   48.7612   24.9083 C.ar      1 UNK         0.0000 
      2 C2          0.3053   49.2970   26.0498 C.ar      1 UNK         0.0000 
      3 C3          0.2038   50.6613   26.3112 C.ar      1 UNK         0.0000 
      4 C4         -0.4907   51.4994   25.4415 C.ar      1 UNK         0.0000 
      5 C5         -1.0831   50.9650   24.2971 C.ar      1 UNK         0.0000 
      6 C6         -0.9692   49.5981   24.0275 C.ar      1 UNK         0.0000 
      7 S7         -1.6951   48.9374   22.5341 S.o2      1 UNK         0.0000 
      8 O8         -3.1055   49.3382   22.5408 O.2       1 UNK         0.0000 
      9 O9         -1.2956   47.5283   22.4323 O.2       1 UNK         0.0000 
     10 N10        -0.9207   49.8347   21.2345 N.pl3     1 UNK         0.0000 
     11 C11        -0.2555   49.0944   20.1312 C.3       1 UNK         0.0000 
     12 H12        -0.5285   48.0381   20.1649 H         1 UNK         0.0000 
     13 C13        -0.7262   49.7313   18.8108 C.3       1 UNK         0.0000 
     14 C14        -0.1538   48.9415   17.6250 C.3       1 UNK         0.0000 
     15 C15         1.3867   48.9402   17.6708 C.3       1 UNK         0.0000 
     16 C16         1.9693   48.4713   19.0302 C.3       1 UNK         0.0000 
     17 C17         1.3014   49.0820   20.3036 C.3       1 UNK         0.0000 
     18 H18         1.5711   48.4608   21.1574 H         1 UNK         0.0000 
     19 N19         1.7789   50.5385   20.6304 N.4       1 UNK         0.0000 
     20 C20         3.0062   51.1195   19.8802 C.3       1 UNK         0.0000 
     21 C21         3.2398   52.5802   20.3323 C.3       1 UNK         0.0000 
     22 N22         3.4478   52.6617   21.7872 N.3       1 UNK         0.0000 
     23 C23         2.3047   52.1105   22.5274 C.3       1 UNK         0.0000 
     24 C24         2.0807   50.6381   22.1483 C.3       1 UNK         0.0000 
     25 C25         3.6999   54.0459   22.1992 C.3       1 UNK         0.0000 
     26 C26         4.5095   54.1133   23.4876 C.ar      1 UNK         0.0000 
     27 C27         5.9147   54.0965   23.4053 C.ar      1 UNK         0.0000 
     28 C28         6.7045   54.2249   24.5521 C.ar      1 UNK         0.0000 
     29 C29         6.0576   54.3614   25.7741 C.ar      1 UNK         0.0000 
     30 C30         4.6950   54.3681   25.8665 C.ar      1 UNK         0.0000 
     31 C31         3.8823   54.2510   24.7404 C.ar      1 UNK         0.0000 
     32 O32         4.3375   54.5330   27.1678 O.3       1 UNK         0.0000 
     33 C33         5.5313   54.4581   27.9077 C.3       1 UNK         0.0000 
     34 O34         6.6037   54.5315   27.0040 O.3       1 UNK         0.0000 
     35 Cl35        0.9544   51.3191   27.7222 Cl        1 UNK         0.0000 
     36 H36        -0.1950   47.7003   24.7247 H         1 UNK         0.0000 
     37 H37         0.8285   48.6445   26.7338 H         1 UNK         0.0000 
     38 H38        -0.5734   52.5530   25.6520 H         1 UNK         0.0000 
     39 H39        -1.6226   51.6110   23.6202 H         1 UNK         0.0000 
     40 H40        -1.5105   50.5920   20.8862 H         1 UNK         0.0000 
     41 H41        -0.4059   50.7740   18.7437 H         1 UNK         0.0000 
     42 H42        -1.8166   49.7369   18.7554 H         1 UNK         0.0000 
     43 H43        -0.4984   49.3713   16.6817 H         1 UNK         0.0000 
     44 H44        -0.5253   47.9150   17.6492 H         1 UNK         0.0000 
     45 H45         1.7441   49.9367   17.4139 H         1 UNK         0.0000 
     46 H46         1.7759   48.3014   16.8755 H         1 UNK         0.0000 
     47 H47         3.0477   48.6247   19.0180 H         1 UNK         0.0000 
     48 H48         1.8276   47.3912   19.0677 H         1 UNK         0.0000 
     49 H49         3.8745   50.4879   20.0742 H         1 UNK         0.0000 
     50 H50         2.7870   51.1235   18.8164 H         1 UNK         0.0000 
     51 H51         2.3605   53.1771   20.0794 H         1 UNK         0.0000 
     52 H52         4.1067   52.9815   19.7986 H         1 UNK         0.0000 
     53 H53         2.4745   52.1685   23.6040 H         1 UNK         0.0000 
     54 H54         1.4115   52.6894   22.2797 H         1 UNK         0.0000 
     55 H55         2.9436   50.0056   22.3738 H         1 UNK         0.0000 
     56 H56         1.2166   50.2571   22.6837 H         1 UNK         0.0000 
     57 H57         2.7686   54.6059   22.3058 H         1 UNK         0.0000 
     58 H58         4.2688   54.5747   21.4318 H         1 UNK         0.0000 
     59 H59         6.3998   53.9936   22.4467 H         1 UNK         0.0000 
     60 H60         7.7799   54.2112   24.4802 H         1 UNK         0.0000 
     61 H61         2.8067   54.2797   24.8247 H         1 UNK         0.0000 
     62 H62         5.5900   55.2837   28.6233 H         1 UNK         0.0000 
     63 H63         5.5723   53.5015   28.4307 H         1 UNK         0.0000 
     64 H64         0.9850   51.1335   20.4298 H         1 UNK         0.0000 
@<TRIPOS>BOND
     1    1    6 ar   
     2    1    2 ar   
     3    1   36 1    
     4    2    3 ar   
     5    2   37 1    
     6    3    4 ar   
     7    3   35 1    
     8    4    5 ar   
     9    4   38 1    
    10    5    6 ar   
    11    5   39 1    
    12    6    7 1    
    13    7    8 2    
    14    7    9 2    
    15    7   10 1    
    16   10   11 1    
    17   10   40 1    
    18   11   12 1    
    19   11   17 1    
    20   11   13 1    
    21   13   14 1    
    22   13   41 1    
    23   13   42 1    
    24   14   15 1    
    25   14   43 1    
    26   14   44 1    
    27   15   16 1    
    28   15   45 1    
    29   15   46 1    
    30   16   17 1    
    31   16   47 1    
    32   16   48 1    
    33   17   18 1    
    34   17   19 1    
    35   19   24 1    
    36   19   20 1    
    37   19   64 1    
    38   20   21 1    
    39   20   49 1    
    40   20   50 1    
    41   21   22 1    
    42   21   51 1    
    43   21   52 1    
    44   22   23 1    
    45   22   25 1    
    46   23   24 1    
    47   23   53 1    
    48   23   54 1    
    49   24   55 1    
    50   24   56 1    
    51   25   26 1    
    52   25   57 1    
    53   25   58 1    
    54   26   31 ar   
    55   26   27 ar   
    56   27   28 ar   
    57   27   59 1    
    58   28   29 ar   
    59   28   60 1    
    60   29   34 1    
    61   29   30 ar   
    62   30   31 ar   
    63   30   32 1    
    64   31   61 1    
    65   32   33 1    
    66   33   34 1    
    67   33   62 1    
    68   33   63 1    
@<TRIPOS>SUBSTRUCTURE
     1 UNK         1 GROUP             0       ****    0 ROOT    
