@<TRIPOS>MOLECULE
ZINC20108285_3379
60   64    1
SMALL
USER_CHARGES


@<TRIPOS>ATOM
      1 C1          8.4322   56.6892   17.2516 C.3       1 UNK         0.0000 
      2 O2          8.7001   56.4904   18.6349 O.3       1 UNK         0.0000 
      3 C3          7.7124   55.9648   19.4432 C.ar      1 UNK         0.0000 
      4 C4          8.0377   55.7903   20.7842 C.ar      1 UNK         0.0000 
      5 C5          7.1045   55.2968   21.6874 C.ar      1 UNK         0.0000 
      6 C6          5.8300   54.8961   21.2532 C.ar      1 UNK         0.0000 
      7 C7          5.5045   55.0885   19.9015 C.ar      1 UNK         0.0000 
      8 C8          6.4283   55.6177   19.0059 C.ar      1 UNK         0.0000 
      9 C9          4.8015   54.2528   22.1874 C.3       1 UNK         0.0000 
     10 H10         3.9515   54.9354   22.2538 H         1 UNK         0.0000 
     11 C11         4.3010   52.8914   21.6281 C.2       1 UNK         0.0000 
     12 O12         5.0526   51.9152   21.6817 O.2       1 UNK         0.0000 
     13 N13         3.1053   52.9175   21.0007 N.am      1 UNK         0.0000 
     14 C14         2.4868   51.8822   20.2820 C.ar      1 UNK         0.0000 
     15 C15         1.7103   52.2607   19.1807 C.ar      1 UNK         0.0000 
     16 C16         1.0262   51.3097   18.4261 C.ar      1 UNK         0.0000 
     17 C17         1.1044   49.9671   18.7799 C.ar      1 UNK         0.0000 
     18 C18         1.8874   49.5709   19.8777 C.ar      1 UNK         0.0000 
     19 C19         2.5708   50.5250   20.6357 C.ar      1 UNK         0.0000 
     20 O20         1.9505   48.2520   20.2816 O.3       1 UNK         0.0000 
     21 C21         1.6066   47.3239   19.2474 C.3       1 UNK         0.0000 
     22 C22         0.2955   47.7609   18.5544 C.3       1 UNK         0.0000 
     23 O23         0.4393   49.0614   17.9769 O.3       1 UNK         0.0000 
     24 N24         5.3414   54.0968   23.5557 N.am      1 UNK         0.0000 
     25 C25         4.6721   54.0967   24.7252 C.2       1 UNK         0.0000 
     26 O26         3.4586   54.2746   24.7991 O.2       1 UNK         0.0000 
     27 C27         5.5570   53.8586   25.8513 C.2       1 UNK         0.0000 
     28 C28         5.2567   53.6686   27.1613 C.2       1 UNK         0.0000 
     29 C29         3.9952   53.7042   27.9390 C.ar      1 UNK         0.0000 
     30 C30         2.9872   54.6603   27.7084 C.ar      1 UNK         0.0000 
     31 C31         1.8388   54.7256   28.5095 C.ar      1 UNK         0.0000 
     32 C32         1.7184   53.7974   29.5355 C.ar      1 UNK         0.0000 
     33 C33         2.6813   52.8576   29.7693 C.ar      1 UNK         0.0000 
     34 C34         3.8379   52.7883   28.9974 C.ar      1 UNK         0.0000 
     35 O35         2.3243   52.1108   30.8492 O.3       1 UNK         0.0000 
     36 C36         0.9895   52.4622   31.1177 C.3       1 UNK         0.0000 
     37 O37         0.7357   53.6788   30.4671 O.3       1 UNK         0.0000 
     38 H38         9.3188   57.0998   16.7690 H         1 UNK         0.0000 
     39 H39         8.1907   55.7502   16.7510 H         1 UNK         0.0000 
     40 H40         7.6160   57.3973   17.1003 H         1 UNK         0.0000 
     41 H41         9.0244   56.0634   21.1308 H         1 UNK         0.0000 
     42 H42         7.4168   55.1962   22.7162 H         1 UNK         0.0000 
     43 H43         4.5283   54.8145   19.5281 H         1 UNK         0.0000 
     44 H44         6.1331   55.7410   17.9754 H         1 UNK         0.0000 
     45 H45         2.6373   53.8120   20.9335 H         1 UNK         0.0000 
     46 H46         1.6388   53.2970   18.8900 H         1 UNK         0.0000 
     47 H47         0.4446   51.6107   17.5676 H         1 UNK         0.0000 
     48 H48         3.1440   50.2066   21.4935 H         1 UNK         0.0000 
     49 H49         1.5048   46.3261   19.6699 H         1 UNK         0.0000 
     50 H50         2.4087   47.2967   18.5059 H         1 UNK         0.0000 
     51 H51        -0.5096   47.7830   19.2908 H         1 UNK         0.0000 
     52 H52         0.0170   47.0509   17.7756 H         1 UNK         0.0000 
     53 H53         6.2823   53.7366   23.5748 H         1 UNK         0.0000 
     54 H54         6.6048   53.7929   25.5926 H         1 UNK         0.0000 
     55 H55         6.1174   53.4697   27.7853 H         1 UNK         0.0000 
     56 H56         3.1058   55.3852   26.9213 H         1 UNK         0.0000 
     57 H57         1.0861   55.4791   28.3329 H         1 UNK         0.0000 
     58 H58         4.6011   52.0537   29.2092 H         1 UNK         0.0000 
     59 H59         0.3198   51.6999   30.7104 H         1 UNK         0.0000 
     60 H60         0.8001   52.5366   32.1907 H         1 UNK         0.0000 
@<TRIPOS>BOND
     1    1    2 1    
     2    1   38 1    
     3    1   39 1    
     4    1   40 1    
     5    2    3 1    
     6    3    8 ar   
     7    3    4 ar   
     8    4    5 ar   
     9    4   41 1    
    10    5    6 ar   
    11    5   42 1    
    12    6    7 ar   
    13    6    9 1    
    14    7    8 ar   
    15    7   43 1    
    16    8   44 1    
    17    9   10 1    
    18    9   11 1    
    19    9   24 1    
    20   11   12 2    
    21   11   13 am   BACKBONE|DICT|INTERRES
    22   13   14 1    
    23   13   45 1    
    24   14   19 ar   
    25   14   15 ar   
    26   15   16 ar   
    27   15   46 1    
    28   16   17 ar   
    29   16   47 1    
    30   17   23 1    
    31   17   18 ar   
    32   18   19 ar   
    33   18   20 1    
    34   19   48 1    
    35   20   21 1    
    36   21   22 1    
    37   21   49 1    
    38   21   50 1    
    39   22   23 1    
    40   22   51 1    
    41   22   52 1    
    42   24   25 am   BACKBONE|DICT|INTERRES
    43   24   53 1    
    44   25   26 2    
    45   25   27 1    
    46   27   28 2    
    47   27   54 1    
    48   28   29 1    
    49   28   55 1    
    50   29   34 ar   
    51   29   30 ar   
    52   30   31 ar   
    53   30   56 1    
    54   31   32 ar   
    55   31   57 1    
    56   32   37 1    
    57   32   33 ar   
    58   33   34 ar   
    59   33   35 1    
    60   34   58 1    
    61   35   36 1    
    62   36   37 1    
    63   36   59 1    
    64   36   60 1    
@<TRIPOS>SUBSTRUCTURE
     1 UNK         1 GROUP             0       ****    0 ROOT    
