@<TRIPOS>MOLECULE
ZINC00987200_2419
46   49    1
SMALL
USER_CHARGES


@<TRIPOS>ATOM
      1 C1          1.4381   49.2941   21.1920 C.3       1 UNK         0.0000 
      2 O2          2.0383   49.3000   22.4802 O.3       1 UNK         0.0000 
      3 C3          1.3556   50.0149   23.4360 C.ar      1 UNK         0.0000 
      4 C4          0.6970   49.3133   24.4498 C.ar      1 UNK         0.0000 
      5 C5          0.0201   49.9941   25.4591 C.ar      1 UNK         0.0000 
      6 C6         -0.0368   51.3900   25.4447 C.ar      1 UNK         0.0000 
      7 C7          0.6252   52.0909   24.4282 C.ar      1 UNK         0.0000 
      8 C8          1.3573   51.4182   23.4369 C.ar      1 UNK         0.0000 
      9 O9          2.0763   52.0640   22.4487 O.3       1 UNK         0.0000 
     10 C10         2.2275   53.4780   22.4922 C.3       1 UNK         0.0000 
     11 C11        -0.8779   52.1387   26.4808 C.3       1 UNK         0.0000 
     12 H12        -0.9354   53.1644   26.1361 H         1 UNK         0.0000 
     13 C13        -0.3391   52.1327   27.9260 C.ar      1 UNK         0.0000 
     14 C14         0.8733   52.4520   28.6152 C.ar      1 UNK         0.0000 
     15 N15         0.7477   52.2338   29.9189 N.2       1 UNK         0.0000 
     16 N16        -0.4956   51.7943   30.1140 N.pl3     1 UNK         0.0000 
     17 H17        -0.8685   51.5635   31.0303 H         1 UNK         0.0000 
     18 C18        -1.1650   51.6963   28.9426 C.ar      1 UNK         0.0000 
     19 O19        -2.4683   51.2824   28.8774 O.3       1 UNK         0.0000 
     20 C20        -2.9897   51.2970   27.6235 C.2       1 UNK         0.0000 
     21 C21        -2.3515   51.6809   26.4906 C.2       1 UNK         0.0000 
     22 C22        -3.0553   51.6941   25.2474 C.1       1 UNK         0.0000 
     23 N23        -3.6296   51.7418   24.2439 N.1       1 UNK         0.0000 
     24 N24        -4.2799   50.8562   27.7236 N.pl3     1 UNK         0.0000 
     25 C25         2.1907   52.9678   28.0949 C.ar      1 UNK         0.0000 
     26 C26         2.2600   53.6442   26.8731 C.ar      1 UNK         0.0000 
     27 C27         3.4759   54.1201   26.3864 C.ar      1 UNK         0.0000 
     28 C28         4.6378   53.9386   27.1316 C.ar      1 UNK         0.0000 
     29 C29         4.5870   53.2963   28.3636 C.ar      1 UNK         0.0000 
     30 C30         3.3710   52.8113   28.8399 C.ar      1 UNK         0.0000 
     31 Br31        6.3023   54.5851   26.4695 Br        1 UNK         0.0000 
     32 H32         2.0125   48.6476   20.5296 H         1 UNK         0.0000 
     33 H33         1.4179   50.2902   20.7456 H         1 UNK         0.0000 
     34 H34         0.4168   48.9118   21.2310 H         1 UNK         0.0000 
     35 H35         0.7074   48.2330   24.4618 H         1 UNK         0.0000 
     36 H36        -0.4883   49.4350   26.2349 H         1 UNK         0.0000 
     37 H37         0.5641   53.1664   24.4105 H         1 UNK         0.0000 
     38 H38         2.8342   53.7984   21.6446 H         1 UNK         0.0000 
     39 H39         1.2726   53.9976   22.4289 H         1 UNK         0.0000 
     40 H40         2.7409   53.7926   23.4015 H         1 UNK         0.0000 
     41 H41        -4.8505   50.7864   26.8958 H         1 UNK         0.0000 
     42 H42        -4.5260   50.2524   28.4936 H         1 UNK         0.0000 
     43 H43         1.3663   53.8211   26.3056 H         1 UNK         0.0000 
     44 H44         3.5139   54.6344   25.4378 H         1 UNK         0.0000 
     45 H45         5.4918   53.1612   28.9363 H         1 UNK         0.0000 
     46 H46         3.3565   52.3028   29.7918 H         1 UNK         0.0000 
@<TRIPOS>BOND
     1    1    2 1    
     2    1   32 1    
     3    1   33 1    
     4    1   34 1    
     5    2    3 1    
     6    3    8 ar   
     7    3    4 ar   
     8    4    5 ar   
     9    4   35 1    
    10    5    6 ar   
    11    5   36 1    
    12    6    7 ar   
    13    6   11 1    
    14    7    8 ar   
    15    7   37 1    
    16    8    9 1    
    17    9   10 1    
    18   10   38 1    
    19   10   39 1    
    20   10   40 1    
    21   11   12 1    
    22   11   21 1    
    23   11   13 1    
    24   13   18 ar   
    25   13   14 ar   
    26   14   15 ar   
    27   14   25 1    
    28   15   16 ar   
    29   16   17 1    
    30   16   18 ar   
    31   18   19 1    
    32   19   20 1    
    33   20   21 2    
    34   20   24 1    
    35   21   22 1    
    36   22   23 3    
    37   24   41 1    
    38   24   42 1    
    39   25   30 ar   
    40   25   26 ar   
    41   26   27 ar   
    42   26   43 1    
    43   27   28 ar   
    44   27   44 1    
    45   28   29 ar   
    46   28   31 1    
    47   29   30 ar   
    48   29   45 1    
    49   30   46 1    
@<TRIPOS>SUBSTRUCTURE
     1 UNK         1 GROUP             0       ****    0 ROOT    
