@<TRIPOS>MOLECULE
ZINC38682321_946
60   63    1
SMALL
USER_CHARGES


@<TRIPOS>ATOM
      1 C1          0.7536   53.2950   24.6934 C.3       1 UNK         0.0000 
      2 O2          1.5044   53.5065   25.8860 O.3       1 UNK         0.0000 
      3 C3          2.8615   53.7670   25.8017 C.ar      1 UNK         0.0000 
      4 C4          3.5444   53.9115   24.5857 C.ar      1 UNK         0.0000 
      5 C5          4.9332   54.0963   24.5520 C.ar      1 UNK         0.0000 
      6 C6          5.6306   54.1565   25.7634 C.ar      1 UNK         0.0000 
      7 C7          4.9713   54.0451   26.9937 C.ar      1 UNK         0.0000 
      8 C8          3.5798   53.8730   27.0026 C.ar      1 UNK         0.0000 
      9 O9          2.9211   53.7531   28.2031 O.3       1 UNK         0.0000 
     10 C10         2.4594   54.9877   28.7344 C.3       1 UNK         0.0000 
     11 O11         5.6247   54.0745   28.2128 O.3       1 UNK         0.0000 
     12 C12         7.0493   54.0480   28.2424 C.3       1 UNK         0.0000 
     13 C13         5.7030   54.1545   23.2695 C.2       1 UNK         0.0000 
     14 O14         6.9360   54.0960   23.2370 O.2       1 UNK         0.0000 
     15 O15         4.9049   54.3145   22.1603 O.3       1 UNK         0.0000 
     16 C16         5.4788   54.4918   20.9183 C.ar      1 UNK         0.0000 
     17 C17         5.2138   53.5745   19.8995 C.ar      1 UNK         0.0000 
     18 C18         5.8406   53.7000   18.6582 C.ar      1 UNK         0.0000 
     19 C19         6.7234   54.7597   18.3908 C.ar      1 UNK         0.0000 
     20 C20         6.9480   55.6942   19.4203 C.ar      1 UNK         0.0000 
     21 C21         6.3290   55.5714   20.6593 C.ar      1 UNK         0.0000 
     22 O22         7.8120   56.7623   19.2855 O.3       1 UNK         0.0000 
     23 C23         8.6291   56.8046   18.2084 C.2       1 UNK         0.0000 
     24 C24         8.5438   55.9873   17.1419 C.2       1 UNK         0.0000 
     25 C25         7.4398   54.9282   17.0377 C.3       1 UNK         0.0000 
     26 H26         6.7052   55.3476   16.3479 H         1 UNK         0.0000 
     27 C27         7.9220   53.6110   16.4197 C.ar      1 UNK         0.0000 
     28 C28         8.9732   52.8990   17.0115 C.ar      1 UNK         0.0000 
     29 C29         9.4607   51.7397   16.4132 C.ar      1 UNK         0.0000 
     30 C30         8.8997   51.2946   15.2142 C.ar      1 UNK         0.0000 
     31 C31         7.8386   51.9864   14.6326 C.ar      1 UNK         0.0000 
     32 C32         7.3501   53.1425   15.2337 C.ar      1 UNK         0.0000 
     33 S33         9.5044   49.8485   14.3864 S.3       1 UNK         0.0000 
     34 C34        11.0353   49.3068   15.1907 C.3       1 UNK         0.0000 
     35 C35         9.4681   56.1285   16.0595 C.1       1 UNK         0.0000 
     36 N36        10.2243   56.2727   15.1948 N.1       1 UNK         0.0000 
     37 N37         9.5583   57.7859   18.4217 N.pl3     1 UNK         0.0000 
     38 H38        -0.2734   53.0370   24.9520 H         1 UNK         0.0000 
     39 H39         0.7236   54.1931   24.0743 H         1 UNK         0.0000 
     40 H40         1.1607   52.4667   24.1113 H         1 UNK         0.0000 
     41 H41         3.0002   53.8379   23.6557 H         1 UNK         0.0000 
     42 H42         6.7034   54.2716   25.7373 H         1 UNK         0.0000 
     43 H43         1.9811   54.8099   29.6975 H         1 UNK         0.0000 
     44 H44         3.2785   55.6906   28.8981 H         1 UNK         0.0000 
     45 H45         1.7175   55.4530   28.0829 H         1 UNK         0.0000 
     46 H46         7.3888   54.0962   29.2772 H         1 UNK         0.0000 
     47 H47         7.4363   53.1227   27.8119 H         1 UNK         0.0000 
     48 H48         7.4849   54.8960   27.7082 H         1 UNK         0.0000 
     49 H49         4.5481   52.7407   20.0772 H         1 UNK         0.0000 
     50 H50         5.6385   52.9554   17.8994 H         1 UNK         0.0000 
     51 H51         6.5396   56.2904   21.4368 H         1 UNK         0.0000 
     52 H52         9.4231   53.2502   17.9299 H         1 UNK         0.0000 
     53 H53        10.2726   51.2101   16.8902 H         1 UNK         0.0000 
     54 H54         7.4013   51.6341   13.7098 H         1 UNK         0.0000 
     55 H55         6.5386   53.6784   14.7642 H         1 UNK         0.0000 
     56 H56        11.4839   48.4970   14.6130 H         1 UNK         0.0000 
     57 H57        10.8392   48.9454   16.2015 H         1 UNK         0.0000 
     58 H58        11.7534   50.1263   15.2369 H         1 UNK         0.0000 
     59 H59        10.2284   58.0024   17.6984 H         1 UNK         0.0000 
     60 H60         9.7843   58.0644   19.3653 H         1 UNK         0.0000 
@<TRIPOS>BOND
     1    1    2 1    
     2    1   38 1    
     3    1   39 1    
     4    1   40 1    
     5    2    3 1    
     6    3    8 ar   
     7    3    4 ar   
     8    4    5 ar   
     9    4   41 1    
    10    5    6 ar   
    11    5   13 1    
    12    6    7 ar   
    13    6   42 1    
    14    7    8 ar   
    15    7   11 1    
    16    8    9 1    
    17    9   10 1    
    18   10   43 1    
    19   10   44 1    
    20   10   45 1    
    21   11   12 1    
    22   12   46 1    
    23   12   47 1    
    24   12   48 1    
    25   13   14 2    
    26   13   15 1    
    27   15   16 1    
    28   16   21 ar   
    29   16   17 ar   
    30   17   18 ar   
    31   17   49 1    
    32   18   19 ar   
    33   18   50 1    
    34   19   25 1    
    35   19   20 ar   
    36   20   21 ar   
    37   20   22 1    
    38   21   51 1    
    39   22   23 1    
    40   23   24 2    
    41   23   37 1    
    42   24   25 1    
    43   24   35 1    
    44   25   26 1    
    45   25   27 1    
    46   27   32 ar   
    47   27   28 ar   
    48   28   29 ar   
    49   28   52 1    
    50   29   30 ar   
    51   29   53 1    
    52   30   31 ar   
    53   30   33 1    
    54   31   32 ar   
    55   31   54 1    
    56   32   55 1    
    57   33   34 1    
    58   34   56 1    
    59   34   57 1    
    60   34   58 1    
    61   35   36 3    
    62   37   59 1    
    63   37   60 1    
@<TRIPOS>SUBSTRUCTURE
     1 UNK         1 GROUP             0       ****    0 ROOT    
