ZINC19800814_3925
                    3D
 Schrodinger Suite 2024-2.
 38 39  0  0  1  0            999 V2000
    0.6567   51.7733   24.5395 C   0  0  0  0  0  0
    1.6491   52.9387   24.6778 C   0  0  0  0  0  0
    2.4607   53.3526   23.7821 N   0  0  0  0  0  0
    2.5330   52.6594   22.6257 N   0  0  0  0  0  0
    3.4776   52.8312   21.6722 C   0  0  0  0  0  0
    3.3725   52.2023   20.6205 O   0  0  0  0  0  0
    4.6790   53.7536   21.8829 C   0  0  0  0  0  0
    5.2852   53.8463   23.1488 C   0  0  0  0  0  0
    6.3919   54.6534   23.3726 C   0  0  0  0  0  0
    6.9537   55.3610   22.3186 C   0  0  0  0  0  0
    6.3853   55.2967   21.0498 C   0  0  0  0  0  0
    5.2522   54.4967   20.8206 C   0  0  0  0  0  0
    4.7158   54.4693   19.5294 N   0  0  0  0  0  0
    7.1897   56.3350   19.6635 Br  0  0  0  0  0  0
    7.1043   54.8070   25.1305 Br  0  0  0  0  0  0
    1.7318   53.6213   25.9426 C   0  0  0  0  0  0
    1.1045   53.2966   27.0959 C   0  0  0  0  0  0
    1.1624   54.0752   28.3568 C   0  0  0  0  0  0
    0.3891   53.6550   29.4448 C   0  0  0  0  0  0
    0.3650   54.4004   30.6216 C   0  0  0  0  0  0
    1.1043   55.5791   30.7051 C   0  0  0  0  0  0
    1.8989   55.9958   29.6460 C   0  0  0  0  0  0
    1.9336   55.2410   28.4817 C   0  0  0  0  0  0
   -0.2756   51.9726   25.0686 H   0  0  0  0  0  0
    0.3718   51.5839   23.5044 H   0  0  0  0  0  0
    1.0821   50.8524   24.9398 H   0  0  0  0  0  0
    1.8132   51.9658   22.4916 H   0  0  0  0  0  0
    4.9134   53.2967   23.9987 H   0  0  0  0  0  0
    7.8245   55.9779   22.4903 H   0  0  0  0  0  0
    5.3116   54.8025   18.7860 H   0  0  0  0  0  0
    4.0839   53.6992   19.3430 H   0  0  0  0  0  0
    2.3612   54.4967   25.9077 H   0  0  0  0  0  0
    0.4901   52.4075   27.1328 H   0  0  0  0  0  0
   -0.2039   52.7531   29.3830 H   0  0  0  0  0  0
   -0.2216   54.0640   31.4647 H   0  0  0  0  0  0
    1.1039   56.1589   31.6175 H   0  0  0  0  0  0
    2.4880   56.8969   29.7254 H   0  0  0  0  0  0
    2.5615   55.5947   27.6816 H   0  0  0  0  0  0
  1  2  1  0  0  0
  1 24  1  0  0  0
  1 25  1  0  0  0
  1 26  1  0  0  0
  2  3  2  0  0  0
  2 16  1  0  0  0
  3  4  1  0  0  0
  4  5  1  0  0  0
  4 27  1  0  0  0
  5  6  2  0  0  0
  5  7  1  0  0  0
  7 12  2  0  0  0
  7  8  1  0  0  0
  8  9  2  0  0  0
  8 28  1  0  0  0
  9 10  1  0  0  0
  9 15  1  0  0  0
 10 11  2  0  0  0
 10 29  1  0  0  0
 11 12  1  0  0  0
 11 14  1  0  0  0
 12 13  1  0  0  0
 13 30  1  0  0  0
 13 31  1  0  0  0
 16 17  2  0  0  0
 16 32  1  0  0  0
 17 18  1  0  0  0
 17 33  1  0  0  0
 18 23  2  0  0  0
 18 19  1  0  0  0
 19 20  2  0  0  0
 19 34  1  0  0  0
 20 21  1  0  0  0
 20 35  1  0  0  0
 21 22  2  0  0  0
 21 36  1  0  0  0
 22 23  1  0  0  0
 22 37  1  0  0  0
 23 38  1  0  0  0
M  END
> <i_i_glide_confnum>
11

> <i_i_glide_lignum>
3926

> <i_i_glide_posenum>
170

> <i_i_glide_rotatable_bonds>
5

> <i_m_Source_File_Index>
4146

> <b_m_subgroup_collapsed>
0

> <r_i_docking_score>
-5.59853

> <r_i_glide_ecoul>
-2.11566

> <r_i_glide_eff_state_penalty>
0

> <r_i_glide_einternal>
6.38038

> <r_i_glide_emodel>
-52.0581

> <r_i_glide_energy>
-40.7893

> <r_i_glide_erotb>
0.417387

> <r_i_glide_esite>
0

> <r_i_glide_evdw>
-38.6737

> <r_i_glide_gscore>
-5.59853

> <r_i_glide_hbond>
0

> <r_i_glide_ligand_efficiency>
-0.243414

> <r_i_glide_ligand_efficiency_ln>
-1.35377

> <r_i_glide_ligand_efficiency_sa>
-0.692238

> <r_i_glide_lipo>
-2.95073

> <r_i_glide_metal>
0

> <r_i_glide_rewards>
-0.814148

> <s_i_glide_gridfile>
wee1_glide-grid

> <s_m_Source_File>
wee1_decoys_glide_SP.sdf

> <s_m_Source_Path>
/Users/zhangxujun/Desktop

> <s_m_entry_id>
4421

> <s_m_entry_name>
wee1_decoys_glide_SP.4146

> <s_m_subgroup_title>
wee1_decoys_glide_SP

> <s_m_subgroupid>
wee1_decoys_glide_SP


$$$$
