@<TRIPOS>MOLECULE
ZINC25447193_3222
58   61    1
SMALL
USER_CHARGES


@<TRIPOS>ATOM
      1 C1          6.4140   53.3430   17.1709 C.3       1 UNK         0.0000 
      2 C2          6.5337   54.8616   17.4542 C.3       1 UNK         0.0000 
      3 C3          7.6950   55.4251   16.5969 C.3       1 UNK         0.0000 
      4 C4          5.2247   55.5678   17.0225 C.3       1 UNK         0.0000 
      5 C5          6.7982   55.0991   18.9518 C.2       1 UNK         0.0000 
      6 C6          7.9086   55.6989   19.5573 C.2       1 UNK         0.0000 
      7 S7          7.7244   55.6966   21.2804 S.3       1 UNK         0.0000 
      8 C8          6.1973   54.8967   21.0584 C.2       1 UNK         0.0000 
      9 N9          5.8732   54.6855   19.8069 N.2       1 UNK         0.0000 
     10 N10         5.3514   54.4966   22.0814 N.am      1 UNK         0.0000 
     11 C11         5.5819   54.4965   23.4156 C.2       1 UNK         0.0000 
     12 O12         6.6709   54.7397   23.9394 O.2       1 UNK         0.0000 
     13 C13         4.3797   54.1541   24.2756 C.ar      1 UNK         0.0000 
     14 C14         4.5269   54.0064   25.6644 C.ar      1 UNK         0.0000 
     15 C15         3.4308   53.6994   26.4700 C.ar      1 UNK         0.0000 
     16 C16         2.1675   53.5412   25.9024 C.ar      1 UNK         0.0000 
     17 C17         1.9925   53.7180   24.5303 C.ar      1 UNK         0.0000 
     18 C18         3.0904   54.0247   23.7269 C.ar      1 UNK         0.0000 
     19 N19         0.7241   53.7044   23.9478 N.pl3     1 UNK         0.0000 
     20 S20        -0.3455   52.3069   24.0000 S.o2      1 UNK         0.0000 
     21 O21        -0.2317   51.6997   25.3294 O.2       1 UNK         0.0000 
     22 O22        -1.6375   52.7702   23.4815 O.2       1 UNK         0.0000 
     23 C23         0.3368   51.1790   22.7932 C.ar      1 UNK         0.0000 
     24 C24         1.2191   50.1766   23.1898 C.ar      1 UNK         0.0000 
     25 C25         1.7267   49.2966   22.2392 C.ar      1 UNK         0.0000 
     26 C26         1.3556   49.3804   20.9011 C.ar      1 UNK         0.0000 
     27 C27         0.4940   50.4247   20.4838 C.ar      1 UNK         0.0000 
     28 C28        -0.0051   51.3083   21.4444 C.ar      1 UNK         0.0000 
     29 O29         0.0530   50.5964   19.1850 O.3       1 UNK         0.0000 
     30 C30        -0.0954   49.4480   18.3556 C.3       1 UNK         0.0000 
     31 C31         1.2302   48.9506   17.7672 C.3       1 UNK         0.0000 
     32 C32         2.3623   48.8821   18.7987 C.3       1 UNK         0.0000 
     33 O33         1.9045   48.4361   20.0636 O.3       1 UNK         0.0000 
     34 H34         6.2727   53.1393   16.1084 H         1 UNK         0.0000 
     35 H35         5.5703   52.8976   17.7001 H         1 UNK         0.0000 
     36 H36         7.3069   52.8033   17.4919 H         1 UNK         0.0000 
     37 H37         7.8178   56.4984   16.7459 H         1 UNK         0.0000 
     38 H38         8.6452   54.9531   16.8526 H         1 UNK         0.0000 
     39 H39         7.5268   55.2605   15.5309 H         1 UNK         0.0000 
     40 H40         5.2686   56.6399   17.2189 H         1 UNK         0.0000 
     41 H41         5.0274   55.4362   15.9572 H         1 UNK         0.0000 
     42 H42         4.3591   55.1803   17.5615 H         1 UNK         0.0000 
     43 H43         8.7941   56.1119   19.0958 H         1 UNK         0.0000 
     44 H44         4.4724   54.1074   21.7820 H         1 UNK         0.0000 
     45 H45         5.4981   54.1139   26.1303 H         1 UNK         0.0000 
     46 H46         3.5617   53.5776   27.5345 H         1 UNK         0.0000 
     47 H47         1.3201   53.3214   26.5371 H         1 UNK         0.0000 
     48 H48         2.9132   54.1801   22.6710 H         1 UNK         0.0000 
     49 H49         0.6112   54.2711   23.1219 H         1 UNK         0.0000 
     50 H50         1.5012   50.0658   24.2289 H         1 UNK         0.0000 
     51 H51         2.4098   48.5147   22.5252 H         1 UNK         0.0000 
     52 H52        -0.6825   52.0922   21.1334 H         1 UNK         0.0000 
     53 H53        -0.7779   49.7068   17.5451 H         1 UNK         0.0000 
     54 H54        -0.6025   48.6547   18.9089 H         1 UNK         0.0000 
     55 H55         1.5476   49.5969   16.9486 H         1 UNK         0.0000 
     56 H56         1.0774   47.9636   17.3317 H         1 UNK         0.0000 
     57 H57         2.8898   49.8350   18.8857 H         1 UNK         0.0000 
     58 H58         3.1226   48.1692   18.4781 H         1 UNK         0.0000 
@<TRIPOS>BOND
     1    1    2 1    
     2    1   34 1    
     3    1   35 1    
     4    1   36 1    
     5    2    3 1    
     6    2    4 1    
     7    2    5 1    
     8    3   37 1    
     9    3   38 1    
    10    3   39 1    
    11    4   40 1    
    12    4   41 1    
    13    4   42 1    
    14    5    9 1    
    15    5    6 2    
    16    6    7 1    
    17    6   43 1    
    18    7    8 1    
    19    8    9 2    
    20    8   10 am   BACKBONE|DICT|INTERRES
    21   10   11 am   BACKBONE|DICT|INTERRES
    22   10   44 1    
    23   11   12 2    
    24   11   13 1    
    25   13   18 ar   
    26   13   14 ar   
    27   14   15 ar   
    28   14   45 1    
    29   15   16 ar   
    30   15   46 1    
    31   16   17 ar   
    32   16   47 1    
    33   17   18 ar   
    34   17   19 1    
    35   18   48 1    
    36   19   20 1    
    37   19   49 1    
    38   20   21 2    
    39   20   22 2    
    40   20   23 1    
    41   23   28 ar   
    42   23   24 ar   
    43   24   25 ar   
    44   24   50 1    
    45   25   26 ar   
    46   25   51 1    
    47   26   33 1    
    48   26   27 ar   
    49   27   28 ar   
    50   27   29 1    
    51   28   52 1    
    52   29   30 1    
    53   30   31 1    
    54   30   53 1    
    55   30   54 1    
    56   31   32 1    
    57   31   55 1    
    58   31   56 1    
    59   32   33 1    
    60   32   57 1    
    61   32   58 1    
@<TRIPOS>SUBSTRUCTURE
     1 UNK         1 GROUP             0       ****    0 ROOT    
