ZINC13657884_4294
                    3D
 Schrodinger Suite 2024-2.
 36 37  0  0  1  0            999 V2000
    4.2072   54.0936   26.3778 C   0  0  0  0  0  0
    3.0967   53.7370   25.5967 C   0  0  0  0  0  0
    3.2220   53.7746   24.2020 C   0  0  0  0  0  0
    4.4261   54.1423   23.6013 C   0  0  0  0  0  0
    5.5232   54.4957   24.3929 C   0  0  0  0  0  0
    5.4119   54.4659   25.7851 C   0  0  0  0  0  0
    6.8919   54.8981   26.9049 Br  0  0  0  0  0  0
    6.7014   54.8695   23.8045 O   0  0  0  0  0  0
    4.5405   54.1767   21.6978 Br  0  0  0  0  0  0
    1.8280   53.3146   26.1963 C   0  0  0  0  0  0
    1.6435   53.2225   27.4480 N   0  0  0  0  0  0
    0.3957   52.7915   27.7978 N   0  3  0  0  0  0
   -0.0069   52.4950   29.0464 C   0  0  0  0  0  0
   -1.0477   51.6970   29.2891 N   0  0  0  0  0  0
   -2.1534   51.2953   28.3956 C   0  0  0  0  0  0
   -1.7693   50.8983   26.9562 C   0  0  1  0  0  0
   -0.8294   50.3412   26.9755 H   0  0  0  0  0  0
   -2.8510   50.1186   26.2154 C   0  0  0  0  0  0
   -2.5952   50.4214   24.7543 C   0  0  0  0  0  0
   -1.8069   51.7333   24.7735 C   0  0  0  0  0  0
   -1.6596   52.0720   26.1525 O   0  0  0  0  0  0
    0.7052   53.2094   30.4813 S   0  5  0  0  0  0
    4.1509   54.0686   27.4573 H   0  0  0  0  0  0
    2.3878   53.5070   23.5675 H   0  0  0  0  0  0
    6.6599   54.8398   22.8460 H   0  0  0  0  0  0
    1.0463   53.0753   25.4762 H   0  0  0  0  0  0
   -1.1837   51.4787   30.2680 H   0  0  0  0  0  0
   -2.5976   50.4343   28.8959 H   0  0  0  0  0  0
   -2.9072   52.0798   28.3956 H   0  0  0  0  0  0
   -2.8431   49.0591   26.4781 H   0  0  0  0  0  0
   -3.8365   50.4747   26.5198 H   0  0  0  0  0  0
   -1.9997   49.6279   24.3005 H   0  0  0  0  0  0
   -3.5243   50.5039   24.1891 H   0  0  0  0  0  0
   -0.8223   51.6111   24.3169 H   0  0  0  0  0  0
   -2.3298   52.5358   24.2500 H   0  0  0  0  0  0
   -0.1906   52.4613   27.0392 H   0  0  0  0  0  0
  1  6  2  0  0  0
  1  2  1  0  0  0
  1 23  1  0  0  0
  2  3  2  0  0  0
  2 10  1  0  0  0
  3  4  1  0  0  0
  3 24  1  0  0  0
  4  5  2  0  0  0
  4  9  1  0  0  0
  5  6  1  0  0  0
  5  8  1  0  0  0
  6  7  1  0  0  0
  8 25  1  0  0  0
 10 11  2  0  0  0
 10 26  1  0  0  0
 11 12  1  0  0  0
 12 13  2  0  0  0
 12 36  1  0  0  0
 13 14  1  0  0  0
 13 22  1  0  0  0
 14 15  1  0  0  0
 14 27  1  0  0  0
 15 16  1  0  0  0
 15 28  1  0  0  0
 15 29  1  0  0  0
 16 17  1  0  0  0
 16 21  1  0  0  0
 16 18  1  0  0  0
 18 19  1  0  0  0
 18 30  1  0  0  0
 18 31  1  0  0  0
 19 20  1  0  0  0
 19 32  1  0  0  0
 19 33  1  0  0  0
 20 21  1  0  0  0
 20 34  1  0  0  0
 20 35  1  0  0  0
M  CHG  2  12   1  22  -1
M  END
> <i_i_glide_confnum>
40

> <i_i_glide_lignum>
4295

> <i_i_glide_posenum>
50

> <i_i_glide_rotatable_bonds>
6

> <i_m_Source_File_Index>
4258

> <b_m_subgroup_collapsed>
0

> <r_i_docking_score>
-3.88249

> <r_i_glide_ecoul>
-2.58787

> <r_i_glide_eff_state_penalty>
0

> <r_i_glide_einternal>
3.20139

> <r_i_glide_emodel>
-38.5876

> <r_i_glide_energy>
-30.3625

> <r_i_glide_erotb>
0.417348

> <r_i_glide_esite>
-0.0660658

> <r_i_glide_evdw>
-27.7746

> <r_i_glide_gscore>
-3.88249

> <r_i_glide_hbond>
0

> <r_i_glide_ligand_efficiency>
-0.184881

> <r_i_glide_ligand_efficiency_ln>
-0.959938

> <r_i_glide_ligand_efficiency_sa>
-0.510072

> <r_i_glide_lipo>
-1.69411

> <r_i_glide_metal>
0

> <r_i_glide_rewards>
-0.76275

> <s_i_glide_gridfile>
wee1_glide-grid

> <s_m_Source_File>
wee1_decoys_glide_SP.sdf

> <s_m_Source_Path>
/Users/zhangxujun/Desktop

> <s_m_entry_id>
4533

> <s_m_entry_name>
wee1_decoys_glide_SP.4258

> <s_m_subgroup_title>
wee1_decoys_glide_SP

> <s_m_subgroupid>
wee1_decoys_glide_SP


$$$$
