@<TRIPOS>MOLECULE
ZINC62329337_6177
34   36    1
SMALL
USER_CHARGES


@<TRIPOS>ATOM
      1 C1          6.1338   54.7804   19.1780 C.3       1 UNK         0.0000 
      2 C2          5.5651   54.5838   20.5684 C.ar      1 UNK         0.0000 
      3 N3          4.3074   54.0926   20.6426 N.ar      1 UNK         0.0000 
      4 C4          3.8104   53.9244   21.8931 C.ar      1 UNK         0.0000 
      5 C5          4.5304   54.2132   23.0657 C.ar      1 UNK         0.0000 
      6 C6          5.8513   54.6749   22.8512 C.ar      1 UNK         0.0000 
      7 N7          6.3652   54.8969   21.6161 N.ar      1 UNK         0.0000 
      8 N8          6.7047   54.9932   23.8999 N.pl3     1 UNK         0.0000 
      9 C9          3.8581   54.0788   24.4150 C.2       1 UNK         0.0000 
     10 N10         4.4371   54.2905   25.5674 N.2       1 UNK         0.0000 
     11 C11         3.6482   54.0990   26.6086 C.2       1 UNK         0.0000 
     12 C12         2.3406   53.6954   26.3202 C.2       1 UNK         0.0000 
     13 S13         2.1982   53.6051   24.5825 S.3       1 UNK         0.0000 
     14 C14         1.2519   53.3283   27.3054 C.3       1 UNK         0.0000 
     15 C15         1.6524   52.1833   28.2578 C.3       1 UNK         0.0000 
     16 C16         2.7064   52.5481   29.3275 C.3       1 UNK         0.0000 
     17 C17         4.1152   52.9272   28.8186 C.3       1 UNK         0.0000 
     18 C18         4.1993   54.2380   28.0115 C.3       1 UNK         0.0000 
     19 H19         6.1865   53.8232   18.6570 H         1 UNK         0.0000 
     20 H20         5.4899   55.4426   18.5976 H         1 UNK         0.0000 
     21 H21         7.1354   55.2123   19.2007 H         1 UNK         0.0000 
     22 H22         2.7916   53.5689   21.9204 H         1 UNK         0.0000 
     23 H23         6.4050   54.7753   24.8378 H         1 UNK         0.0000 
     24 H24         7.6705   55.2150   23.6807 H         1 UNK         0.0000 
     25 H25         0.9951   54.1969   27.9132 H         1 UNK         0.0000 
     26 H26         0.3407   53.0439   26.7782 H         1 UNK         0.0000 
     27 H27         0.7541   51.8423   28.7758 H         1 UNK         0.0000 
     28 H28         1.9932   51.3219   27.6820 H         1 UNK         0.0000 
     29 H29         2.3190   53.3581   29.9475 H         1 UNK         0.0000 
     30 H30         2.8100   51.6971   30.0009 H         1 UNK         0.0000 
     31 H31         4.7671   53.0273   29.6814 H         1 UNK         0.0000 
     32 H32         4.5364   52.1023   28.2426 H         1 UNK         0.0000 
     33 H33         5.2394   54.5702   27.9907 H         1 UNK         0.0000 
     34 H34         3.6610   55.0203   28.5484 H         1 UNK         0.0000 
@<TRIPOS>BOND
     1    1    2 1    
     2    1   19 1    
     3    1   20 1    
     4    1   21 1    
     5    2    7 ar   
     6    2    3 ar   
     7    3    4 ar   
     8    4    5 ar   
     9    4   22 1    
    10    5    6 ar   
    11    5    9 1    
    12    6    7 ar   
    13    6    8 1    
    14    8   23 1    
    15    8   24 1    
    16    9   13 1    
    17    9   10 2    
    18   10   11 1    
    19   11   18 1    
    20   11   12 2    
    21   12   13 1    
    22   12   14 1    
    23   14   15 1    
    24   14   25 1    
    25   14   26 1    
    26   15   16 1    
    27   15   27 1    
    28   15   28 1    
    29   16   17 1    
    30   16   29 1    
    31   16   30 1    
    32   17   18 1    
    33   17   31 1    
    34   17   32 1    
    35   18   33 1    
    36   18   34 1    
@<TRIPOS>SUBSTRUCTURE
     1 UNK         1 GROUP             0       ****    0 ROOT    
