ZINC03012217_3399
                    3D
 Schrodinger Suite 2024-2.
 62 66  0  0  1  0            999 V2000
   -0.7448   51.6966   28.1651 C   0  0  0  0  0  0
   -0.4968   51.6966   29.6819 C   0  0  0  0  0  0
    0.7833   52.2455   29.9973 O   0  0  0  0  0  0
    0.9416   53.5880   30.0226 C   0  0  0  0  0  0
   -0.0133   54.3674   30.0822 O   0  0  0  0  0  0
    2.2842   53.9762   29.8789 N   0  0  0  0  0  0
    2.5227   55.2426   29.1754 C   0  0  0  0  0  0
    3.0331   54.8318   27.7864 C   0  0  0  0  0  0
    4.3806   54.0871   27.8706 C   0  0  0  0  0  0
    4.1549   52.8226   28.7294 C   0  0  0  0  0  0
    3.4303   53.0571   30.0805 C   0  0  0  0  0  0
    4.8950   53.8154   26.5355 N   0  0  0  0  0  0
    5.8338   54.4951   25.8418 C   0  0  0  0  0  0
    6.6698   55.2548   26.3407 O   0  0  0  0  0  0
    5.7101   54.3250   24.4073 C   0  0  0  0  0  0
    6.5644   54.8601   23.4271 C   0  0  0  0  0  0
    5.9908   54.5504   22.2056 C   0  0  0  0  0  0
    4.8448   53.8397   22.5017 N   0  0  0  0  0  0
    4.7075   53.6968   23.8209 N   0  0  0  0  0  0
    3.9541   53.1688   21.5466 C   0  0  2  0  0  0
    4.3779   52.1803   21.3625 H   0  0  0  0  0  0
    4.0733   53.9657   20.2299 C   0  0  0  0  0  0
    5.5266   54.2801   19.8083 C   0  0  2  0  0  0
    6.0296   53.3427   19.5649 H   0  0  0  0  0  0
    6.2985   54.8969   20.9028 N   0  0  0  0  0  0
    5.5331   55.0795   18.5094 C   0  0  0  0  0  0
    5.5046   54.4038   17.2702 C   0  0  0  0  0  0
    5.4552   55.1149   16.0617 C   0  0  0  0  0  0
    5.4391   56.5043   16.1307 C   0  0  0  0  0  0
    5.4641   57.1610   17.3259 C   0  0  0  0  0  0
    5.5075   56.4852   18.5354 C   0  0  0  0  0  0
    5.3958   58.4973   17.1149 O   0  0  0  0  0  0
    5.4917   58.6759   15.7272 C   0  0  0  0  0  0
    5.3545   57.4140   15.1232 O   0  0  0  0  0  0
    2.4887   52.9568   22.0326 C   0  0  0  0  0  0
    1.7152   52.4988   21.0469 F   0  0  0  0  0  0
    2.3933   52.0669   23.0185 F   0  0  0  0  0  0
    1.9438   54.0890   22.4819 F   0  0  0  0  0  0
   -1.6910   51.2069   27.9343 H   0  0  0  0  0  0
    0.0402   51.1514   27.6404 H   0  0  0  0  0  0
   -0.7838   52.7079   27.7599 H   0  0  0  0  0  0
   -1.2949   52.2227   30.2049 H   0  0  0  0  0  0
   -0.5435   50.6775   30.0466 H   0  0  0  0  0  0
    1.6505   55.8999   29.1259 H   0  0  0  0  0  0
    3.3092   55.7983   29.6817 H   0  0  0  0  0  0
    2.2872   54.2123   27.2831 H   0  0  0  0  0  0
    3.1122   55.6966   27.1411 H   0  0  0  0  0  0
    5.0916   54.7423   28.3841 H   0  0  0  0  0  0
    5.1043   52.3141   28.9100 H   0  0  0  0  0  0
    3.5456   52.1140   28.1629 H   0  0  0  0  0  0
    4.1027   53.5116   30.8101 H   0  0  0  0  0  0
    3.1187   52.1017   30.5048 H   0  0  0  0  0  0
    4.3803   53.1218   26.0133 H   0  0  0  0  0  0
    7.4661   55.4360   23.5900 H   0  0  0  0  0  0
    3.5603   53.4260   19.4320 H   0  0  0  0  0  0
    3.5094   54.8941   20.3196 H   0  0  0  0  0  0
    7.2658   55.0272   20.6451 H   0  0  0  0  0  0
    5.5026   53.3224   17.2451 H   0  0  0  0  0  0
    5.4219   54.5927   15.1175 H   0  0  0  0  0  0
    5.5046   57.0250   19.4695 H   0  0  0  0  0  0
    6.4725   59.0925   15.4958 H   0  0  0  0  0  0
    4.7087   59.3585   15.3960 H   0  0  0  0  0  0
  1  2  1  0  0  0
  1 39  1  0  0  0
  1 40  1  0  0  0
  1 41  1  0  0  0
  2  3  1  0  0  0
  2 42  1  0  0  0
  2 43  1  0  0  0
  3  4  1  0  0  0
  4  5  2  0  0  0
  4  6  1  0  0  0
  6 11  1  0  0  0
  6  7  1  0  0  0
  7  8  1  0  0  0
  7 44  1  0  0  0
  7 45  1  0  0  0
  8  9  1  0  0  0
  8 46  1  0  0  0
  8 47  1  0  0  0
  9 10  1  0  0  0
  9 12  1  0  0  0
  9 48  1  0  0  0
 10 11  1  0  0  0
 10 49  1  0  0  0
 10 50  1  0  0  0
 11 51  1  0  0  0
 11 52  1  0  0  0
 12 13  1  0  0  0
 12 53  1  0  0  0
 13 14  2  0  0  0
 13 15  1  0  0  0
 15 19  2  0  0  0
 15 16  1  0  0  0
 16 17  2  0  0  0
 16 54  1  0  0  0
 17 25  1  0  0  0
 17 18  1  0  0  0
 18 19  1  0  0  0
 18 20  1  0  0  0
 20 21  1  0  0  0
 20 22  1  0  0  0
 20 35  1  0  0  0
 22 23  1  0  0  0
 22 55  1  0  0  0
 22 56  1  0  0  0
 23 24  1  0  0  0
 23 25  1  0  0  0
 23 26  1  0  0  0
 25 57  1  0  0  0
 26 31  2  0  0  0
 26 27  1  0  0  0
 27 28  2  0  0  0
 27 58  1  0  0  0
 28 29  1  0  0  0
 28 59  1  0  0  0
 29 34  1  0  0  0
 29 30  2  0  0  0
 30 31  1  0  0  0
 30 32  1  0  0  0
 31 60  1  0  0  0
 32 33  1  0  0  0
 33 34  1  0  0  0
 33 61  1  0  0  0
 33 62  1  0  0  0
 35 36  1  0  0  0
 35 37  1  0  0  0
 35 38  1  0  0  0
M  END
> <i_i_glide_confnum>
120

> <i_i_glide_lignum>
3400

> <i_i_glide_posenum>
316

> <i_i_glide_rotatable_bonds>
8

> <i_m_Source_File_Index>
665

> <b_m_subgroup_collapsed>
0

> <r_i_docking_score>
-6.25529

> <r_i_glide_ecoul>
-4.88999

> <r_i_glide_eff_state_penalty>
0

> <r_i_glide_einternal>
15.2085

> <r_i_glide_emodel>
-63.0649

> <r_i_glide_energy>
-50.8965

> <r_i_glide_erotb>
0.473406

> <r_i_glide_esite>
-0.117661

> <r_i_glide_evdw>
-46.0065

> <r_i_glide_gscore>
-6.25529

> <r_i_glide_hbond>
-0.32

> <r_i_glide_ligand_efficiency>
-0.173758

> <r_i_glide_ligand_efficiency_ln>
-1.36474

> <r_i_glide_ligand_efficiency_sa>
-0.573737

> <r_i_glide_lipo>
-2.29476

> <r_i_glide_metal>
0

> <r_i_glide_rewards>
-0.962453

> <s_i_glide_gridfile>
wee1_glide-grid

> <s_m_Source_File>
wee1_decoys_glide_SP.sdf

> <s_m_Source_Path>
/Users/zhangxujun/Desktop

> <s_m_entry_id>
940

> <s_m_entry_name>
wee1_decoys_glide_SP.665

> <s_m_subgroup_title>
wee1_decoys_glide_SP

> <s_m_subgroupid>
wee1_decoys_glide_SP


$$$$
