@<TRIPOS>MOLECULE
ZINC09700031_4219
55   59    1
SMALL
USER_CHARGES


@<TRIPOS>ATOM
      1 C1         -2.2810   47.8625   25.3645 C.3       1 UNK         0.0000 
      2 C2         -1.6579   48.9158   24.4669 C.ar      1 UNK         0.0000 
      3 C3         -2.4646   49.9176   23.9208 C.ar      1 UNK         0.0000 
      4 C4         -1.9371   50.9155   23.0998 C.ar      1 UNK         0.0000 
      5 C5         -0.5624   50.8933   22.8263 C.ar      1 UNK         0.0000 
      6 C6          0.2505   49.8608   23.3668 C.ar      1 UNK         0.0000 
      7 C7         -0.2883   48.8674   24.1957 C.ar      1 UNK         0.0000 
      8 S8          1.9027   50.0963   22.8309 S.3       1 UNK         0.0000 
      9 C9          1.3678   51.5664   22.0183 C.2       1 UNK         0.0000 
     10 N10         0.0934   51.8250   22.0837 N.2       1 UNK         0.0000 
     11 N11         2.2253   52.4986   21.4600 N.am      1 UNK         0.0000 
     12 C12         3.5577   52.3825   21.2808 C.2       1 UNK         0.0000 
     13 O13         4.1913   51.3270   21.2797 O.2       1 UNK         0.0000 
     14 C14         4.3183   53.7091   21.1499 C.3       1 UNK         0.0000 
     15 C15         5.0286   54.1052   22.4451 C.2       1 UNK         0.0000 
     16 C16         6.3586   54.4954   22.6086 C.2       1 UNK         0.0000 
     17 S17         6.6982   54.7656   24.2913 S.3       1 UNK         0.0000 
     18 C18         5.0372   54.3746   24.6251 C.2       1 UNK         0.0000 
     19 N19         4.3207   54.0961   23.5663 N.2       1 UNK         0.0000 
     20 N20         4.4498   54.3868   25.8803 N.am      1 UNK         0.0000 
     21 C21         5.0432   54.4970   27.0884 C.2       1 UNK         0.0000 
     22 O22         6.2623   54.5024   27.2626 O.2       1 UNK         0.0000 
     23 C23         4.1128   54.7068   28.3167 C.3       1 UNK         0.0000 
     24 H24         4.3237   55.6965   28.7001 H         1 UNK         0.0000 
     25 C25         4.3779   53.7061   29.4294 C.3       1 UNK         0.0000 
     26 C26         3.2106   52.7287   29.4226 C.2       1 UNK         0.0000 
     27 O27         3.1818   51.6968   30.0833 O.2       1 UNK         0.0000 
     28 N28         2.2761   53.2205   28.5662 N.am      1 UNK         0.0000 
     29 C29         2.6224   54.5456   28.0624 C.3       1 UNK         0.0000 
     30 C30         1.0381   52.6246   28.2913 C.ar      1 UNK         0.0000 
     31 C31         0.6379   52.4955   26.9562 C.ar      1 UNK         0.0000 
     32 C32        -0.6132   51.9644   26.6566 C.ar      1 UNK         0.0000 
     33 C33        -1.4628   51.5764   27.6865 C.ar      1 UNK         0.0000 
     34 C34        -1.0623   51.6964   29.0172 C.ar      1 UNK         0.0000 
     35 C35         0.1904   52.2134   29.3239 C.ar      1 UNK         0.0000 
     36 F36        -2.6893   51.0901   27.3921 F         1 UNK         0.0000 
     37 H37        -1.6302   46.9932   25.4915 H         1 UNK         0.0000 
     38 H38        -2.4962   48.2860   26.3476 H         1 UNK         0.0000 
     39 H39        -3.2208   47.5023   24.9451 H         1 UNK         0.0000 
     40 H40        -3.5201   49.9315   24.1521 H         1 UNK         0.0000 
     41 H41        -2.5731   51.6902   22.6999 H         1 UNK         0.0000 
     42 H42         0.3455   48.1027   24.6257 H         1 UNK         0.0000 
     43 H43         1.8025   53.3781   21.1957 H         1 UNK         0.0000 
     44 H44         5.0236   53.6058   20.3254 H         1 UNK         0.0000 
     45 H45         3.6335   54.4994   20.8365 H         1 UNK         0.0000 
     46 H46         7.1294   54.6095   21.8605 H         1 UNK         0.0000 
     47 H47         3.4526   54.2516   25.8812 H         1 UNK         0.0000 
     48 H48         5.2844   53.1146   29.2758 H         1 UNK         0.0000 
     49 H49         4.4849   54.1986   30.3948 H         1 UNK         0.0000 
     50 H50         2.0704   55.2744   28.6599 H         1 UNK         0.0000 
     51 H51         2.2893   54.7614   27.0480 H         1 UNK         0.0000 
     52 H52         1.2879   52.8011   26.1495 H         1 UNK         0.0000 
     53 H53        -0.9298   51.8575   25.6306 H         1 UNK         0.0000 
     54 H54        -1.7087   51.3539   29.8108 H         1 UNK         0.0000 
     55 H55         0.4881   52.3020   30.3603 H         1 UNK         0.0000 
@<TRIPOS>BOND
     1    1    2 1    
     2    1   37 1    
     3    1   38 1    
     4    1   39 1    
     5    2    7 ar   
     6    2    3 ar   
     7    3    4 ar   
     8    3   40 1    
     9    4    5 ar   
    10    4   41 1    
    11    5   10 1    
    12    5    6 ar   
    13    6    7 ar   
    14    6    8 1    
    15    7   42 1    
    16    8    9 1    
    17    9   10 2    
    18    9   11 am   BACKBONE|DICT|INTERRES
    19   11   12 am   BACKBONE|DICT|INTERRES
    20   11   43 1    
    21   12   13 2    
    22   12   14 1    
    23   14   15 1    
    24   14   44 1    
    25   14   45 1    
    26   15   19 1    
    27   15   16 2    
    28   16   17 1    
    29   16   46 1    
    30   17   18 1    
    31   18   19 2    
    32   18   20 am   BACKBONE|DICT|INTERRES
    33   20   21 am   BACKBONE|DICT|INTERRES
    34   20   47 1    
    35   21   22 2    
    36   21   23 1    
    37   23   24 1    
    38   23   29 1    
    39   23   25 1    
    40   25   26 1    
    41   25   48 1    
    42   25   49 1    
    43   26   27 2    
    44   26   28 am   BACKBONE|DICT|INTERRES
    45   28   29 1    
    46   28   30 1    
    47   29   50 1    
    48   29   51 1    
    49   30   35 ar   
    50   30   31 ar   
    51   31   32 ar   
    52   31   52 1    
    53   32   33 ar   
    54   32   53 1    
    55   33   34 ar   
    56   33   36 1    
    57   34   35 ar   
    58   34   54 1    
    59   35   55 1    
@<TRIPOS>SUBSTRUCTURE
     1 UNK         1 GROUP             0       ****    0 ROOT    
