@<TRIPOS>MOLECULE
ZINC59777295_5519
43   45    1
SMALL
USER_CHARGES


@<TRIPOS>ATOM
      1 C1          6.7432   54.6386   27.2781 C.ar      1 UNK         0.0000 
      2 C2          5.8924   53.6941   27.8385 C.ar      1 UNK         0.0000 
      3 C3          4.6989   53.3857   27.1996 C.ar      1 UNK         0.0000 
      4 C4          4.3403   54.0475   26.0171 C.ar      1 UNK         0.0000 
      5 C5          5.1943   55.0158   25.4825 C.ar      1 UNK         0.0000 
      6 C6          6.4036   55.2964   26.1009 C.ar      1 UNK         0.0000 
      7 N7          3.1345   53.6967   25.3475 N.pl3     1 UNK         0.0000 
      8 C8          1.8999   53.3824   25.9014 C.ar      1 UNK         0.0000 
      9 N9          1.0592   53.0055   24.9693 N.2       1 UNK         0.0000 
     10 N10         1.7059   53.1202   23.7520 N.2       1 UNK         0.0000 
     11 C11         2.9366   53.5119   23.9840 C.ar      1 UNK         0.0000 
     12 S12         4.1712   53.6972   22.7155 S.3       1 UNK         0.0000 
     13 C13         3.2282   53.3142   21.2013 C.3       1 UNK         0.0000 
     14 C14         3.1703   51.8353   20.8134 C.2       1 UNK         0.0000 
     15 O15         3.5045   50.9575   21.6118 O.2       1 UNK         0.0000 
     16 N16         2.7056   51.5882   19.5704 N.am      1 UNK         0.0000 
     17 N17         2.6271   50.2737   19.1122 N.am      1 UNK         0.0000 
     18 C18         1.4924   49.5617   19.3012 C.2       1 UNK         0.0000 
     19 O19         0.4811   50.0161   19.8479 O.2       1 UNK         0.0000 
     20 C20         1.4736   48.1208   18.7637 C.3       1 UNK         0.0000 
     21 F21         0.9342   47.3079   19.6744 F         1 UNK         0.0000 
     22 F22         2.7041   47.6969   18.4816 F         1 UNK         0.0000 
     23 F23         0.7334   48.0723   17.6536 F         1 UNK         0.0000 
     24 C24         1.5152   53.4559   27.3475 C.ar      1 UNK         0.0000 
     25 C25         0.7352   52.4445   27.9252 C.ar      1 UNK         0.0000 
     26 C26         0.3699   52.5216   29.2687 C.ar      1 UNK         0.0000 
     27 C27         0.7760   53.6134   30.0319 C.ar      1 UNK         0.0000 
     28 C28         1.5308   54.6363   29.4639 C.ar      1 UNK         0.0000 
     29 C29         1.8992   54.5561   28.1243 C.ar      1 UNK         0.0000 
     30 Br30        0.3035   53.7126   31.8699 Br        1 UNK         0.0000 
     31 H31         7.6787   54.8635   27.7629 H         1 UNK         0.0000 
     32 H32         6.1674   53.1861   28.7503 H         1 UNK         0.0000 
     33 H33         4.0670   52.6142   27.6190 H         1 UNK         0.0000 
     34 H34         4.9444   55.5450   24.5762 H         1 UNK         0.0000 
     35 H35         7.0630   56.0326   25.6661 H         1 UNK         0.0000 
     36 H36         3.6955   53.8655   20.3850 H         1 UNK         0.0000 
     37 H37         2.2136   53.6947   21.2841 H         1 UNK         0.0000 
     38 H38         2.4715   52.2798   18.8719 H         1 UNK         0.0000 
     39 H39         3.4400   49.9755   18.5794 H         1 UNK         0.0000 
     40 H40         0.4156   51.5963   27.3342 H         1 UNK         0.0000 
     41 H41        -0.2248   51.7366   29.7129 H         1 UNK         0.0000 
     42 H42         1.8258   55.4898   30.0542 H         1 UNK         0.0000 
     43 H43         2.4827   55.3526   27.6841 H         1 UNK         0.0000 
@<TRIPOS>BOND
     1    1    6 ar   
     2    1    2 ar   
     3    1   31 1    
     4    2    3 ar   
     5    2   32 1    
     6    3    4 ar   
     7    3   33 1    
     8    4    5 ar   
     9    4    7 1    
    10    5    6 ar   
    11    5   34 1    
    12    6   35 1    
    13    7   11 ar   
    14    7    8 ar   
    15    8    9 ar   
    16    8   24 1    
    17    9   10 ar   
    18   10   11 ar   
    19   11   12 1    
    20   12   13 1    
    21   13   14 1    
    22   13   36 1    
    23   13   37 1    
    24   14   15 2    
    25   14   16 am   BACKBONE|DICT|INTERRES
    26   16   17 1    
    27   16   38 1    
    28   17   18 am   BACKBONE|DICT|INTERRES
    29   17   39 1    
    30   18   19 2    
    31   18   20 1    
    32   20   21 1    
    33   20   22 1    
    34   20   23 1    
    35   24   29 ar   
    36   24   25 ar   
    37   25   26 ar   
    38   25   40 1    
    39   26   27 ar   
    40   26   41 1    
    41   27   28 ar   
    42   27   30 1    
    43   28   29 ar   
    44   28   42 1    
    45   29   43 1    
@<TRIPOS>SUBSTRUCTURE
     1 UNK         1 GROUP             0       ****    0 ROOT    
