ZINC39469716_5349
                    3D
 Schrodinger Suite 2024-2.
 58 62  0  0  1  0            999 V2000
    6.8070   54.3408   27.0241 C   0  0  0  0  0  0
    6.0352   54.8966   26.0117 C   0  0  0  0  0  0
    4.6489   54.8079   26.0839 C   0  0  0  0  0  0
    4.0289   54.1345   27.1443 C   0  0  0  0  0  0
    4.8211   53.5785   28.1537 C   0  0  0  0  0  0
    6.2074   53.6937   28.0959 C   0  0  0  0  0  0
    2.5035   54.0884   27.2713 C   0  0  0  0  0  0
    1.7453   53.2374   26.2397 C   0  0  0  0  0  0
    1.1403   52.0911   26.6391 C   0  0  0  0  0  0
    0.3512   51.2037   25.6717 C   0  0  1  0  0  0
    1.1045   50.6550   25.1071 H   0  0  0  0  0  0
   -0.5452   50.1192   26.3065 C   0  0  0  0  0  0
   -1.1997   49.2802   25.1875 N   0  3  2  0  0  0
   -2.0071   50.1565   24.1825 C   0  0  1  0  0  0
   -2.7427   50.6593   24.8117 H   0  0  0  0  0  0
   -1.0374   51.1830   23.5449 C   0  0  0  0  0  0
   -0.4160   52.0729   24.6360 C   0  0  2  0  0  0
   -1.2313   52.5856   25.1524 H   0  0  0  0  0  0
    0.5048   53.1709   24.1124 C   0  0  0  0  0  0
    1.5043   53.6865   24.8583 C   0  0  0  0  0  0
    2.2316   54.6689   24.2937 F   0  0  0  0  0  0
   -2.7479   49.2801   23.1350 C   0  0  0  0  0  0
   -3.5663   48.2987   23.7584 O   0  0  0  0  0  0
   -2.8307   47.1448   24.6428 P   0  0  1  0  0  0
   -2.0952   46.1377   23.8296 O   0  0  0  0  0  0
   -1.9209   48.1245   25.6817 N   0  0  0  0  0  0
   -4.4720   46.1073   25.8479 S   0  0  0  0  0  0
   -5.0847   45.1187   24.9535 O   0  0  0  0  0  0
   -3.8917   45.6968   27.1289 O   0  0  0  0  0  0
   -5.5574   47.3601   26.0953 O   0  0  0  0  0  0
   -5.1692   48.4406   26.8467 C   0  0  0  0  0  0
   -4.8957   48.3101   28.2107 C   0  0  0  0  0  0
   -4.4956   49.4195   28.9499 C   0  0  0  0  0  0
   -4.3904   50.6609   28.3269 C   0  0  0  0  0  0
   -4.6953   50.8053   26.9747 C   0  0  0  0  0  0
   -5.0894   49.6920   26.2355 C   0  0  0  0  0  0
    7.8837   54.4196   26.9966 H   0  0  0  0  0  0
    6.5041   55.4135   25.1870 H   0  0  0  0  0  0
    4.0791   55.2974   25.3179 H   0  0  0  0  0  0
    4.3683   53.0756   28.9956 H   0  0  0  0  0  0
    6.8261   53.2970   28.8835 H   0  0  0  0  0  0
    2.2477   53.7367   28.2725 H   0  0  0  0  0  0
    2.1335   55.1097   27.2817 H   0  0  0  0  0  0
    1.2586   51.7648   27.6631 H   0  0  0  0  0  0
    0.0429   49.4039   26.8819 H   0  0  0  0  0  0
   -1.3313   50.5098   26.9546 H   0  0  0  0  0  0
   -0.2459   50.6547   23.0075 H   0  0  0  0  0  0
   -1.5732   51.8022   22.8227 H   0  0  0  0  0  0
    0.3695   53.5546   23.1134 H   0  0  0  0  0  0
   -3.3901   49.9036   22.5105 H   0  0  0  0  0  0
   -2.0448   48.7901   22.4568 H   0  0  0  0  0  0
   -1.9403   47.9740   26.7014 H   0  0  0  0  0  0
   -4.9717   47.3475   28.6936 H   0  0  0  0  0  0
   -4.2421   49.3078   29.9952 H   0  0  0  0  0  0
   -4.0688   51.5166   28.9011 H   0  0  0  0  0  0
   -4.6271   51.7744   26.5030 H   0  0  0  0  0  0
   -5.3311   49.7924   25.1881 H   0  0  0  0  0  0
   -0.4334   48.8783   24.6657 H   0  0  0  0  0  0
  1  6  2  0  0  0
  1  2  1  0  0  0
  1 37  1  0  0  0
  2  3  2  0  0  0
  2 38  1  0  0  0
  3  4  1  0  0  0
  3 39  1  0  0  0
  4  5  2  0  0  0
  4  7  1  0  0  0
  5  6  1  0  0  0
  5 40  1  0  0  0
  6 41  1  0  0  0
  7  8  1  0  0  0
  7 42  1  0  0  0
  7 43  1  0  0  0
  8 20  1  0  0  0
  8  9  2  0  0  0
  9 10  1  0  0  0
  9 44  1  0  0  0
 10 11  1  0  0  0
 10 17  1  0  0  0
 10 12  1  0  0  0
 12 13  1  0  0  0
 12 45  1  0  0  0
 12 46  1  0  0  0
 13 26  1  0  0  0
 13 14  1  0  0  0
 13 58  1  0  0  0
 14 15  1  0  0  0
 14 16  1  0  0  0
 14 22  1  0  0  0
 16 17  1  0  0  0
 16 47  1  0  0  0
 16 48  1  0  0  0
 17 18  1  0  0  0
 17 19  1  0  0  0
 19 20  2  0  0  0
 19 49  1  0  0  0
 20 21  1  0  0  0
 22 23  1  0  0  0
 22 50  1  0  0  0
 22 51  1  0  0  0
 23 24  1  0  0  0
 24 25  2  0  0  0
 24 26  1  0  0  0
 24 27  1  0  0  0
 26 52  1  0  0  0
 27 28  2  0  0  0
 27 29  2  0  0  0
 27 30  1  0  0  0
 30 31  1  0  0  0
 31 36  2  0  0  0
 31 32  1  0  0  0
 32 33  2  0  0  0
 32 53  1  0  0  0
 33 34  1  0  0  0
 33 54  1  0  0  0
 34 35  2  0  0  0
 34 55  1  0  0  0
 35 36  1  0  0  0
 35 56  1  0  0  0
 36 57  1  0  0  0
M  CHG  1  13   1
M  END
> <i_i_glide_confnum>
33

> <i_i_glide_lignum>
5350

> <i_i_glide_posenum>
322

> <i_i_glide_rotatable_bonds>
5

> <i_m_Source_File_Index>
4217

> <b_m_subgroup_collapsed>
0

> <r_i_docking_score>
-5.06137

> <r_i_glide_ecoul>
-2.26696

> <r_i_glide_eff_state_penalty>
0

> <r_i_glide_einternal>
1.2868

> <r_i_glide_emodel>
-50.5662

> <r_i_glide_energy>
-36.2274

> <r_i_glide_erotb>
0.421375

> <r_i_glide_esite>
-0.375782

> <r_i_glide_evdw>
-33.9605

> <r_i_glide_gscore>
-5.06137

> <r_i_glide_hbond>
-0.16

> <r_i_glide_ligand_efficiency>
-0.153375

> <r_i_glide_ligand_efficiency_ln>
-1.12562

> <r_i_glide_ligand_efficiency_sa>
-0.491955

> <r_i_glide_lipo>
-2.55542

> <r_i_glide_metal>
0

> <r_i_glide_rewards>
-0.353475

> <s_i_glide_gridfile>
wee1_glide-grid

> <s_m_Source_File>
wee1_decoys_glide_SP.sdf

> <s_m_Source_Path>
/Users/zhangxujun/Desktop

> <s_m_entry_id>
4492

> <s_m_entry_name>
wee1_decoys_glide_SP.4217

> <s_m_subgroup_title>
wee1_decoys_glide_SP

> <s_m_subgroupid>
wee1_decoys_glide_SP


$$$$
