ZINC18084190_5924
                    3D
 Schrodinger Suite 2024-2.
 53 56  0  0  1  0            999 V2000
    9.5223   56.6762   17.5426 C   0  0  0  0  0  0
    8.5041   57.6242   17.6207 C   0  0  0  0  0  0
    7.3030   57.2964   18.2435 C   0  0  0  0  0  0
    7.1181   56.0176   18.7778 C   0  0  0  0  0  0
    8.1508   55.0775   18.7084 C   0  0  0  0  0  0
    9.3508   55.4038   18.0827 C   0  0  0  0  0  0
    5.8222   55.6960   19.5064 C   0  0  0  0  0  0
    5.2391   54.4312   19.0691 N   0  0  0  0  0  0
    4.4209   53.5858   19.7999 C   0  0  0  0  0  0
    3.4260   52.9824   19.2733 N   0  0  0  0  0  0
    2.6438   52.0129   19.9190 C   0  0  0  0  0  0
    1.8980   52.2937   21.0726 C   0  0  0  0  0  0
    1.1383   51.3059   21.6942 C   0  0  0  0  0  0
    1.0982   50.0258   21.1491 C   0  0  0  0  0  0
    1.8048   49.7336   19.9865 C   0  0  0  0  0  0
    2.5622   50.7283   19.3732 C   0  0  0  0  0  0
    0.3581   49.0640   21.7447 F   0  0  0  0  0  0
    5.1044   53.0322   21.4019 S   0  0  0  0  0  0
    4.9739   54.4963   22.4882 C   0  0  2  0  0  0
    4.4192   55.2918   21.9832 H   0  0  0  0  0  0
    6.3091   54.9681   23.0058 C   0  0  0  0  0  0
    6.2066   54.8973   24.5149 C   0  0  0  0  0  0
    7.1011   55.2910   25.2691 O   0  0  0  0  0  0
    4.9903   54.3687   24.8473 N   0  0  0  0  0  0
    4.2234   54.0967   23.7440 C   0  0  0  0  0  0
    3.0923   53.6083   23.7115 O   0  0  0  0  0  0
    4.5739   54.0907   26.1887 C   0  0  0  0  0  0
    3.2209   54.1782   26.5545 C   0  0  0  0  0  0
    2.7931   53.7990   27.8166 C   0  0  0  0  0  0
    3.7057   53.3105   28.7546 C   0  0  0  0  0  0
    5.0632   53.2668   28.4234 C   0  0  0  0  0  0
    5.4932   53.6529   27.1581 C   0  0  0  0  0  0
    3.2175   52.8245   30.0785 C   0  0  0  0  0  0
    2.1323   53.2952   30.4828 O   0  0  0  0  0  0
    3.9045   51.9795   30.6982 O   0  5  0  0  0  0
   10.4565   56.9300   17.0632 H   0  0  0  0  0  0
    8.6439   58.6103   17.2015 H   0  0  0  0  0  0
    6.5199   58.0396   18.3037 H   0  0  0  0  0  0
    8.0261   54.0974   19.1417 H   0  0  0  0  0  0
   10.1503   54.6787   18.0312 H   0  0  0  0  0  0
    5.1038   56.4892   19.3068 H   0  0  0  0  0  0
    6.0343   55.7186   20.5656 H   0  0  0  0  0  0
    5.1423   54.3538   18.0676 H   0  0  0  0  0  0
    1.9152   53.2910   21.4852 H   0  0  0  0  0  0
    0.5838   51.5323   22.5924 H   0  0  0  0  0  0
    1.7674   48.7427   19.5590 H   0  0  0  0  0  0
    3.1045   50.4965   18.4678 H   0  0  0  0  0  0
    6.5241   55.9994   22.7267 H   0  0  0  0  0  0
    7.1475   54.3556   22.6704 H   0  0  0  0  0  0
    2.4650   54.4967   25.8559 H   0  0  0  0  0  0
    1.7377   53.8503   28.0475 H   0  0  0  0  0  0
    5.7884   52.8975   29.1317 H   0  0  0  0  0  0
    6.5431   53.5437   26.9308 H   0  0  0  0  0  0
  1  6  2  0  0  0
  1  2  1  0  0  0
  1 36  1  0  0  0
  2  3  2  0  0  0
  2 37  1  0  0  0
  3  4  1  0  0  0
  3 38  1  0  0  0
  4  5  2  0  0  0
  4  7  1  0  0  0
  5  6  1  0  0  0
  5 39  1  0  0  0
  6 40  1  0  0  0
  7  8  1  0  0  0
  7 41  1  0  0  0
  7 42  1  0  0  0
  8  9  1  0  0  0
  8 43  1  0  0  0
  9 10  2  0  0  0
  9 18  1  0  0  0
 10 11  1  0  0  0
 11 16  2  0  0  0
 11 12  1  0  0  0
 12 13  2  0  0  0
 12 44  1  0  0  0
 13 14  1  0  0  0
 13 45  1  0  0  0
 14 15  2  0  0  0
 14 17  1  0  0  0
 15 16  1  0  0  0
 15 46  1  0  0  0
 16 47  1  0  0  0
 18 19  1  0  0  0
 19 20  1  0  0  0
 19 25  1  0  0  0
 19 21  1  0  0  0
 21 22  1  0  0  0
 21 48  1  0  0  0
 21 49  1  0  0  0
 22 23  2  0  0  0
 22 24  1  0  0  0
 24 25  1  0  0  0
 24 27  1  0  0  0
 25 26  2  0  0  0
 27 32  2  0  0  0
 27 28  1  0  0  0
 28 29  2  0  0  0
 28 50  1  0  0  0
 29 30  1  0  0  0
 29 51  1  0  0  0
 30 31  2  0  0  0
 30 33  1  0  0  0
 31 32  1  0  0  0
 31 52  1  0  0  0
 32 53  1  0  0  0
 33 34  2  0  0  0
 33 35  1  0  0  0
M  CHG  1  35  -1
M  END
> <i_i_glide_confnum>
80

> <i_i_glide_lignum>
5925

> <i_i_glide_posenum>
390

> <i_i_glide_rotatable_bonds>
8

> <i_m_Source_File_Index>
2174

> <b_m_subgroup_collapsed>
0

> <r_i_docking_score>
-7.56133

> <r_i_glide_ecoul>
-5.73277

> <r_i_glide_eff_state_penalty>
0

> <r_i_glide_einternal>
15.2187

> <r_i_glide_emodel>
-70.447

> <r_i_glide_energy>
-51.5914

> <r_i_glide_erotb>
0.445937

> <r_i_glide_esite>
-0.0127664

> <r_i_glide_evdw>
-45.8587

> <r_i_glide_gscore>
-7.56133

> <r_i_glide_hbond>
-0.57864

> <r_i_glide_ligand_efficiency>
-0.222392

> <r_i_glide_ligand_efficiency_ln>
-1.67051

> <r_i_glide_ligand_efficiency_sa>
-0.720464

> <r_i_glide_lipo>
-2.17561

> <r_i_glide_metal>
0

> <r_i_glide_rewards>
-2.0874

> <s_i_glide_gridfile>
wee1_glide-grid

> <s_m_Source_File>
wee1_decoys_glide_SP.sdf

> <s_m_Source_Path>
/Users/zhangxujun/Desktop

> <s_m_entry_id>
2449

> <s_m_entry_name>
wee1_decoys_glide_SP.2174

> <s_m_subgroup_title>
wee1_decoys_glide_SP

> <s_m_subgroupid>
wee1_decoys_glide_SP


$$$$
