@<TRIPOS>MOLECULE
ZINC09696039_1116
60   63    1
SMALL
USER_CHARGES


@<TRIPOS>ATOM
      1 C1         -1.3365   50.5781   16.9487 C.3       1 UNK         0.0000 
      2 O2         -1.1860   50.9095   18.3260 O.3       1 UNK         0.0000 
      3 C3          0.0713   51.1937   18.8347 C.ar      1 UNK         0.0000 
      4 C4          1.2404   51.1183   18.0552 C.ar      1 UNK         0.0000 
      5 C5          2.4908   51.3855   18.6063 C.ar      1 UNK         0.0000 
      6 C6          2.5998   51.7439   19.9440 C.ar      1 UNK         0.0000 
      7 C7          1.4541   51.8430   20.7254 C.ar      1 UNK         0.0000 
      8 C8          0.1838   51.5503   20.1959 C.ar      1 UNK         0.0000 
      9 C9         -1.0291   51.6263   21.0966 C.2       1 UNK         0.0000 
     10 O10        -2.0937   52.0967   20.6907 O.2       1 UNK         0.0000 
     11 N11        -0.8094   51.1206   22.3354 N.am      1 UNK         0.0000 
     12 C12        -1.3876   51.3263   23.5665 C.2       1 UNK         0.0000 
     13 S13        -2.8702   52.0954   23.8117 S.2       1 UNK         0.0000 
     14 N14        -0.6218   50.8301   24.6103 N.pl3     1 UNK         0.0000 
     15 C15         0.8530   50.7630   24.5277 C.3       1 UNK         0.0000 
     16 C16         1.3774   52.0740   25.1623 C.3       1 UNK         0.0000 
     17 C17        -0.5547   51.9802   26.7681 C.3       1 UNK         0.0000 
     18 C18        -1.0727   50.7264   26.0187 C.3       1 UNK         0.0000 
     19 C19         1.5923   53.3200   27.4178 C.3       1 UNK         0.0000 
     20 C20         1.1532   53.4720   28.8815 C.ar      1 UNK         0.0000 
     21 C21         0.8098   52.3671   29.6718 C.ar      1 UNK         0.0000 
     22 C22         0.3630   52.5540   30.9749 C.ar      1 UNK         0.0000 
     23 C23         0.3044   53.8368   31.5080 C.ar      1 UNK         0.0000 
     24 C24         0.7044   54.9365   30.7520 C.ar      1 UNK         0.0000 
     25 C25         1.1125   54.7554   29.4356 C.ar      1 UNK         0.0000 
     26 C26         3.1074   53.5365   27.2417 C.ar      1 UNK         0.0000 
     27 C27         4.0145   53.0966   28.2161 C.ar      1 UNK         0.0000 
     28 C28         5.3754   53.3576   28.0817 C.ar      1 UNK         0.0000 
     29 C29         5.8384   54.0641   26.9754 C.ar      1 UNK         0.0000 
     30 C30         4.9504   54.5117   26.0010 C.ar      1 UNK         0.0000 
     31 C31         3.5886   54.2560   26.1392 C.ar      1 UNK         0.0000 
     32 Br32        4.3087   52.0787   20.7160 Br        1 UNK         0.0000 
     33 H33        -2.3920   50.4119   16.7316 H         1 UNK         0.0000 
     34 H34        -0.9913   51.3871   16.3018 H         1 UNK         0.0000 
     35 H35        -0.8007   49.6609   16.6961 H         1 UNK         0.0000 
     36 H36         1.2090   50.8379   17.0136 H         1 UNK         0.0000 
     37 H37         3.3796   51.3011   17.9952 H         1 UNK         0.0000 
     38 H38         1.5736   52.1498   21.7541 H         1 UNK         0.0000 
     39 H39         0.0704   50.6328   22.3902 H         1 UNK         0.0000 
     40 H40         1.1808   49.8852   25.0863 H         1 UNK         0.0000 
     41 H41         1.2612   50.6220   23.5279 H         1 UNK         0.0000 
     42 H42         0.9743   52.9778   24.6987 H         1 UNK         0.0000 
     43 H43         2.4624   52.0969   25.0858 H         1 UNK         0.0000 
     44 H44        -1.0003   52.8966   26.3882 H         1 UNK         0.0000 
     45 H45        -0.8330   51.8745   27.8142 H         1 UNK         0.0000 
     46 H46        -2.1550   50.6281   26.1128 H         1 UNK         0.0000 
     47 H47        -0.6741   49.8184   26.4776 H         1 UNK         0.0000 
     48 H48         1.1044   54.1297   26.8798 H         1 UNK         0.0000 
     49 H49         0.8618   51.3612   29.2801 H         1 UNK         0.0000 
     50 H50         0.0556   51.7112   31.5791 H         1 UNK         0.0000 
     51 H51        -0.0370   53.9686   32.5251 H         1 UNK         0.0000 
     52 H52         0.7032   55.9277   31.1822 H         1 UNK         0.0000 
     53 H53         1.4043   55.6153   28.8492 H         1 UNK         0.0000 
     54 H54         3.6720   52.5502   29.0826 H         1 UNK         0.0000 
     55 H55         6.0687   53.0114   28.8338 H         1 UNK         0.0000 
     56 H56         6.8953   54.2618   26.8739 H         1 UNK         0.0000 
     57 H57         5.3159   55.0607   25.1451 H         1 UNK         0.0000 
     58 H58         2.9108   54.6203   25.3816 H         1 UNK         0.0000 
     59 N59         1.0007   52.0810   26.6676 N.4       1 UNK         0.0000 
     60 H60         1.4001   51.2557   27.0931 H         1 UNK         0.0000 
@<TRIPOS>BOND
     1    1    2 1    
     2    1   33 1    
     3    1   34 1    
     4    1   35 1    
     5    2    3 1    
     6    3    8 ar   
     7    3    4 ar   
     8    4    5 ar   
     9    4   36 1    
    10    5    6 ar   
    11    5   37 1    
    12    6    7 ar   
    13    6   32 1    
    14    7    8 ar   
    15    7   38 1    
    16    8    9 1    
    17    9   10 2    
    18    9   11 am   BACKBONE|DICT|INTERRES
    19   11   12 am   BACKBONE|DICT|INTERRES
    20   11   39 1    
    21   12   13 2    
    22   12   14 1    
    23   14   18 1    
    24   14   15 1    
    25   15   16 1    
    26   15   40 1    
    27   15   41 1    
    28   16   42 1    
    29   16   43 1    
    30   16   59 1    
    31   17   18 1    
    32   17   44 1    
    33   17   45 1    
    34   17   59 1    
    35   18   46 1    
    36   18   47 1    
    37   19   20 1    
    38   19   26 1    
    39   19   48 1    
    40   19   59 1    
    41   20   25 ar   
    42   20   21 ar   
    43   21   22 ar   
    44   21   49 1    
    45   22   23 ar   
    46   22   50 1    
    47   23   24 ar   
    48   23   51 1    
    49   24   25 ar   
    50   24   52 1    
    51   25   53 1    
    52   26   31 ar   
    53   26   27 ar   
    54   27   28 ar   
    55   27   54 1    
    56   28   29 ar   
    57   28   55 1    
    58   29   30 ar   
    59   29   56 1    
    60   30   31 ar   
    61   30   57 1    
    62   31   58 1    
    63   59   60 1    
@<TRIPOS>SUBSTRUCTURE
     1 UNK         1 GROUP             0       ****    0 ROOT    
