@<TRIPOS>MOLECULE
ZINC09124401_988
57   62    1
SMALL
USER_CHARGES


@<TRIPOS>ATOM
      1 C1         -2.0980   45.9550   21.7745 C.3       1 UNK         0.0000 
      2 C2         -2.9408   46.5924   22.8954 C.3       1 UNK         0.0000 
      3 H3         -3.7822   45.9384   23.1281 H         1 UNK         0.0000 
      4 C4         -3.4112   48.0186   22.5543 C.3       1 UNK         0.0000 
      5 C5         -2.4144   48.8604   23.2806 C.ar      1 UNK         0.0000 
      6 C6         -2.1879   50.2369   23.3066 C.ar      1 UNK         0.0000 
      7 C7         -1.1925   50.7688   24.1467 C.ar      1 UNK         0.0000 
      8 C8         -0.5008   49.9028   25.0160 C.ar      1 UNK         0.0000 
      9 C9         -0.7543   48.5295   25.0095 C.ar      1 UNK         0.0000 
     10 C10        -1.7046   48.0314   24.1265 C.ar      1 UNK         0.0000 
     11 O11        -2.0579   46.7081   24.0169 O.3       1 UNK         0.0000 
     12 C12        -0.8942   52.2364   24.0996 C.2       1 UNK         0.0000 
     13 C13         0.4796   52.6827   24.3177 C.2       1 UNK         0.0000 
     14 C14         1.4203   52.9232   23.1766 C.3       1 UNK         0.0000 
     15 H15         1.0658   53.7405   22.5459 H         1 UNK         0.0000 
     16 N16         2.6538   53.3736   23.8391 N.am      1 UNK         0.0000 
     17 C17         2.5107   53.3659   25.1984 C.2       1 UNK         0.0000 
     18 O18         3.3594   53.6966   26.0338 O.2       1 UNK         0.0000 
     19 C19         1.1548   52.8965   25.4498 C.2       1 UNK         0.0000 
     20 O20         0.7603   52.7616   26.6694 O.co2     1 UNK         0.0000 
     21 C21         3.7760   53.7917   23.0971 C.2       1 UNK         0.0000 
     22 N22         3.7463   53.8727   21.7935 N.2       1 UNK         0.0000 
     23 C23         4.8941   54.3770   21.2777 C.ar      1 UNK         0.0000 
     24 C24         5.1151   54.6080   19.9132 C.ar      1 UNK         0.0000 
     25 C25         6.3236   55.1911   19.5258 C.ar      1 UNK         0.0000 
     26 C26         7.2967   55.5344   20.4644 C.ar      1 UNK         0.0000 
     27 C27         7.1049   55.2968   21.8251 C.ar      1 UNK         0.0000 
     28 C28         5.8979   54.7043   22.2262 C.ar      1 UNK         0.0000 
     29 S29         5.3142   54.2707   23.8296 S.3       1 UNK         0.0000 
     30 F30         8.4524   56.0963   20.0489 F         1 UNK         0.0000 
     31 C31         1.5976   51.6882   22.2795 C.ar      1 UNK         0.0000 
     32 C32         1.9402   50.4557   22.8408 C.ar      1 UNK         0.0000 
     33 C33         2.0291   49.3246   22.0426 C.ar      1 UNK         0.0000 
     34 C34         1.7983   49.4042   20.6754 C.ar      1 UNK         0.0000 
     35 C35         1.4700   50.6432   20.1036 C.ar      1 UNK         0.0000 
     36 C36         1.3635   51.7785   20.9053 C.ar      1 UNK         0.0000 
     37 O37         1.9124   48.2262   19.9681 O.3       1 UNK         0.0000 
     38 C38         2.2614   48.3231   18.5951 C.3       1 UNK         0.0000 
     39 O39        -1.7191   53.0512   23.6824 O.2       1 UNK         0.0000 
     40 H40        -2.6920   45.8089   20.8721 H         1 UNK         0.0000 
     41 H41        -1.7078   44.9827   22.0758 H         1 UNK         0.0000 
     42 H42        -1.2450   46.5827   21.5124 H         1 UNK         0.0000 
     43 H43        -3.4708   48.1997   21.4805 H         1 UNK         0.0000 
     44 H44        -4.4021   48.1896   22.9763 H         1 UNK         0.0000 
     45 H45        -2.7590   50.8855   22.6569 H         1 UNK         0.0000 
     46 H46         0.2457   50.2778   25.7013 H         1 UNK         0.0000 
     47 H47        -0.2152   47.8817   25.6817 H         1 UNK         0.0000 
     48 H48         4.3600   54.3560   19.1827 H         1 UNK         0.0000 
     49 H49         6.5113   55.3836   18.4789 H         1 UNK         0.0000 
     50 H50         7.8735   55.5612   22.5357 H         1 UNK         0.0000 
     51 H51         2.1242   50.3665   23.9005 H         1 UNK         0.0000 
     52 H52         2.3028   48.3810   22.4817 H         1 UNK         0.0000 
     53 H53         1.2866   50.7352   19.0441 H         1 UNK         0.0000 
     54 H54         1.1033   52.7270   20.4576 H         1 UNK         0.0000 
     55 H55         2.5637   47.3465   18.2169 H         1 UNK         0.0000 
     56 H56         1.4271   48.6773   17.9887 H         1 UNK         0.0000 
     57 H57         3.1043   49.0025   18.4818 H         1 UNK         0.0000 
@<TRIPOS>BOND
     1    1    2 1    
     2    1   40 1    
     3    1   41 1    
     4    1   42 1    
     5    2    3 1    
     6    2   11 1    
     7    2    4 1    
     8    4    5 1    
     9    4   43 1    
    10    4   44 1    
    11    5   10 ar   
    12    5    6 ar   
    13    6    7 ar   
    14    6   45 1    
    15    7    8 ar   
    16    7   12 1    
    17    8    9 ar   
    18    8   46 1    
    19    9   10 ar   
    20    9   47 1    
    21   10   11 1    
    22   12   13 1    
    23   12   39 2    
    24   13   19 2    
    25   13   14 1    
    26   14   16 1    
    27   14   31 1    
    28   14   15 1    
    29   16   21 am   BACKBONE|DICT|INTERRES
    30   16   17 am   BACKBONE|DICT|INTERRES
    31   17   18 2    
    32   17   19 1    
    33   19   20 1    
    34   21   29 1    
    35   21   22 2    
    36   22   23 1    
    37   23   28 ar   
    38   23   24 ar   
    39   24   25 ar   
    40   24   48 1    
    41   25   26 ar   
    42   25   49 1    
    43   26   27 ar   
    44   26   30 1    
    45   27   28 ar   
    46   27   50 1    
    47   28   29 1    
    48   31   36 ar   
    49   31   32 ar   
    50   32   33 ar   
    51   32   51 1    
    52   33   34 ar   
    53   33   52 1    
    54   34   35 ar   
    55   34   37 1    
    56   35   36 ar   
    57   35   53 1    
    58   36   54 1    
    59   37   38 1    
    60   38   55 1    
    61   38   56 1    
    62   38   57 1    
@<TRIPOS>SUBSTRUCTURE
     1 UNK         1 GROUP             0       ****    0 ROOT    
