@<TRIPOS>MOLECULE
ZINC04127928_2080
67   72    1
SMALL
USER_CHARGES


@<TRIPOS>ATOM
      1 C1          1.9048   48.1195   19.1601 C.3       1 UNK         0.0000 
      2 C2          1.5529   49.1550   20.2482 C.3       1 UNK         0.0000 
      3 H3          1.8584   48.7300   21.2070 H         1 UNK         0.0000 
      4 C4          0.0335   49.4171   20.3094 C.3       1 UNK         0.0000 
      5 C5         -0.3240   50.3456   21.4830 C.3       1 UNK         0.0000 
      6 C6          0.4625   51.6738   21.4312 C.3       1 UNK         0.0000 
      7 C7          1.9891   51.4785   21.2523 C.3       1 UNK         0.0000 
      8 H8          2.2788   50.9665   22.1754 H         1 UNK         0.0000 
      9 C9          2.3227   50.4964   20.0808 C.3       1 UNK         0.0000 
     10 H10         3.3733   50.2255   20.2025 H         1 UNK         0.0000 
     11 C11         2.1928   51.1672   18.6914 C.3       1 UNK         0.0000 
     12 N12         2.7076   52.7547   21.2365 N.am      1 UNK         0.0000 
     13 C13         4.0345   52.8786   21.4005 C.2       1 UNK         0.0000 
     14 O14         4.7644   51.9256   21.6816 O.2       1 UNK         0.0000 
     15 C15         4.6198   54.2911   21.1795 C.3       1 UNK         0.0000 
     16 H16         3.8594   55.0024   21.5000 H         1 UNK         0.0000 
     17 C17         5.0633   54.5109   19.7207 C.3       1 UNK         0.0000 
     18 C18         5.5533   53.3081   18.8979 C.2       1 UNK         0.0000 
     19 C19         5.6841   53.7467   17.6423 C.2       1 UNK         0.0000 
     20 C20         5.3790   55.2272   17.7322 C.3       1 UNK         0.0000 
     21 H21         5.0542   55.6913   16.8001 H         1 UNK         0.0000 
     22 O22         4.3321   55.1891   18.7237 O.3       1 UNK         0.0000 
     23 C23         6.4985   56.0117   18.5201 C.3       1 UNK         0.0000 
     24 H24         6.3871   57.0815   18.3316 H         1 UNK         0.0000 
     25 C25         5.9954   55.6793   19.9406 C.3       1 UNK         0.0000 
     26 H26         5.5044   56.5976   20.2639 H         1 UNK         0.0000 
     27 C27         6.7870   55.3084   21.1790 C.2       1 UNK         0.0000 
     28 O28         7.9151   55.6959   21.4636 O.2       1 UNK         0.0000 
     29 N29         5.9050   54.5526   21.8948 N.am      1 UNK         0.0000 
     30 C30         6.2231   54.0796   23.2510 C.3       1 UNK         0.0000 
     31 C31         6.7036   55.0457   24.3185 C.3       1 UNK         0.0000 
     32 C32         5.3173   54.4576   24.4025 C.3       1 UNK         0.0000 
     33 C33         7.9721   55.6221   18.2049 C.2       1 UNK         0.0000 
     34 O34         8.3924   54.4972   18.4817 O.2       1 UNK         0.0000 
     35 N35         8.7213   56.5986   17.6480 N.am      1 UNK         0.0000 
     36 C36        10.0771   56.5886   17.2683 C.ar      1 UNK         0.0000 
     37 C37        10.9037   55.4513   17.2731 C.ar      1 UNK         0.0000 
     38 C38        12.2356   55.5579   16.8821 C.ar      1 UNK         0.0000 
     39 C39        12.7473   56.7901   16.4858 C.ar      1 UNK         0.0000 
     40 C40        11.9342   57.9203   16.4712 C.ar      1 UNK         0.0000 
     41 C41        10.6014   57.8190   16.8591 C.ar      1 UNK         0.0000 
     42 Cl42       14.4018   56.9181   16.0114 Cl        1 UNK         0.0000 
     43 H43         1.5272   48.4123   18.1791 H         1 UNK         0.0000 
     44 H44         2.9853   47.9983   19.0674 H         1 UNK         0.0000 
     45 H45         1.4838   47.1416   19.3967 H         1 UNK         0.0000 
     46 H46        -0.4963   48.4699   20.4209 H         1 UNK         0.0000 
     47 H47        -0.3243   49.8233   19.3613 H         1 UNK         0.0000 
     48 H48        -0.1102   49.8349   22.4247 H         1 UNK         0.0000 
     49 H49        -1.3961   50.5468   21.4850 H         1 UNK         0.0000 
     50 H50         0.2597   52.2471   22.3369 H         1 UNK         0.0000 
     51 H51         0.0801   52.2643   20.5967 H         1 UNK         0.0000 
     52 H52         1.1651   51.4517   18.4675 H         1 UNK         0.0000 
     53 H53         2.8067   52.0656   18.6209 H         1 UNK         0.0000 
     54 H54         2.5383   50.5052   17.8972 H         1 UNK         0.0000 
     55 H55         2.2008   53.5487   20.8632 H         1 UNK         0.0000 
     56 H56         5.7467   52.3158   19.2816 H         1 UNK         0.0000 
     57 H57         6.0180   53.2159   16.7640 H         1 UNK         0.0000 
     58 H58         6.6553   53.0775   23.2539 H         1 UNK         0.0000 
     59 H59         7.4791   54.6975   24.9980 H         1 UNK         0.0000 
     60 H60         6.8276   56.0967   24.0560 H         1 UNK         0.0000 
     61 H61         4.4501   55.0845   24.1980 H         1 UNK         0.0000 
     62 H62         5.1063   53.6972   25.1549 H         1 UNK         0.0000 
     63 H63         8.2542   57.4803   17.5024 H         1 UNK         0.0000 
     64 H64        10.5520   54.4797   17.5785 H         1 UNK         0.0000 
     65 H65        12.8702   54.6845   16.8961 H         1 UNK         0.0000 
     66 H66        12.3360   58.8721   16.1582 H         1 UNK         0.0000 
     67 H67         9.9817   58.7038   16.8406 H         1 UNK         0.0000 
@<TRIPOS>BOND
     1    1    2 1    
     2    1   43 1    
     3    1   44 1    
     4    1   45 1    
     5    2    3 1    
     6    2    9 1    
     7    2    4 1    
     8    4    5 1    
     9    4   46 1    
    10    4   47 1    
    11    5    6 1    
    12    5   48 1    
    13    5   49 1    
    14    6    7 1    
    15    6   50 1    
    16    6   51 1    
    17    7    8 1    
    18    7    9 1    
    19    7   12 1    
    20    9   10 1    
    21    9   11 1    
    22   11   52 1    
    23   11   53 1    
    24   11   54 1    
    25   12   13 am   BACKBONE|DICT|INTERRES
    26   12   55 1    
    27   13   14 2    
    28   13   15 1    
    29   15   16 1    
    30   15   29 1    
    31   15   17 1    
    32   17   22 1    
    33   17   25 1    
    34   17   18 1    
    35   18   19 2    
    36   18   56 1    
    37   19   20 1    
    38   19   57 1    
    39   20   21 1    
    40   20   22 1    
    41   20   23 1    
    42   23   24 1    
    43   23   25 1    
    44   23   33 1    
    45   25   26 1    
    46   25   27 1    
    47   27   28 2    
    48   27   29 am   BACKBONE|DICT|INTERRES
    49   29   30 1    
    50   30   32 1    
    51   30   31 1    
    52   30   58 1    
    53   31   32 1    
    54   31   59 1    
    55   31   60 1    
    56   32   61 1    
    57   32   62 1    
    58   33   34 2    
    59   33   35 am   BACKBONE|DICT|INTERRES
    60   35   36 1    
    61   35   63 1    
    62   36   41 ar   
    63   36   37 ar   
    64   37   38 ar   
    65   37   64 1    
    66   38   39 ar   
    67   38   65 1    
    68   39   40 ar   
    69   39   42 1    
    70   40   41 ar   
    71   40   66 1    
    72   41   67 1    
@<TRIPOS>SUBSTRUCTURE
     1 UNK         1 GROUP             0       ****    0 ROOT    
