@<TRIPOS>MOLECULE
ZINC67393139_6230
61   62    1
SMALL
USER_CHARGES


@<TRIPOS>ATOM
      1 C1         -0.1522   61.4020   14.2302 C.3       1 UNK         0.0000 
      2 C2          0.3589   60.0777   14.8145 C.3       1 UNK         0.0000 
      3 C3          1.8718   60.1009   15.0804 C.3       1 UNK         0.0000 
      4 N4          2.3102   58.7922   15.7718 N.4       1 UNK         0.0000 
      5 C5          3.7563   58.8597   16.2976 C.3       1 UNK         0.0000 
      6 C6          4.2583   57.4159   16.2944 C.3       1 UNK         0.0000 
      7 C7          3.1811   56.5326   15.6301 C.3       1 UNK         0.0000 
      8 H8          3.6578   55.8886   14.8869 H         1 UNK         0.0000 
      9 C9          2.2873   57.5342   14.8832 C.3       1 UNK         0.0000 
     10 C10         2.3718   55.5846   16.5673 C.3       1 UNK         0.0000 
     11 N11         3.1139   55.0059   17.6893 N.am      1 UNK         0.0000 
     12 C12         4.2170   54.2260   17.5874 C.2       1 UNK         0.0000 
     13 O13         4.6487   53.8371   16.5002 O.2       1 UNK         0.0000 
     14 C14         4.9540   53.9534   18.8662 C.2       1 UNK         0.0000 
     15 O15         6.1611   53.6979   18.8500 O.2       1 UNK         0.0000 
     16 N16         4.2190   54.0369   20.0060 N.am      1 UNK         0.0000 
     17 C17         4.6872   54.1272   21.3340 C.ar      1 UNK         0.0000 
     18 C18         5.9176   54.7251   21.6375 C.ar      1 UNK         0.0000 
     19 C19         6.3238   54.8967   22.9572 C.ar      1 UNK         0.0000 
     20 C20         5.4948   54.5114   24.0163 C.ar      1 UNK         0.0000 
     21 C21         4.2615   53.9119   23.7122 C.ar      1 UNK         0.0000 
     22 C22         3.8570   53.7065   22.3879 C.ar      1 UNK         0.0000 
     23 C23         2.5246   53.0114   22.1286 C.3       1 UNK         0.0000 
     24 C24         5.9147   54.8146   25.4381 C.2       1 UNK         0.0000 
     25 O25         6.7591   55.6772   25.6811 O.2       1 UNK         0.0000 
     26 N26         5.3286   54.0945   26.4079 N.am      1 UNK         0.0000 
     27 C27         5.6056   54.2031   27.8383 C.3       1 UNK         0.0000 
     28 C28         4.5148   53.4736   28.6340 C.3       1 UNK         0.0000 
     29 C29         7.0154   53.6949   28.1984 C.3       1 UNK         0.0000 
     30 H30        -1.2275   61.3612   14.0515 H         1 UNK         0.0000 
     31 H31         0.3304   61.6303   13.2788 H         1 UNK         0.0000 
     32 H32         0.0379   62.2358   14.9082 H         1 UNK         0.0000 
     33 H33        -0.1729   59.8652   15.7440 H         1 UNK         0.0000 
     34 H34         0.1123   59.2691   14.1254 H         1 UNK         0.0000 
     35 H35         2.4745   60.2079   14.1763 H         1 UNK         0.0000 
     36 H36         2.1389   60.8966   15.7790 H         1 UNK         0.0000 
     37 H37         4.3340   59.4879   15.6143 H         1 UNK         0.0000 
     38 H38         3.7218   59.3246   17.2817 H         1 UNK         0.0000 
     39 H39         5.1681   57.3854   15.6909 H         1 UNK         0.0000 
     40 H40         4.5677   57.0843   17.2845 H         1 UNK         0.0000 
     41 H41         1.2523   57.2234   14.7308 H         1 UNK         0.0000 
     42 H42         2.6950   57.8185   13.9115 H         1 UNK         0.0000 
     43 H43         1.5226   56.1209   16.9939 H         1 UNK         0.0000 
     44 H44         1.9292   54.7751   15.9836 H         1 UNK         0.0000 
     45 H45         2.8058   55.2962   18.6068 H         1 UNK         0.0000 
     46 H46         3.2143   54.0757   19.9171 H         1 UNK         0.0000 
     47 H47         6.5712   55.0835   20.8560 H         1 UNK         0.0000 
     48 H48         7.2778   55.3706   23.1469 H         1 UNK         0.0000 
     49 H49         3.5945   53.6083   24.5056 H         1 UNK         0.0000 
     50 H50         2.0887   52.5980   23.0397 H         1 UNK         0.0000 
     51 H51         1.8072   53.6969   21.6817 H         1 UNK         0.0000 
     52 H52         2.6646   52.1814   21.4342 H         1 UNK         0.0000 
     53 H53         4.6845   53.3672   26.1356 H         1 UNK         0.0000 
     54 H54         5.5506   55.2596   28.1162 H         1 UNK         0.0000 
     55 H55         4.7042   53.5478   29.7020 H         1 UNK         0.0000 
     56 H56         3.5287   53.9037   28.4555 H         1 UNK         0.0000 
     57 H57         4.4852   52.4099   28.3972 H         1 UNK         0.0000 
     58 H58         7.1803   53.7301   29.2746 H         1 UNK         0.0000 
     59 H59         7.1634   52.6606   27.8892 H         1 UNK         0.0000 
     60 H60         7.7897   54.3155   27.7477 H         1 UNK         0.0000 
     61 H61         1.6988   58.6581   16.5689 H         1 UNK         0.0000 
@<TRIPOS>BOND
     1    1    2 1    
     2    1   30 1    
     3    1   31 1    
     4    1   32 1    
     5    2    3 1    
     6    2   33 1    
     7    2   34 1    
     8    3    4 1    
     9    3   35 1    
    10    3   36 1    
    11    4    9 1    
    12    4    5 1    
    13    4   61 1    
    14    5    6 1    
    15    5   37 1    
    16    5   38 1    
    17    6    7 1    
    18    6   39 1    
    19    6   40 1    
    20    7    8 1    
    21    7    9 1    
    22    7   10 1    
    23    9   41 1    
    24    9   42 1    
    25   10   11 1    
    26   10   43 1    
    27   10   44 1    
    28   11   12 am   BACKBONE|DICT|INTERRES
    29   11   45 1    
    30   12   13 2    
    31   12   14 1    
    32   14   15 2    
    33   14   16 am   BACKBONE|DICT|INTERRES
    34   16   17 1    
    35   16   46 1    
    36   17   22 ar   
    37   17   18 ar   
    38   18   19 ar   
    39   18   47 1    
    40   19   20 ar   
    41   19   48 1    
    42   20   21 ar   
    43   20   24 1    
    44   21   22 ar   
    45   21   49 1    
    46   22   23 1    
    47   23   50 1    
    48   23   51 1    
    49   23   52 1    
    50   24   25 2    
    51   24   26 am   BACKBONE|DICT|INTERRES
    52   26   27 1    
    53   26   53 1    
    54   27   28 1    
    55   27   29 1    
    56   27   54 1    
    57   28   55 1    
    58   28   56 1    
    59   28   57 1    
    60   29   58 1    
    61   29   59 1    
    62   29   60 1    
@<TRIPOS>SUBSTRUCTURE
     1 UNK         1 GROUP             0       ****    0 ROOT    
