@<TRIPOS>MOLECULE
ZINC12245072_4976
78   82    1
SMALL
USER_CHARGES


@<TRIPOS>ATOM
      1 C1          9.3790   49.6939   14.2037 C.3       1 UNK         0.0000 
      2 C2          9.7953   50.5691   15.4204 C.3       1 UNK         0.0000 
      3 C3         10.6430   51.8429   15.0973 C.3       1 UNK         0.0000 
      4 H4         11.7287   51.7380   15.1197 H         1 UNK         0.0000 
      5 C5         10.1787   52.5932   13.7973 C.3       1 UNK         0.0000 
      6 C6          8.6520   52.7755   13.8447 C.2       1 UNK         0.0000 
      7 C7          7.9432   52.2846   14.8904 C.2       1 UNK         0.0000 
      8 C8          8.7443   51.5763   16.0066 C.3       1 UNK         0.0000 
      9 H9          8.1282   51.2462   16.8433 H         1 UNK         0.0000 
     10 C10         9.9629   52.4839   16.3368 C.3       1 UNK         0.0000 
     11 C11         6.4371   52.4572   15.0309 C.3       1 UNK         0.0000 
     12 C12         6.0507   53.5141   16.0836 C.3       1 UNK         0.0000 
     13 C13         4.8362   53.7981   18.3853 C.3       1 UNK         0.0000 
     14 C14         3.9319   52.9605   19.3031 C.3       1 UNK         0.0000 
     15 C15         3.7716   53.5296   20.7228 C.3       1 UNK         0.0000 
     16 N16         5.0288   53.8928   21.4063 N.pl3     1 UNK         0.0000 
     17 C17         5.8720   54.7419   20.5476 C.3       1 UNK         0.0000 
     18 C18         6.1245   54.1341   19.1565 C.3       1 UNK         0.0000 
     19 C19         5.0571   54.0441   22.7946 C.ar      1 UNK         0.0000 
     20 C20         3.8737   54.0968   23.5422 C.ar      1 UNK         0.0000 
     21 C21         3.9043   54.1464   24.9266 C.ar      1 UNK         0.0000 
     22 C22         5.1243   54.1472   25.6188 C.ar      1 UNK         0.0000 
     23 C23         6.3110   54.1434   24.8761 C.ar      1 UNK         0.0000 
     24 C24         6.2777   54.0970   23.4830 C.ar      1 UNK         0.0000 
     25 C25         5.1700   54.0965   27.1321 C.2       1 UNK         0.0000 
     26 O26         6.2270   53.9224   27.7381 O.2       1 UNK         0.0000 
     27 N27         3.9847   54.2508   27.7488 N.am      1 UNK         0.0000 
     28 C28         3.6739   54.1765   29.1841 C.3       1 UNK         0.0000 
     29 H29         4.5932   54.4152   29.7252 H         1 UNK         0.0000 
     30 C30         2.6367   55.2593   29.5689 C.3       1 UNK         0.0000 
     31 C31         1.3630   55.2635   28.7029 C.3       1 UNK         0.0000 
     32 C32         0.5758   53.9350   28.6810 C.3       1 UNK         0.0000 
     33 C33         1.3245   52.7163   28.0895 C.3       1 UNK         0.0000 
     34 N34         2.3548   52.1318   28.9539 N.am      1 UNK         0.0000 
     35 C35         3.3040   52.7537   29.6836 C.2       1 UNK         0.0000 
     36 O36         3.7547   52.2677   30.7195 O.2       1 UNK         0.0000 
     37 C37        10.4304   49.6179   16.4761 C.3       1 UNK         0.0000 
     38 H38         8.7040   48.8988   14.5093 H         1 UNK         0.0000 
     39 H39         8.8737   50.2302   13.4040 H         1 UNK         0.0000 
     40 H40        10.2544   49.2255   13.7486 H         1 UNK         0.0000 
     41 H41        10.4708   52.0358   12.9067 H         1 UNK         0.0000 
     42 H42        10.6661   53.5653   13.7275 H         1 UNK         0.0000 
     43 H43         8.1449   53.2965   13.0454 H         1 UNK         0.0000 
     44 H44        10.4681   52.2913   17.2824 H         1 UNK         0.0000 
     45 H45         9.8228   53.5672   16.2967 H         1 UNK         0.0000 
     46 H46         6.0106   51.4788   15.2564 H         1 UNK         0.0000 
     47 H47         6.0137   52.7413   14.0667 H         1 UNK         0.0000 
     48 H48         5.4696   54.3393   15.6632 H         1 UNK         0.0000 
     49 H49         6.9317   53.9115   16.5891 H         1 UNK         0.0000 
     50 H50         4.2778   54.6952   18.1105 H         1 UNK         0.0000 
     51 H51         4.3263   51.9499   19.4256 H         1 UNK         0.0000 
     52 H52         2.9627   52.7907   18.8323 H         1 UNK         0.0000 
     53 H53         3.2744   52.7560   21.3110 H         1 UNK         0.0000 
     54 H54         3.1167   54.3973   20.7296 H         1 UNK         0.0000 
     55 H55         5.3899   55.7158   20.4506 H         1 UNK         0.0000 
     56 H56         6.8419   54.9260   21.0124 H         1 UNK         0.0000 
     57 H57         6.7739   54.7881   18.5774 H         1 UNK         0.0000 
     58 H58         6.7043   53.2227   19.2806 H         1 UNK         0.0000 
     59 H59         2.9066   54.0856   23.0638 H         1 UNK         0.0000 
     60 H60         2.9518   54.1606   25.4362 H         1 UNK         0.0000 
     61 H61         7.2702   54.1413   25.3730 H         1 UNK         0.0000 
     62 H62         7.2163   54.0514   22.9508 H         1 UNK         0.0000 
     63 H63         3.1718   54.3480   27.1654 H         1 UNK         0.0000 
     64 H64         3.1004   56.2435   29.5079 H         1 UNK         0.0000 
     65 H65         2.3042   55.1415   30.5959 H         1 UNK         0.0000 
     66 H66         0.7139   56.0607   29.0663 H         1 UNK         0.0000 
     67 H67         1.6210   55.5461   27.6817 H         1 UNK         0.0000 
     68 H68         0.2116   53.6930   29.6809 H         1 UNK         0.0000 
     69 H69        -0.3224   54.0963   28.0817 H         1 UNK         0.0000 
     70 H70         0.5965   51.9275   27.8870 H         1 UNK         0.0000 
     71 H71         1.7514   52.9383   27.1111 H         1 UNK         0.0000 
     72 H72         2.1507   51.2006   29.2810 H         1 UNK         0.0000 
     73 H73         9.6986   48.8973   16.8387 H         1 UNK         0.0000 
     74 H74        11.2645   49.0603   16.0494 H         1 UNK         0.0000 
     75 H75        10.8182   50.1336   17.3529 H         1 UNK         0.0000 
     76 N76         5.1465   52.8967   17.1718 N.4       1 UNK         0.0000 
     77 H77         5.5516   52.0299   17.5306 H         1 UNK         0.0000 
     78 H78         4.2728   52.5826   16.7709 H         1 UNK         0.0000 
@<TRIPOS>BOND
     1    1    2 1    
     2    1   38 1    
     3    1   39 1    
     4    1   40 1    
     5    2    8 1    
     6    2    3 1    
     7    2   37 1    
     8    3    4 1    
     9    3   10 1    
    10    3    5 1    
    11    5    6 1    
    12    5   41 1    
    13    5   42 1    
    14    6    7 2    
    15    6   43 1    
    16    7    8 1    
    17    7   11 1    
    18    8    9 1    
    19    8   10 1    
    20   10   44 1    
    21   10   45 1    
    22   11   12 1    
    23   11   46 1    
    24   11   47 1    
    25   12   48 1    
    26   12   49 1    
    27   12   76 1    
    28   13   18 1    
    29   13   14 1    
    30   13   50 1    
    31   13   76 1    
    32   14   15 1    
    33   14   51 1    
    34   14   52 1    
    35   15   16 1    
    36   15   53 1    
    37   15   54 1    
    38   16   17 1    
    39   16   19 1    
    40   17   18 1    
    41   17   55 1    
    42   17   56 1    
    43   18   57 1    
    44   18   58 1    
    45   19   24 ar   
    46   19   20 ar   
    47   20   21 ar   
    48   20   59 1    
    49   21   22 ar   
    50   21   60 1    
    51   22   23 ar   
    52   22   25 1    
    53   23   24 ar   
    54   23   61 1    
    55   24   62 1    
    56   25   26 2    
    57   25   27 am   BACKBONE|DICT|INTERRES
    58   27   28 1    
    59   27   63 1    
    60   28   29 1    
    61   28   35 1    
    62   28   30 1    
    63   30   31 1    
    64   30   64 1    
    65   30   65 1    
    66   31   32 1    
    67   31   66 1    
    68   31   67 1    
    69   32   33 1    
    70   32   68 1    
    71   32   69 1    
    72   33   34 1    
    73   33   70 1    
    74   33   71 1    
    75   34   35 am   BACKBONE|DICT|INTERRES
    76   34   72 1    
    77   35   36 2    
    78   37   73 1    
    79   37   74 1    
    80   37   75 1    
    81   76   77 1    
    82   76   78 1    
@<TRIPOS>SUBSTRUCTURE
     1 UNK         1 GROUP             0       ****    0 ROOT    
