@<TRIPOS>MOLECULE
ZINC63541407_1556
49   52    1
SMALL
USER_CHARGES


@<TRIPOS>ATOM
      1 C1          6.4029   53.9810   27.0441 C.3       1 UNK         0.0000 
      2 C2          5.5688   54.5520   25.8818 C.3       1 UNK         0.0000 
      3 H3          5.5520   55.6421   25.9737 H         1 UNK         0.0000 
      4 C4          4.1399   54.0651   25.8455 C.3       1 UNK         0.0000 
      5 H5          4.0829   53.0000   26.0803 H         1 UNK         0.0000 
      6 C6          3.7418   54.2954   24.3774 C.2       1 UNK         0.0000 
      7 O7          2.6069   54.4968   23.9393 O.2       1 UNK         0.0000 
      8 N8          4.9031   54.2131   23.6863 N.am      1 UNK         0.0000 
      9 N9          6.0325   54.1643   24.5579 N.3       1 UNK         0.0000 
     10 C10         7.1043   55.0598   24.1484 C.3       1 UNK         0.0000 
     11 C11         4.9794   53.9806   22.2880 C.ar      1 UNK         0.0000 
     12 C12         5.6098   54.8961   21.4332 C.ar      1 UNK         0.0000 
     13 C13         5.6658   54.6567   20.0629 C.ar      1 UNK         0.0000 
     14 C14         5.0929   53.5003   19.5406 C.ar      1 UNK         0.0000 
     15 C15         4.4525   52.5876   20.3728 C.ar      1 UNK         0.0000 
     16 C16         4.3865   52.8323   21.7411 C.ar      1 UNK         0.0000 
     17 N17         3.2170   54.7449   26.7883 N.pl3     1 UNK         0.0000 
     18 S18         2.4375   53.9097   28.1315 S.o2      1 UNK         0.0000 
     19 O19         3.4351   53.0421   28.7666 O.2       1 UNK         0.0000 
     20 O20         1.7257   54.9249   28.9149 O.2       1 UNK         0.0000 
     21 C21         1.1753   52.8277   27.4543 C.ar      1 UNK         0.0000 
     22 C22         0.2227   52.2745   28.3144 C.ar      1 UNK         0.0000 
     23 C23        -0.6552   51.2963   27.8441 C.ar      1 UNK         0.0000 
     24 C24        -0.5740   50.8551   26.5201 C.ar      1 UNK         0.0000 
     25 C25         0.3035   51.4873   25.6332 C.ar      1 UNK         0.0000 
     26 C26         1.1722   52.4618   26.1060 C.ar      1 UNK         0.0000 
     27 C27         0.3549   50.9754   24.2515 C.ar      1 UNK         0.0000 
     28 C28        -0.3474   49.8679   23.9178 C.ar      1 UNK         0.0000 
     29 C29        -1.1171   49.0884   24.8777 C.ar      1 UNK         0.0000 
     30 O30        -1.5719   47.9722   24.6443 O.2       1 UNK         0.0000 
     31 N31        -1.2451   49.6969   26.0817 N.pl3     1 UNK         0.0000 
     32 H32        -1.6991   49.1217   26.7885 H         1 UNK         0.0000 
     33 H33         5.9501   54.2271   28.0055 H         1 UNK         0.0000 
     34 H34         6.4763   52.8966   26.9869 H         1 UNK         0.0000 
     35 H35         7.4154   54.3824   27.0543 H         1 UNK         0.0000 
     36 H36         7.9043   55.0295   24.8814 H         1 UNK         0.0000 
     37 H37         7.5055   54.7341   23.1918 H         1 UNK         0.0000 
     38 H38         6.7695   56.0938   24.0484 H         1 UNK         0.0000 
     39 H39         6.0502   55.8034   21.8135 H         1 UNK         0.0000 
     40 H40         6.1519   55.3633   19.4061 H         1 UNK         0.0000 
     41 H41         5.1412   53.3049   18.4787 H         1 UNK         0.0000 
     42 H42         4.0088   51.6966   19.9502 H         1 UNK         0.0000 
     43 H43         3.8685   52.1235   22.3693 H         1 UNK         0.0000 
     44 H44         2.6448   55.4790   26.3661 H         1 UNK         0.0000 
     45 H45         0.2049   52.5509   29.3597 H         1 UNK         0.0000 
     46 H46        -1.3328   50.8078   28.5305 H         1 UNK         0.0000 
     47 H47         1.8896   52.8486   25.4222 H         1 UNK         0.0000 
     48 H48         0.9218   51.5041   23.4970 H         1 UNK         0.0000 
     49 H49        -0.3218   49.5034   22.9029 H         1 UNK         0.0000 
@<TRIPOS>BOND
     1    1    2 1    
     2    1   33 1    
     3    1   34 1    
     4    1   35 1    
     5    2    3 1    
     6    2    9 1    
     7    2    4 1    
     8    4    5 1    
     9    4    6 1    
    10    4   17 1    
    11    6    7 2    
    12    6    8 am   BACKBONE|DICT|INTERRES
    13    8    9 1    
    14    8   11 1    
    15    9   10 1    
    16   10   36 1    
    17   10   37 1    
    18   10   38 1    
    19   11   16 ar   
    20   11   12 ar   
    21   12   13 ar   
    22   12   39 1    
    23   13   14 ar   
    24   13   40 1    
    25   14   15 ar   
    26   14   41 1    
    27   15   16 ar   
    28   15   42 1    
    29   16   43 1    
    30   17   18 1    
    31   17   44 1    
    32   18   19 2    
    33   18   20 2    
    34   18   21 1    
    35   21   26 ar   
    36   21   22 ar   
    37   22   23 ar   
    38   22   45 1    
    39   23   24 ar   
    40   23   46 1    
    41   24   31 ar   
    42   24   25 ar   
    43   25   26 ar   
    44   25   27 ar   
    45   26   47 1    
    46   27   28 ar   
    47   27   48 1    
    48   28   29 ar   
    49   28   49 1    
    50   29   30 2    
    51   29   31 ar   
    52   31   32 1    
@<TRIPOS>SUBSTRUCTURE
     1 UNK         1 GROUP             0       ****    0 ROOT    
