ZINC14543915_5186
                    3D
 Schrodinger Suite 2024-2.
 67 72  0  0  1  0            999 V2000
    0.4684   51.9602   20.2187 C   0  0  0  0  0  0
    0.4364   52.1520   21.6282 O   0  0  0  0  0  0
    1.5450   52.6550   22.2915 C   0  0  0  0  0  0
    2.7513   52.8982   21.6244 C   0  0  0  0  0  0
    3.8471   53.4445   22.2731 C   0  0  0  0  0  0
    3.7920   53.7260   23.6506 C   0  0  0  0  0  0
    4.9253   54.2611   24.3175 C   0  0  0  0  0  0
    4.8923   54.4980   25.6860 C   0  0  0  0  0  0
    3.7482   54.2129   26.4181 C   0  0  0  0  0  0
    2.6174   53.6968   25.7914 C   0  0  0  0  0  0
    2.5932   53.4427   24.3832 C   0  0  0  0  0  0
    1.4505   52.9090   23.6774 C   0  0  0  0  0  0
    0.1742   52.5564   24.4823 C   0  0  2  0  0  0
    0.1120   53.2966   25.2770 H   0  0  0  0  0  0
    0.2666   51.1361   25.1102 C   0  0  2  0  0  0
    1.1044   51.1597   25.8048 H   0  0  0  0  0  0
    0.5555   49.9841   24.1314 C   0  0  0  0  0  0
   -0.2185   48.8253   24.7067 C   0  0  0  0  0  0
   -1.0464   49.2275   25.6810 C   0  0  0  0  0  0
   -0.9513   50.7170   25.9511 C   0  0  2  0  0  0
   -0.7532   50.9047   27.0083 H   0  0  0  0  0  0
   -2.2362   51.4602   25.5938 C   0  0  0  0  0  0
   -3.4131   51.2278   26.3204 C   0  0  0  0  0  0
   -4.6116   51.8621   25.9859 C   0  0  0  0  0  0
   -4.6289   52.7794   24.9336 C   0  0  0  0  0  0
   -3.4650   53.0449   24.2160 C   0  0  0  0  0  0
   -2.2802   52.3759   24.5237 C   0  0  0  0  0  0
   -1.1186   52.7314   23.8148 N   0  0  0  0  0  0
   -6.1297   51.5207   26.8873 S   0  0  0  0  0  0
   -5.9802   52.0971   28.2279 O   0  0  0  0  0  0
   -7.2347   51.9330   26.0147 O   0  0  0  0  0  0
   -6.2396   49.7719   27.0644 N   0  0  0  0  0  0
   -5.5698   49.1067   28.2054 C   0  0  0  0  0  0
   -6.6120   49.0747   29.3476 C   0  0  0  0  0  0
   -6.0240   48.3659   30.5851 C   0  0  0  0  0  0
   -5.5491   46.9376   30.2356 C   0  0  0  0  0  0
   -4.6151   46.9091   29.0036 C   0  0  0  0  0  0
   -5.2315   47.6563   27.8017 C   0  0  0  0  0  0
   -0.5074   51.6091   19.8848 H   0  0  0  0  0  0
    0.6839   52.8923   19.6933 H   0  0  0  0  0  0
    1.2030   51.2072   19.9304 H   0  0  0  0  0  0
    2.8558   52.7031   20.5669 H   0  0  0  0  0  0
    4.7558   53.6432   21.7219 H   0  0  0  0  0  0
    5.8259   54.4713   23.7578 H   0  0  0  0  0  0
    5.7611   54.8998   26.1845 H   0  0  0  0  0  0
    3.7388   54.3935   27.4830 H   0  0  0  0  0  0
    1.7637   53.4815   26.4128 H   0  0  0  0  0  0
    0.2061   50.1914   23.1219 H   0  0  0  0  0  0
    1.6240   49.7658   24.0801 H   0  0  0  0  0  0
   -0.1056   47.8167   24.3391 H   0  0  0  0  0  0
   -1.7229   48.5899   26.2299 H   0  0  0  0  0  0
   -3.3794   50.5261   27.1401 H   0  0  0  0  0  0
   -5.5436   53.2929   24.6698 H   0  0  0  0  0  0
   -3.4877   53.7713   23.4194 H   0  0  0  0  0  0
   -1.1304   53.4642   23.1227 H   0  0  0  0  0  0
   -6.1731   49.2673   26.1780 H   0  0  0  0  0  0
   -4.7347   49.6827   28.6101 H   0  0  0  0  0  0
   -6.9295   50.0822   29.6175 H   0  0  0  0  0  0
   -7.5154   48.5500   29.0311 H   0  0  0  0  0  0
   -5.1846   48.9444   30.9770 H   0  0  0  0  0  0
   -6.7650   48.3270   31.3850 H   0  0  0  0  0  0
   -5.0447   46.4979   31.0974 H   0  0  0  0  0  0
   -6.4225   46.3128   30.0406 H   0  0  0  0  0  0
   -3.6676   47.3789   29.2689 H   0  0  0  0  0  0
   -4.3763   45.8825   28.7249 H   0  0  0  0  0  0
   -6.1238   47.1256   27.4650 H   0  0  0  0  0  0
   -4.5354   47.6523   26.9620 H   0  0  0  0  0  0
  1  2  1  0  0  0
  1 39  1  0  0  0
  1 40  1  0  0  0
  1 41  1  0  0  0
  2  3  1  0  0  0
  3 12  2  0  0  0
  3  4  1  0  0  0
  4  5  2  0  0  0
  4 42  1  0  0  0
  5  6  1  0  0  0
  5 43  1  0  0  0
  6 11  2  0  0  0
  6  7  1  0  0  0
  7  8  2  0  0  0
  7 44  1  0  0  0
  8  9  1  0  0  0
  8 45  1  0  0  0
  9 10  2  0  0  0
  9 46  1  0  0  0
 10 11  1  0  0  0
 10 47  1  0  0  0
 11 12  1  0  0  0
 12 13  1  0  0  0
 13 14  1  0  0  0
 13 28  1  0  0  0
 13 15  1  0  0  0
 15 16  1  0  0  0
 15 20  1  0  0  0
 15 17  1  0  0  0
 17 18  1  0  0  0
 17 48  1  0  0  0
 17 49  1  0  0  0
 18 19  2  0  0  0
 18 50  1  0  0  0
 19 20  1  0  0  0
 19 51  1  0  0  0
 20 21  1  0  0  0
 20 22  1  0  0  0
 22 27  2  0  0  0
 22 23  1  0  0  0
 23 24  2  0  0  0
 23 52  1  0  0  0
 24 25  1  0  0  0
 24 29  1  0  0  0
 25 26  2  0  0  0
 25 53  1  0  0  0
 26 27  1  0  0  0
 26 54  1  0  0  0
 27 28  1  0  0  0
 28 55  1  0  0  0
 29 30  2  0  0  0
 29 31  2  0  0  0
 29 32  1  0  0  0
 32 33  1  0  0  0
 32 56  1  0  0  0
 33 38  1  0  0  0
 33 34  1  0  0  0
 33 57  1  0  0  0
 34 35  1  0  0  0
 34 58  1  0  0  0
 34 59  1  0  0  0
 35 36  1  0  0  0
 35 60  1  0  0  0
 35 61  1  0  0  0
 36 37  1  0  0  0
 36 62  1  0  0  0
 36 63  1  0  0  0
 37 38  1  0  0  0
 37 64  1  0  0  0
 37 65  1  0  0  0
 38 66  1  0  0  0
 38 67  1  0  0  0
M  END
> <i_i_glide_confnum>
35

> <i_i_glide_lignum>
5187

> <i_i_glide_posenum>
290

> <i_i_glide_rotatable_bonds>
5

> <i_m_Source_File_Index>
42

> <b_m_subgroup_collapsed>
0

> <r_i_docking_score>
-3.3642

> <r_i_glide_ecoul>
-1.21937

> <r_i_glide_eff_state_penalty>
0

> <r_i_glide_einternal>
3.4289

> <r_i_glide_emodel>
-40.5437

> <r_i_glide_energy>
-36.2506

> <r_i_glide_erotb>
0.340709

> <r_i_glide_esite>
-0.00868874

> <r_i_glide_evdw>
-35.0312

> <r_i_glide_gscore>
-3.3642

> <r_i_glide_hbond>
0

> <r_i_glide_ligand_efficiency>
-0.09612

> <r_i_glide_ligand_efficiency_ln>
-0.738517

> <r_i_glide_ligand_efficiency_sa>
-0.314415

> <r_i_glide_lipo>
-2.2488

> <r_i_glide_metal>
0

> <r_i_glide_rewards>
0.487046

> <s_i_glide_gridfile>
wee1_glide-grid

> <s_m_Source_File>
wee1_decoys_glide_SP.sdf

> <s_m_Source_Path>
/Users/zhangxujun/Desktop

> <s_m_entry_id>
317

> <s_m_entry_name>
wee1_decoys_glide_SP.42

> <s_m_subgroup_title>
wee1_decoys_glide_SP

> <s_m_subgroupid>
wee1_decoys_glide_SP


$$$$
