ZINC45866104_4909
                    3D
 Schrodinger Suite 2024-2.
 66 69  0  0  1  0            999 V2000
    4.9025   54.3842   27.3566 C   0  0  0  0  0  0
    5.0257   54.4195   25.8438 C   0  0  0  0  0  0
    3.9210   54.0985   25.0510 C   0  0  0  0  0  0
    4.0363   54.0960   23.6627 C   0  0  0  0  0  0
    5.2583   54.4134   23.0677 C   0  0  0  0  0  0
    6.3678   54.7346   23.8612 C   0  0  0  0  0  0
    6.2479   54.7357   25.2476 C   0  0  0  0  0  0
    5.3404   54.3622   21.6688 N   0  0  0  0  0  0
    5.9045   55.2976   20.8795 C   0  0  0  0  0  0
    6.3114   56.3896   21.2814 O   0  0  0  0  0  0
    5.9876   54.9667   19.3820 C   0  0  0  0  0  0
    7.0880   55.7280   18.5743 C   0  0  1  0  0  0
    7.0550   56.7780   18.8625 H   0  0  0  0  0  0
    8.5107   55.3212   19.0833 C   0  0  0  0  0  0
    8.9829   55.6991   20.1489 O   0  0  0  0  0  0
    9.1693   54.4912   18.2565 N   0  0  0  0  0  0
    8.6409   53.8681   17.1277 C   0  0  0  0  0  0
    9.1956   52.6732   16.6652 C   0  0  0  0  0  0
    8.6162   52.0156   15.5794 C   0  0  0  0  0  0
    7.4827   52.5475   14.9649 C   0  0  0  0  0  0
    6.9319   53.7442   15.4256 C   0  0  0  0  0  0
    7.5311   54.4422   16.4881 C   0  0  0  0  0  0
    6.9396   55.5843   17.0938 N   0  0  0  0  0  0
    6.5016   56.6437   16.3440 C   0  0  0  0  0  0
    6.6252   56.6907   15.1166 O   0  0  0  0  0  0
    5.8024   57.8346   17.0580 C   0  0  0  0  0  0
    4.7216   58.4967   16.2316 N   0  3  1  0  0  0
    5.3150   59.4828   15.1923 C   0  0  0  0  0  0
    3.5841   57.5790   15.6755 C   0  0  0  0  0  0
    3.1963   56.4762   16.7058 C   0  0  0  0  0  0
    1.8632   55.7598   16.4181 C   0  0  0  0  0  0
    0.7171   56.7474   16.1565 C   0  0  0  0  0  0
    1.0709   57.7074   15.0106 C   0  0  0  0  0  0
    2.3762   58.4790   15.2870 C   0  0  0  0  0  0
    4.4311   55.2951   27.7244 H   0  0  0  0  0  0
    5.8755   54.2639   27.8369 H   0  0  0  0  0  0
    4.2915   53.5352   27.6686 H   0  0  0  0  0  0
    2.9759   53.8451   25.5098 H   0  0  0  0  0  0
    3.1774   53.8404   23.0573 H   0  0  0  0  0  0
    7.3208   54.9732   23.4078 H   0  0  0  0  0  0
    7.1051   54.9738   25.8578 H   0  0  0  0  0  0
    4.8405   53.6106   21.2182 H   0  0  0  0  0  0
    6.0859   53.8890   19.2280 H   0  0  0  0  0  0
    5.0121   55.2186   18.9649 H   0  0  0  0  0  0
   10.0563   54.1801   18.6257 H   0  0  0  0  0  0
   10.0533   52.2360   17.1572 H   0  0  0  0  0  0
    9.0328   51.0835   15.2264 H   0  0  0  0  0  0
    7.0185   52.0238   14.1408 H   0  0  0  0  0  0
    6.0341   54.1229   14.9582 H   0  0  0  0  0  0
    5.3191   57.5745   17.9993 H   0  0  0  0  0  0
    6.5343   58.6161   17.2713 H   0  0  0  0  0  0
    5.7241   58.9148   14.3563 H   0  0  0  0  0  0
    4.5113   60.1413   14.8718 H   0  0  0  0  0  0
    6.0783   60.0906   15.6821 H   0  0  0  0  0  0
    3.9173   57.0639   14.7717 H   0  0  0  0  0  0
    3.9927   55.7449   16.8361 H   0  0  0  0  0  0
    3.1027   56.9448   17.6817 H   0  0  0  0  0  0
    1.9842   55.1027   15.5555 H   0  0  0  0  0  0
    1.6078   55.1085   17.2552 H   0  0  0  0  0  0
   -0.1959   56.2012   15.9174 H   0  0  0  0  0  0
    0.5029   57.3170   17.0627 H   0  0  0  0  0  0
    1.1694   57.1461   14.0806 H   0  0  0  0  0  0
    0.2522   58.4110   14.8486 H   0  0  0  0  0  0
    2.1691   59.1532   16.1201 H   0  0  0  0  0  0
    2.6152   59.1415   14.4568 H   0  0  0  0  0  0
    4.2366   59.1107   16.8767 H   0  0  0  0  0  0
  1  2  1  0  0  0
  1 35  1  0  0  0
  1 36  1  0  0  0
  1 37  1  0  0  0
  2  7  2  0  0  0
  2  3  1  0  0  0
  3  4  2  0  0  0
  3 38  1  0  0  0
  4  5  1  0  0  0
  4 39  1  0  0  0
  5  6  2  0  0  0
  5  8  1  0  0  0
  6  7  1  0  0  0
  6 40  1  0  0  0
  7 41  1  0  0  0
  8  9  1  0  0  0
  8 42  1  0  0  0
  9 10  2  0  0  0
  9 11  1  0  0  0
 11 12  1  0  0  0
 11 43  1  0  0  0
 11 44  1  0  0  0
 12 13  1  0  0  0
 12 23  1  0  0  0
 12 14  1  0  0  0
 14 15  2  0  0  0
 14 16  1  0  0  0
 16 17  1  0  0  0
 16 45  1  0  0  0
 17 22  2  0  0  0
 17 18  1  0  0  0
 18 19  2  0  0  0
 18 46  1  0  0  0
 19 20  1  0  0  0
 19 47  1  0  0  0
 20 21  2  0  0  0
 20 48  1  0  0  0
 21 22  1  0  0  0
 21 49  1  0  0  0
 22 23  1  0  0  0
 23 24  1  0  0  0
 24 25  2  0  0  0
 24 26  1  0  0  0
 26 27  1  0  0  0
 26 50  1  0  0  0
 26 51  1  0  0  0
 27 28  1  0  0  0
 27 29  1  0  0  0
 27 66  1  0  0  0
 28 52  1  0  0  0
 28 53  1  0  0  0
 28 54  1  0  0  0
 29 34  1  0  0  0
 29 30  1  0  0  0
 29 55  1  0  0  0
 30 31  1  0  0  0
 30 56  1  0  0  0
 30 57  1  0  0  0
 31 32  1  0  0  0
 31 58  1  0  0  0
 31 59  1  0  0  0
 32 33  1  0  0  0
 32 60  1  0  0  0
 32 61  1  0  0  0
 33 34  1  0  0  0
 33 62  1  0  0  0
 33 63  1  0  0  0
 34 64  1  0  0  0
 34 65  1  0  0  0
M  CHG  1  27   1
M  END
> <i_i_glide_confnum>
248

> <i_i_glide_lignum>
4910

> <i_i_glide_posenum>
257

> <i_i_glide_rotatable_bonds>
8

> <i_m_Source_File_Index>
3790

> <b_m_subgroup_collapsed>
0

> <r_i_docking_score>
-4.75341

> <r_i_glide_ecoul>
-6.08568

> <r_i_glide_eff_state_penalty>
0

> <r_i_glide_einternal>
9.87913

> <r_i_glide_emodel>
-49.7259

> <r_i_glide_energy>
-40.3788

> <r_i_glide_erotb>
0.694148

> <r_i_glide_esite>
-0.0774512

> <r_i_glide_evdw>
-34.2931

> <r_i_glide_gscore>
-4.75341

> <r_i_glide_hbond>
0

> <r_i_glide_ligand_efficiency>
-0.144043

> <r_i_glide_ligand_efficiency_ln>
-1.05713

> <r_i_glide_ligand_efficiency_sa>
-0.462022

> <r_i_glide_lipo>
-2.23587

> <r_i_glide_metal>
0

> <r_i_glide_rewards>
-0.506726

> <s_i_glide_gridfile>
wee1_glide-grid

> <s_m_Source_File>
wee1_decoys_glide_SP.sdf

> <s_m_Source_Path>
/Users/zhangxujun/Desktop

> <s_m_entry_id>
4065

> <s_m_entry_name>
wee1_decoys_glide_SP.3790

> <s_m_subgroup_title>
wee1_decoys_glide_SP

> <s_m_subgroupid>
wee1_decoys_glide_SP


$$$$
