@<TRIPOS>MOLECULE
ZINC29235924_119
60   62    1
SMALL
USER_CHARGES


@<TRIPOS>ATOM
      1 C1          0.5654   49.2434    9.8120 C.3       1 UNK         0.0000 
      2 C2          0.9205   49.5446   11.2564 C.ar      1 UNK         0.0000 
      3 C3          0.1791   50.4759   11.9812 C.ar      1 UNK         0.0000 
      4 C4          0.4914   50.7375   13.3141 C.ar      1 UNK         0.0000 
      5 C5          1.5498   50.0647   13.9519 C.ar      1 UNK         0.0000 
      6 C6          2.3078   49.1366   13.2101 C.ar      1 UNK         0.0000 
      7 C7          1.9807   48.8798   11.8734 C.ar      1 UNK         0.0000 
      8 C8          3.4929   48.3943   13.8186 C.3       1 UNK         0.0000 
      9 N9          1.9044   50.2815   15.3046 N.am      1 UNK         0.0000 
     10 C10         1.2141   50.9013   16.2868 C.2       1 UNK         0.0000 
     11 O11         0.0870   51.3853   16.1643 O.2       1 UNK         0.0000 
     12 N12         1.9377   50.8971   17.4274 N.am      1 UNK         0.0000 
     13 C13         1.6339   51.4866   18.6086 C.2       1 UNK         0.0000 
     14 O14         0.6227   52.1622   18.8276 O.2       1 UNK         0.0000 
     15 C15         2.6597   51.2463   19.7424 C.3       1 UNK         0.0000 
     16 H16         3.6483   51.2960   19.2825 H         1 UNK         0.0000 
     17 C17         2.4483   49.8493   20.3430 C.3       1 UNK         0.0000 
     18 N18         2.6551   52.4577   20.7266 N.4       1 UNK         0.0000 
     19 C19         1.5921   52.3497   21.8443 C.3       1 UNK         0.0000 
     20 C20         1.6552   53.6237   22.7049 C.3       1 UNK         0.0000 
     21 N21         2.9644   53.8264   23.3442 N.pl3     1 UNK         0.0000 
     22 C22         4.0482   53.8378   22.3409 C.3       1 UNK         0.0000 
     23 C23         4.0443   52.6263   21.3819 C.3       1 UNK         0.0000 
     24 C24         3.1712   53.8738   24.7249 C.ar      1 UNK         0.0000 
     25 C25         4.3120   54.4877   25.2675 C.ar      1 UNK         0.0000 
     26 C26         4.5430   54.4984   26.6416 C.ar      1 UNK         0.0000 
     27 C27         3.6269   53.9098   27.5077 C.ar      1 UNK         0.0000 
     28 C28         2.4727   53.3026   27.0074 C.ar      1 UNK         0.0000 
     29 C29         2.2558   53.2966   25.6221 C.ar      1 UNK         0.0000 
     30 C30         1.4873   52.6380   27.9701 C.3       1 UNK         0.0000 
     31 F31         0.6138   51.8528   27.3354 F         1 UNK         0.0000 
     32 F32         2.1431   51.8936   28.8636 F         1 UNK         0.0000 
     33 F33         0.8074   53.5861   28.6167 F         1 UNK         0.0000 
     34 H34        -0.5075   49.3437    9.6460 H         1 UNK         0.0000 
     35 H35         0.8272   48.2180    9.5486 H         1 UNK         0.0000 
     36 H36         1.0880   49.9246    9.1409 H         1 UNK         0.0000 
     37 H37        -0.6411   51.0045   11.5159 H         1 UNK         0.0000 
     38 H38        -0.1024   51.4810   13.8228 H         1 UNK         0.0000 
     39 H39         2.5565   48.1611   11.3084 H         1 UNK         0.0000 
     40 H40         4.2800   49.1020   14.0823 H         1 UNK         0.0000 
     41 H41         3.1936   47.8758   14.7303 H         1 UNK         0.0000 
     42 H42         3.9170   47.6569   13.1380 H         1 UNK         0.0000 
     43 H43         2.7842   49.8524   15.5794 H         1 UNK         0.0000 
     44 H44         2.8242   50.4034   17.3842 H         1 UNK         0.0000 
     45 H45         2.6803   49.0790   19.6031 H         1 UNK         0.0000 
     46 H46         3.1052   49.6985   21.1989 H         1 UNK         0.0000 
     47 H47         1.4166   49.7154   20.6770 H         1 UNK         0.0000 
     48 H48         0.6222   52.2882   21.3501 H         1 UNK         0.0000 
     49 H49         1.7735   51.4436   22.4246 H         1 UNK         0.0000 
     50 H50         1.4895   54.4976   22.0817 H         1 UNK         0.0000 
     51 H51         0.8358   53.6264   23.4242 H         1 UNK         0.0000 
     52 H52         5.0339   53.9073   22.8014 H         1 UNK         0.0000 
     53 H53         3.9011   54.7622   21.7771 H         1 UNK         0.0000 
     54 H54         4.2881   51.6880   21.8797 H         1 UNK         0.0000 
     55 H55         4.7402   52.8056   20.5615 H         1 UNK         0.0000 
     56 H56         5.0384   54.9677   24.6292 H         1 UNK         0.0000 
     57 H57         5.4330   54.9702   27.0352 H         1 UNK         0.0000 
     58 H58         3.8206   53.9234   28.5718 H         1 UNK         0.0000 
     59 H59         1.3742   52.8007   25.2507 H         1 UNK         0.0000 
     60 H60         2.4556   53.2988   20.1928 H         1 UNK         0.0000 
@<TRIPOS>BOND
     1    1    2 1    
     2    1   34 1    
     3    1   35 1    
     4    1   36 1    
     5    2    7 ar   
     6    2    3 ar   
     7    3    4 ar   
     8    3   37 1    
     9    4    5 ar   
    10    4   38 1    
    11    5    6 ar   
    12    5    9 1    
    13    6    7 ar   
    14    6    8 1    
    15    7   39 1    
    16    8   40 1    
    17    8   41 1    
    18    8   42 1    
    19    9   10 am   BACKBONE|DICT|INTERRES
    20    9   43 1    
    21   10   11 2    
    22   10   12 am   BACKBONE|DICT|INTERRES
    23   12   13 am   BACKBONE|DICT|INTERRES
    24   12   44 1    
    25   13   14 2    
    26   13   15 1    
    27   15   16 1    
    28   15   17 1    
    29   15   18 1    
    30   17   45 1    
    31   17   46 1    
    32   17   47 1    
    33   18   23 1    
    34   18   19 1    
    35   18   60 1    
    36   19   20 1    
    37   19   48 1    
    38   19   49 1    
    39   20   21 1    
    40   20   50 1    
    41   20   51 1    
    42   21   22 1    
    43   21   24 1    
    44   22   23 1    
    45   22   52 1    
    46   22   53 1    
    47   23   54 1    
    48   23   55 1    
    49   24   29 ar   
    50   24   25 ar   
    51   25   26 ar   
    52   25   56 1    
    53   26   27 ar   
    54   26   57 1    
    55   27   28 ar   
    56   27   58 1    
    57   28   29 ar   
    58   28   30 1    
    59   29   59 1    
    60   30   31 1    
    61   30   32 1    
    62   30   33 1    
@<TRIPOS>SUBSTRUCTURE
     1 UNK         1 GROUP             0       ****    0 ROOT    
