@<TRIPOS>MOLECULE
ZINC35166836_960
60   63    1
SMALL
USER_CHARGES


@<TRIPOS>ATOM
      1 C1          4.9697   53.6206   21.2235 C.3       1 UNK         0.0000 
      2 C2          3.6772   52.9184   21.5952 C.ar      1 UNK         0.0000 
      3 C3          2.7622   53.5497   22.4380 C.ar      1 UNK         0.0000 
      4 C4          1.5633   52.9243   22.7879 C.ar      1 UNK         0.0000 
      5 C5          1.2740   51.6481   22.2701 C.ar      1 UNK         0.0000 
      6 C6          2.1889   51.0093   21.4122 C.ar      1 UNK         0.0000 
      7 C7          3.3859   51.6531   21.0834 C.ar      1 UNK         0.0000 
      8 C8          1.9133   49.6259   20.8359 C.3       1 UNK         0.0000 
      9 N9          0.0471   51.0401   22.5717 N.am      1 UNK         0.0000 
     10 C10        -0.2207   50.4146   23.7357 C.2       1 UNK         0.0000 
     11 O11         0.6568   50.1265   24.5524 O.2       1 UNK         0.0000 
     12 C12        -1.6876   50.1116   23.9991 C.ar      1 UNK         0.0000 
     13 C13        -2.5522   49.8673   22.9138 C.ar      1 UNK         0.0000 
     14 C14        -3.8877   49.5219   23.1126 C.ar      1 UNK         0.0000 
     15 C15        -4.3903   49.3962   24.4031 C.ar      1 UNK         0.0000 
     16 C16        -3.5609   49.6317   25.4953 C.ar      1 UNK         0.0000 
     17 C17        -2.2308   50.0192   25.3083 C.ar      1 UNK         0.0000 
     18 N18        -1.4958   50.2266   26.4817 N.am      1 UNK         0.0000 
     19 C19        -1.0250   51.4079   26.9366 C.2       1 UNK         0.0000 
     20 O20        -1.2917   52.4967   26.4264 O.2       1 UNK         0.0000 
     21 C21        -0.0637   51.3076   28.1485 C.3       1 UNK         0.0000 
     22 H22        -0.2127   50.3446   28.5943 H         1 UNK         0.0000 
     23 C23        -0.2287   52.3727   29.2281 C.3       1 UNK         0.0000 
     24 C24         0.8990   53.3874   29.0357 C.2       1 UNK         0.0000 
     25 O25         0.9731   54.4773   29.6043 O.2       1 UNK         0.0000 
     26 N26         1.7442   52.8531   28.1171 N.am      1 UNK         0.0000 
     27 C27         1.3649   51.5037   27.7016 C.3       1 UNK         0.0000 
     28 C28         2.8971   53.4724   27.6261 C.ar      1 UNK         0.0000 
     29 C29         3.0468   53.5307   26.2419 C.ar      1 UNK         0.0000 
     30 C30         4.1770   54.0959   25.6841 C.ar      1 UNK         0.0000 
     31 C31         5.1787   54.5635   26.5141 C.ar      1 UNK         0.0000 
     32 C32         5.0629   54.4967   27.9034 C.ar      1 UNK         0.0000 
     33 C33         3.9035   53.9645   28.4668 C.ar      1 UNK         0.0000 
     34 Br34        6.7044   55.2977   25.6821 Br        1 UNK         0.0000 
     35 C35         0.5912   53.6538   23.7088 C.3       1 UNK         0.0000 
     36 H36         5.5042   53.1003   20.4273 H         1 UNK         0.0000 
     37 H37         4.7574   54.6311   20.8716 H         1 UNK         0.0000 
     38 H38         5.6204   53.7034   22.0948 H         1 UNK         0.0000 
     39 H39         2.9795   54.5414   22.8066 H         1 UNK         0.0000 
     40 H40         4.0885   51.1732   20.4156 H         1 UNK         0.0000 
     41 H41         2.7031   49.2912   20.1616 H         1 UNK         0.0000 
     42 H42         1.8196   48.8975   21.6425 H         1 UNK         0.0000 
     43 H43         0.9750   49.6267   20.2811 H         1 UNK         0.0000 
     44 H44        -0.7133   51.2194   21.9376 H         1 UNK         0.0000 
     45 H45        -2.1971   49.9116   21.8943 H         1 UNK         0.0000 
     46 H46        -4.5293   49.3328   22.2642 H         1 UNK         0.0000 
     47 H47        -5.4209   49.1131   24.5590 H         1 UNK         0.0000 
     48 H48        -3.9614   49.5285   26.4945 H         1 UNK         0.0000 
     49 H49        -1.4700   49.4428   27.1397 H         1 UNK         0.0000 
     50 H50        -0.2158   51.9439   30.2315 H         1 UNK         0.0000 
     51 H51        -1.1718   52.8967   29.1479 H         1 UNK         0.0000 
     52 H52         1.5043   51.2967   26.6415 H         1 UNK         0.0000 
     53 H53         2.0137   50.7925   28.2145 H         1 UNK         0.0000 
     54 H54         2.3058   53.1083   25.5919 H         1 UNK         0.0000 
     55 H55         4.3004   54.1343   24.6138 H         1 UNK         0.0000 
     56 H56         5.8574   54.8696   28.5348 H         1 UNK         0.0000 
     57 H57         3.8010   53.9101   29.5403 H         1 UNK         0.0000 
     58 H58         0.9221   54.6660   23.9378 H         1 UNK         0.0000 
     59 H59        -0.4053   53.6959   23.2818 H         1 UNK         0.0000 
     60 H60         0.4650   53.1085   24.6402 H         1 UNK         0.0000 
@<TRIPOS>BOND
     1    1    2 1    
     2    1   36 1    
     3    1   37 1    
     4    1   38 1    
     5    2    7 ar   
     6    2    3 ar   
     7    3    4 ar   
     8    3   39 1    
     9    4    5 ar   
    10    4   35 1    
    11    5    6 ar   
    12    5    9 1    
    13    6    7 ar   
    14    6    8 1    
    15    7   40 1    
    16    8   41 1    
    17    8   42 1    
    18    8   43 1    
    19    9   10 am   BACKBONE|DICT|INTERRES
    20    9   44 1    
    21   10   11 2    
    22   10   12 1    
    23   12   17 ar   
    24   12   13 ar   
    25   13   14 ar   
    26   13   45 1    
    27   14   15 ar   
    28   14   46 1    
    29   15   16 ar   
    30   15   47 1    
    31   16   17 ar   
    32   16   48 1    
    33   17   18 1    
    34   18   19 am   BACKBONE|DICT|INTERRES
    35   18   49 1    
    36   19   20 2    
    37   19   21 1    
    38   21   22 1    
    39   21   27 1    
    40   21   23 1    
    41   23   24 1    
    42   23   50 1    
    43   23   51 1    
    44   24   25 2    
    45   24   26 am   BACKBONE|DICT|INTERRES
    46   26   27 1    
    47   26   28 1    
    48   27   52 1    
    49   27   53 1    
    50   28   33 ar   
    51   28   29 ar   
    52   29   30 ar   
    53   29   54 1    
    54   30   31 ar   
    55   30   55 1    
    56   31   32 ar   
    57   31   34 1    
    58   32   33 ar   
    59   32   56 1    
    60   33   57 1    
    61   35   58 1    
    62   35   59 1    
    63   35   60 1    
@<TRIPOS>SUBSTRUCTURE
     1 UNK         1 GROUP             0       ****    0 ROOT    
