ZINC08833361_4920
                    3D
 Schrodinger Suite 2024-2.
 63 67  0  0  1  0            999 V2000
    7.9452   52.0204   16.9286 C   0  0  0  0  0  0
    6.8026   52.4978   16.0410 C   0  0  0  0  0  0
    6.8824   52.3038   14.6603 C   0  0  0  0  0  0
    5.8473   52.7225   13.8247 C   0  0  0  0  0  0
    4.7049   53.3411   14.3501 C   0  0  0  0  0  0
    4.6269   53.5323   15.7355 C   0  0  0  0  0  0
    5.6680   53.1279   16.5778 C   0  0  0  0  0  0
    5.5416   53.2960   17.9672 N   0  0  0  0  0  0
    5.5737   54.4503   18.7037 C   0  0  0  0  0  0
    5.7229   55.9910   18.0267 S   0  0  0  0  0  0
    5.4656   54.1896   20.0455 N   0  0  0  0  0  0
    5.9509   54.8690   21.1169 C   0  0  0  0  0  0
    6.8576   55.7075   21.0632 O   0  0  0  0  0  0
    5.3728   54.4982   22.4605 C   0  0  0  0  0  0
    4.0395   54.0963   22.6133 C   0  0  0  0  0  0
    3.5061   53.9015   23.8876 C   0  0  0  0  0  0
    4.2691   54.0898   25.0524 C   0  0  0  0  0  0
    5.6243   54.4365   24.8868 C   0  0  0  0  0  0
    6.1525   54.6499   23.6085 C   0  0  0  0  0  0
    6.5335   54.6127   26.0174 N   0  3  0  0  0  0
    6.7026   53.6946   26.8116 O   0  0  0  0  0  0
    7.0940   55.6925   26.0779 O   0  5  0  0  0  0
    3.6303   53.9587   26.2914 N   0  0  0  0  0  0
    4.0033   54.5810   27.5777 C   0  0  0  0  0  0
    2.7614   55.1358   28.3236 C   0  0  0  0  0  0
    1.6659   54.0780   28.5058 C   0  0  0  0  0  0
    1.4199   53.3820   27.1619 C   0  0  0  0  0  0
    2.7096   52.8448   26.5661 C   0  0  0  0  0  0
    3.5824   53.7885   13.4601 C   0  0  0  0  0  0
    3.5762   53.6234   12.0906 N   0  0  0  0  0  0
    4.3289   53.1899   11.5794 H   0  0  0  0  0  0
    2.3980   54.1411   11.6073 C   0  0  0  0  0  0
    1.8419   54.2524   10.3298 C   0  0  0  0  0  0
    0.5834   54.8562   10.2497 C   0  0  0  0  0  0
   -0.0855   55.3263   11.3816 C   0  0  0  0  0  0
    0.4767   55.2142   12.6550 C   0  0  0  0  0  0
    1.7373   54.6109   12.7686 C   0  0  0  0  0  0
    2.4897   54.3810   13.8895 N   0  0  0  0  0  0
    8.7411   51.5359   16.3624 H   0  0  0  0  0  0
    8.3746   52.8605   17.4753 H   0  0  0  0  0  0
    7.5757   51.3073   17.6659 H   0  0  0  0  0  0
    7.7481   51.8229   14.2286 H   0  0  0  0  0  0
    5.9449   52.5549   12.7632 H   0  0  0  0  0  0
    3.7521   53.9982   16.1665 H   0  0  0  0  0  0
    5.5075   52.4186   18.4742 H   0  0  0  0  0  0
    4.8343   53.4381   20.2751 H   0  0  0  0  0  0
    3.3861   53.9886   21.7589 H   0  0  0  0  0  0
    2.4603   53.6484   23.9646 H   0  0  0  0  0  0
    7.1884   54.9558   23.5155 H   0  0  0  0  0  0
    4.6834   55.4094   27.4091 H   0  0  0  0  0  0
    4.5318   53.8548   28.1984 H   0  0  0  0  0  0
    2.3474   55.9919   27.7907 H   0  0  0  0  0  0
    3.0644   55.5284   29.2941 H   0  0  0  0  0  0
    1.9746   53.3441   29.2512 H   0  0  0  0  0  0
    0.7477   54.5359   28.8757 H   0  0  0  0  0  0
    0.6603   52.6041   27.2469 H   0  0  0  0  0  0
    1.1046   54.0955   26.4177 H   0  0  0  0  0  0
    2.4706   52.2709   25.6705 H   0  0  0  0  0  0
    3.1787   52.1654   27.2815 H   0  0  0  0  0  0
    2.3511   53.8926    9.4482 H   0  0  0  0  0  0
    0.1124   54.9637    9.2830 H   0  0  0  0  0  0
   -1.0569   55.7862   11.2679 H   0  0  0  0  0  0
   -0.0428   55.5805   13.5277 H   0  0  0  0  0  0
  1  2  1  0  0  0
  1 39  1  0  0  0
  1 40  1  0  0  0
  1 41  1  0  0  0
  2  7  2  0  0  0
  2  3  1  0  0  0
  3  4  2  0  0  0
  3 42  1  0  0  0
  4  5  1  0  0  0
  4 43  1  0  0  0
  5  6  2  0  0  0
  5 29  1  0  0  0
  6  7  1  0  0  0
  6 44  1  0  0  0
  7  8  1  0  0  0
  8  9  1  0  0  0
  8 45  1  0  0  0
  9 10  2  0  0  0
  9 11  1  0  0  0
 11 12  1  0  0  0
 11 46  1  0  0  0
 12 13  2  0  0  0
 12 14  1  0  0  0
 14 19  2  0  0  0
 14 15  1  0  0  0
 15 16  2  0  0  0
 15 47  1  0  0  0
 16 17  1  0  0  0
 16 48  1  0  0  0
 17 18  2  0  0  0
 17 23  1  0  0  0
 18 19  1  0  0  0
 18 20  1  0  0  0
 19 49  1  0  0  0
 20 21  2  0  0  0
 20 22  1  0  0  0
 23 28  1  0  0  0
 23 24  1  0  0  0
 24 25  1  0  0  0
 24 50  1  0  0  0
 24 51  1  0  0  0
 25 26  1  0  0  0
 25 52  1  0  0  0
 25 53  1  0  0  0
 26 27  1  0  0  0
 26 54  1  0  0  0
 26 55  1  0  0  0
 27 28  1  0  0  0
 27 56  1  0  0  0
 27 57  1  0  0  0
 28 58  1  0  0  0
 28 59  1  0  0  0
 29 38  2  0  0  0
 29 30  1  0  0  0
 30 31  1  0  0  0
 30 32  1  0  0  0
 32 37  2  0  0  0
 32 33  1  0  0  0
 33 34  2  0  0  0
 33 60  1  0  0  0
 34 35  1  0  0  0
 34 61  1  0  0  0
 35 36  2  0  0  0
 35 62  1  0  0  0
 36 37  1  0  0  0
 36 63  1  0  0  0
 37 38  1  0  0  0
M  CHG  2  20   1  22  -1
M  END
> <i_i_glide_confnum>
125

> <i_i_glide_lignum>
4921

> <i_i_glide_posenum>
365

> <i_i_glide_rotatable_bonds>
8

> <i_m_Source_File_Index>
2407

> <b_m_subgroup_collapsed>
0

> <r_i_docking_score>
-5.56202

> <r_i_glide_ecoul>
-5.39817

> <r_i_glide_eff_state_penalty>
0

> <r_i_glide_einternal>
11.9346

> <r_i_glide_emodel>
-37.1364

> <r_i_glide_energy>
-38.0633

> <r_i_glide_erotb>
0.542253

> <r_i_glide_esite>
-0.135686

> <r_i_glide_evdw>
-32.6651

> <r_i_glide_gscore>
-5.56202

> <r_i_glide_hbond>
-0.117073

> <r_i_glide_ligand_efficiency>
-0.150325

> <r_i_glide_ligand_efficiency_ln>
-1.20627

> <r_i_glide_ligand_efficiency_sa>
-0.500916

> <r_i_glide_lipo>
-2.38553

> <r_i_glide_metal>
0

> <r_i_glide_rewards>
-1.023

> <s_i_glide_gridfile>
wee1_glide-grid

> <s_m_Source_File>
wee1_decoys_glide_SP.sdf

> <s_m_Source_Path>
/Users/zhangxujun/Desktop

> <s_m_entry_id>
2682

> <s_m_entry_name>
wee1_decoys_glide_SP.2407

> <s_m_subgroup_title>
wee1_decoys_glide_SP

> <s_m_subgroupid>
wee1_decoys_glide_SP


$$$$
