@<TRIPOS>MOLECULE
ZINC40325221_952
61   64    1
SMALL
USER_CHARGES


@<TRIPOS>ATOM
      1 C1          1.3571   56.9236   16.1893 C.3       1 UNK         0.0000 
      2 C2          1.2307   55.5014   16.7547 C.3       1 UNK         0.0000 
      3 C3          1.6442   54.3717   15.7837 C.3       1 UNK         0.0000 
      4 S4          3.4912   54.3824   15.3492 S.o2      1 UNK         0.0000 
      5 O5          3.8293   53.0747   14.7783 O.2       1 UNK         0.0000 
      6 O6          3.8027   55.6103   14.6090 O.2       1 UNK         0.0000 
      7 C7          4.2985   54.4827   16.9420 C.ar      1 UNK         0.0000 
      8 C8          4.3426   53.3548   17.7647 C.ar      1 UNK         0.0000 
      9 C9          4.8769   53.4618   19.0455 C.ar      1 UNK         0.0000 
     10 C10         5.3793   54.6857   19.4969 C.ar      1 UNK         0.0000 
     11 C11         5.3813   55.7955   18.6483 C.ar      1 UNK         0.0000 
     12 C12         4.8341   55.6977   17.3738 C.ar      1 UNK         0.0000 
     13 C13         5.8566   54.8230   20.8960 C.2       1 UNK         0.0000 
     14 C14         5.4922   54.2299   22.0842 C.2       1 UNK         0.0000 
     15 C15         6.2267   54.8919   23.0824 C.2       1 UNK         0.0000 
     16 N16         7.1045   55.6964   22.5265 N.2       1 UNK         0.0000 
     17 O17         6.8459   55.7122   21.1556 O.3       1 UNK         0.0000 
     18 C18         6.0869   54.7028   24.5098 C.2       1 UNK         0.0000 
     19 O19         7.0374   54.8377   25.2827 O.2       1 UNK         0.0000 
     20 N20         4.8121   54.4096   24.8523 N.am      1 UNK         0.0000 
     21 C21         4.2734   54.0254   26.0803 C.2       1 UNK         0.0000 
     22 C22         2.9800   53.4753   26.2941 C.2       1 UNK         0.0000 
     23 C23         2.7184   53.3023   27.6837 C.2       1 UNK         0.0000 
     24 C24         3.8748   53.4624   28.4570 C.2       1 UNK         0.0000 
     25 S25         5.2007   54.0950   27.5535 S.3       1 UNK         0.0000 
     26 C26         4.0025   53.1330   29.9317 C.3       1 UNK         0.0000 
     27 C27         2.7629   52.3488   30.4039 C.3       1 UNK         0.0000 
     28 C28         1.4616   52.9586   29.8699 C.3       1 UNK         0.0000 
     29 C29         1.3875   52.8807   28.3293 C.3       1 UNK         0.0000 
     30 C30         2.0118   53.1075   25.2548 C.2       1 UNK         0.0000 
     31 O31         0.8273   52.8963   25.5062 O.2       1 UNK         0.0000 
     32 N32         2.5472   52.8967   24.0360 N.am      1 UNK         0.0000 
     33 C33         1.9229   52.2924   22.8533 C.3       1 UNK         0.0000 
     34 C34         0.4574   52.6572   22.6130 C.3       1 UNK         0.0000 
     35 H35         0.9333   57.6543   16.8793 H         1 UNK         0.0000 
     36 H36         0.8333   57.0250   15.2387 H         1 UNK         0.0000 
     37 H37         2.3965   57.2062   16.0295 H         1 UNK         0.0000 
     38 H38         1.8031   55.4269   17.6797 H         1 UNK         0.0000 
     39 H39         0.1921   55.3399   17.0467 H         1 UNK         0.0000 
     40 H40         1.4479   53.3983   16.2333 H         1 UNK         0.0000 
     41 H41         1.0967   54.4197   14.8433 H         1 UNK         0.0000 
     42 H42         3.9473   52.4054   17.4272 H         1 UNK         0.0000 
     43 H43         4.8857   52.5890   19.6828 H         1 UNK         0.0000 
     44 H44         5.7675   56.7456   18.9865 H         1 UNK         0.0000 
     45 H45         4.8059   56.5721   16.7376 H         1 UNK         0.0000 
     46 H46         4.7343   53.4731   22.2055 H         1 UNK         0.0000 
     47 H47         4.1493   54.4400   24.0935 H         1 UNK         0.0000 
     48 H48         4.8725   52.4962   30.0797 H         1 UNK         0.0000 
     49 H49         4.1322   54.0445   30.5124 H         1 UNK         0.0000 
     50 H50         2.8392   51.3194   30.0474 H         1 UNK         0.0000 
     51 H51         2.7449   52.2969   31.4939 H         1 UNK         0.0000 
     52 H52         0.6017   52.4458   30.3046 H         1 UNK         0.0000 
     53 H53         1.3845   53.9986   30.1919 H         1 UNK         0.0000 
     54 H54         0.5692   53.5199   27.9948 H         1 UNK         0.0000 
     55 H55         1.1337   51.8632   28.0263 H         1 UNK         0.0000 
     56 H56         3.5545   52.8937   24.0186 H         1 UNK         0.0000 
     57 H57         2.5100   52.5664   21.9749 H         1 UNK         0.0000 
     58 H58         2.0114   51.2085   22.9434 H         1 UNK         0.0000 
     59 H59         0.1681   52.5014   21.5737 H         1 UNK         0.0000 
     60 H60        -0.2070   52.0549   23.2330 H         1 UNK         0.0000 
     61 H61         0.3045   53.6962   22.8820 H         1 UNK         0.0000 
@<TRIPOS>BOND
     1    1    2 1    
     2    1   35 1    
     3    1   36 1    
     4    1   37 1    
     5    2    3 1    
     6    2   38 1    
     7    2   39 1    
     8    3    4 1    
     9    3   40 1    
    10    3   41 1    
    11    4    5 2    
    12    4    6 2    
    13    4    7 1    
    14    7   12 ar   
    15    7    8 ar   
    16    8    9 ar   
    17    8   42 1    
    18    9   10 ar   
    19    9   43 1    
    20   10   11 ar   
    21   10   13 1    
    22   11   12 ar   
    23   11   44 1    
    24   12   45 1    
    25   13   17 1    
    26   13   14 2    
    27   14   15 1    
    28   14   46 1    
    29   15   16 2    
    30   15   18 1    
    31   16   17 1    
    32   18   19 2    
    33   18   20 am   BACKBONE|DICT|INTERRES
    34   20   21 am   BACKBONE|DICT|INTERRES
    35   20   47 1    
    36   21   25 1    
    37   21   22 2    
    38   22   23 1    
    39   22   30 1    
    40   23   29 1    
    41   23   24 2    
    42   24   25 1    
    43   24   26 1    
    44   26   27 1    
    45   26   48 1    
    46   26   49 1    
    47   27   28 1    
    48   27   50 1    
    49   27   51 1    
    50   28   29 1    
    51   28   52 1    
    52   28   53 1    
    53   29   54 1    
    54   29   55 1    
    55   30   31 2    
    56   30   32 am   BACKBONE|DICT|INTERRES
    57   32   33 1    
    58   32   56 1    
    59   33   34 1    
    60   33   57 1    
    61   33   58 1    
    62   34   59 1    
    63   34   60 1    
    64   34   61 1    
@<TRIPOS>SUBSTRUCTURE
     1 UNK         1 GROUP             0       ****    0 ROOT    
