@<TRIPOS>MOLECULE
ZINC66107053_2893
63   66    1
SMALL
USER_CHARGES


@<TRIPOS>ATOM
      1 C1          6.6345   54.8962   25.5024 C.ar      1 UNK         0.0000 
      2 C2          6.5891   54.7067   26.8799 C.ar      1 UNK         0.0000 
      3 C3          5.4028   54.2969   27.4827 C.ar      1 UNK         0.0000 
      4 C4          4.2471   54.0589   26.7158 C.ar      1 UNK         0.0000 
      5 C5          4.3118   54.2103   25.3152 C.ar      1 UNK         0.0000 
      6 C6          5.5112   54.6461   24.7250 C.ar      1 UNK         0.0000 
      7 N7          3.1574   53.8835   24.5691 N.am      1 UNK         0.0000 
      8 C8          3.0058   53.6967   23.2354 C.2       1 UNK         0.0000 
      9 O9          3.8974   53.8660   22.4044 O.2       1 UNK         0.0000 
     10 C10         1.6451   53.1777   22.7221 C.3       1 UNK         0.0000 
     11 N11         0.5657   53.2307   23.6865 N.pl3     1 UNK         0.0000 
     12 C12         0.0499   52.1463   24.4077 C.ar      1 UNK         0.0000 
     13 C13         0.6932   50.9061   24.4872 C.ar      1 UNK         0.0000 
     14 C14         0.1283   49.8720   25.2329 C.ar      1 UNK         0.0000 
     15 C15        -1.0698   50.0770   25.9116 C.ar      1 UNK         0.0000 
     16 C16        -1.7251   51.3154   25.8656 C.ar      1 UNK         0.0000 
     17 C17        -1.1527   52.3346   25.0889 C.ar      1 UNK         0.0000 
     18 C18        -3.0076   51.5847   26.6264 C.2       1 UNK         0.0000 
     19 O19        -3.6863   52.5726   26.3320 O.2       1 UNK         0.0000 
     20 N20        -3.3019   50.7481   27.6507 N.am      1 UNK         0.0000 
     21 C21        -4.3719   50.8528   28.5654 C.ar      1 UNK         0.0000 
     22 C22        -4.2005   50.2401   29.8084 C.ar      1 UNK         0.0000 
     23 C23        -5.1797   50.3341   30.7921 C.ar      1 UNK         0.0000 
     24 C24        -6.3581   51.0311   30.5354 C.ar      1 UNK         0.0000 
     25 C25        -6.5677   51.6331   29.2889 C.ar      1 UNK         0.0000 
     26 C26        -5.5794   51.5257   28.3024 C.ar      1 UNK         0.0000 
     27 C27        -7.8528   52.4114   29.0081 C.3       1 UNK         0.0000 
     28 F28        -7.6252   53.4389   28.1879 F         1 UNK         0.0000 
     29 F29        -8.7406   51.6010   28.4367 F         1 UNK         0.0000 
     30 F30        -8.3806   52.8965   30.1331 F         1 UNK         0.0000 
     31 O31         3.0355   53.6731   27.2717 O.3       1 UNK         0.0000 
     32 C32         2.9395   53.4675   28.6802 C.3       1 UNK         0.0000 
     33 C33         1.4660   53.3331   29.0932 C.3       1 UNK         0.0000 
     34 H34         0.9409   54.2486   28.8104 H         1 UNK         0.0000 
     35 C35         0.7354   52.0983   28.5831 C.3       1 UNK         0.0000 
     36 C36        -0.3819   51.9302   29.5867 C.3       1 UNK         0.0000 
     37 C37         0.1931   52.5059   30.8861 C.3       1 UNK         0.0000 
     38 O38         1.4151   53.1503   30.5060 O.3       1 UNK         0.0000 
     39 H39         7.5349   55.2232   25.0093 H         1 UNK         0.0000 
     40 H40         7.4637   54.8866   27.4896 H         1 UNK         0.0000 
     41 H41         5.4107   54.1696   28.5545 H         1 UNK         0.0000 
     42 H42         5.6086   54.8030   23.6632 H         1 UNK         0.0000 
     43 H43         2.3462   53.6676   25.1322 H         1 UNK         0.0000 
     44 H44         1.3900   53.6971   21.8001 H         1 UNK         0.0000 
     45 H45         1.8384   52.1675   22.3596 H         1 UNK         0.0000 
     46 H46         0.0236   54.0803   23.7224 H         1 UNK         0.0000 
     47 H47         1.6327   50.7271   23.9889 H         1 UNK         0.0000 
     48 H48         0.6250   48.9144   25.2979 H         1 UNK         0.0000 
     49 H49        -1.4749   49.2541   26.4801 H         1 UNK         0.0000 
     50 H50        -1.6427   53.2961   25.0259 H         1 UNK         0.0000 
     51 H51        -2.6380   50.0041   27.8475 H         1 UNK         0.0000 
     52 H52        -3.2957   49.6971   30.0289 H         1 UNK         0.0000 
     53 H53        -5.0189   49.8706   31.7560 H         1 UNK         0.0000 
     54 H54        -7.1096   51.0939   31.3094 H         1 UNK         0.0000 
     55 H55        -5.7595   51.9757   27.3398 H         1 UNK         0.0000 
     56 H56         3.3518   54.3203   29.2221 H         1 UNK         0.0000 
     57 H57         3.5006   52.5747   28.9609 H         1 UNK         0.0000 
     58 H58         1.4034   51.2368   28.5754 H         1 UNK         0.0000 
     59 H59         0.4148   52.2122   27.5489 H         1 UNK         0.0000 
     60 H60        -0.7010   50.8967   29.6902 H         1 UNK         0.0000 
     61 H61        -1.2585   52.4965   29.2761 H         1 UNK         0.0000 
     62 H62         0.3913   51.7121   31.6098 H         1 UNK         0.0000 
     63 H63        -0.4959   53.2293   31.3250 H         1 UNK         0.0000 
@<TRIPOS>BOND
     1    1    6 ar   
     2    1    2 ar   
     3    1   39 1    
     4    2    3 ar   
     5    2   40 1    
     6    3    4 ar   
     7    3   41 1    
     8    4    5 ar   
     9    4   31 1    
    10    5    6 ar   
    11    5    7 1    
    12    6   42 1    
    13    7    8 am   BACKBONE|DICT|INTERRES
    14    7   43 1    
    15    8    9 2    
    16    8   10 1    
    17   10   11 1    
    18   10   44 1    
    19   10   45 1    
    20   11   12 1    
    21   11   46 1    
    22   12   17 ar   
    23   12   13 ar   
    24   13   14 ar   
    25   13   47 1    
    26   14   15 ar   
    27   14   48 1    
    28   15   16 ar   
    29   15   49 1    
    30   16   17 ar   
    31   16   18 1    
    32   17   50 1    
    33   18   19 2    
    34   18   20 am   BACKBONE|DICT|INTERRES
    35   20   21 1    
    36   20   51 1    
    37   21   26 ar   
    38   21   22 ar   
    39   22   23 ar   
    40   22   52 1    
    41   23   24 ar   
    42   23   53 1    
    43   24   25 ar   
    44   24   54 1    
    45   25   26 ar   
    46   25   27 1    
    47   26   55 1    
    48   27   28 1    
    49   27   29 1    
    50   27   30 1    
    51   31   32 1    
    52   32   33 1    
    53   32   56 1    
    54   32   57 1    
    55   33   34 1    
    56   33   38 1    
    57   33   35 1    
    58   35   36 1    
    59   35   58 1    
    60   35   59 1    
    61   36   37 1    
    62   36   60 1    
    63   36   61 1    
    64   37   38 1    
    65   37   62 1    
    66   37   63 1    
@<TRIPOS>SUBSTRUCTURE
     1 UNK         1 GROUP             0       ****    0 ROOT    
