@<TRIPOS>MOLECULE
ZINC36058670_984
61   64    1
SMALL
USER_CHARGES


@<TRIPOS>ATOM
      1 C1          2.9316   54.1810   26.7192 C.3       1 UNK         0.0000 
      2 C2          1.9054   53.3008   26.0081 C.2       1 UNK         0.0000 
      3 C3          0.9923   52.4545   26.5860 C.2       1 UNK         0.0000 
      4 C4          0.1216   51.5188   25.6822 C.3       1 UNK         0.0000 
      5 H5          0.2441   50.4957   26.0464 H         1 UNK         0.0000 
      6 N6          0.6998   51.4835   24.3072 N.pl3     1 UNK         0.0000 
      7 C7          0.3075   50.6207   23.2975 C.2       1 UNK         0.0000 
      8 C8          0.7567   51.0209   22.0931 C.2       1 UNK         0.0000 
      9 S9          1.7336   52.4837   22.1491 S.3       1 UNK         0.0000 
     10 C10         1.5479   52.5159   23.9104 C.2       1 UNK         0.0000 
     11 N11         2.0699   53.4083   24.6568 N.2       1 UNK         0.0000 
     12 C12        -0.5583   49.4631   23.4778 C.2       1 UNK         0.0000 
     13 C13        -1.6445   49.1703   22.7254 C.2       1 UNK         0.0000 
     14 O14        -2.1155   49.8687   21.7481 O.co2     1 UNK         0.0000 
     15 N15        -2.4248   48.0219   22.9095 N.pl3     1 UNK         0.0000 
     16 C16        -2.0166   46.8889   23.7607 C.3       1 UNK         0.0000 
     17 C17        -2.6752   46.9788   25.1632 C.3       1 UNK         0.0000 
     18 N18        -4.1376   47.0321   24.9666 N.am      1 UNK         0.0000 
     19 C19        -4.5921   48.1480   24.1167 C.3       1 UNK         0.0000 
     20 C20        -3.8957   47.9824   22.7434 C.3       1 UNK         0.0000 
     21 C21        -4.9299   45.9617   25.2390 C.2       1 UNK         0.0000 
     22 O22        -4.4955   44.8968   25.6825 O.2       1 UNK         0.0000 
     23 C23        -6.4500   46.1079   25.1282 C.3       1 UNK         0.0000 
     24 C24        -1.4022   51.7856   25.7061 C.ar      1 UNK         0.0000 
     25 C25        -2.1891   51.1363   26.6674 C.ar      1 UNK         0.0000 
     26 C26        -3.5712   51.3083   26.7072 C.ar      1 UNK         0.0000 
     27 C27        -4.1956   52.1406   25.7814 C.ar      1 UNK         0.0000 
     28 C28        -3.4315   52.7985   24.8211 C.ar      1 UNK         0.0000 
     29 C29        -2.0478   52.6259   24.7793 C.ar      1 UNK         0.0000 
     30 F30        -1.3546   53.2956   23.8322 F         1 UNK         0.0000 
     31 C31         0.8182   52.2881   28.0472 C.2       1 UNK         0.0000 
     32 O32         0.2760   51.2967   28.5288 O.2       1 UNK         0.0000 
     33 O33         1.2736   53.3058   28.8176 O.3       1 UNK         0.0000 
     34 C34         1.2007   53.2364   30.2430 C.3       1 UNK         0.0000 
     35 C35         2.3739   52.4986   30.8818 C.2       1 UNK         0.0000 
     36 C36         3.5051   52.0969   30.2756 C.2       1 UNK         0.0000 
     37 H37         3.5209   53.5845   27.4121 H         1 UNK         0.0000 
     38 H38         3.6396   54.6616   26.0408 H         1 UNK         0.0000 
     39 H39         2.4351   54.9702   27.2804 H         1 UNK         0.0000 
     40 H40         0.5531   50.5342   21.1508 H         1 UNK         0.0000 
     41 H41        -0.2858   48.8021   24.2846 H         1 UNK         0.0000 
     42 H42        -2.3619   45.9702   23.2858 H         1 UNK         0.0000 
     43 H43        -0.9323   46.7975   23.8188 H         1 UNK         0.0000 
     44 H44        -2.3632   46.1578   25.8107 H         1 UNK         0.0000 
     45 H45        -2.3537   47.9013   25.6507 H         1 UNK         0.0000 
     46 H46        -4.2681   49.0876   24.5674 H         1 UNK         0.0000 
     47 H47        -5.6737   48.2104   24.0060 H         1 UNK         0.0000 
     48 H48        -4.2604   48.7121   22.0196 H         1 UNK         0.0000 
     49 H49        -4.1698   47.0071   22.3380 H         1 UNK         0.0000 
     50 H50        -6.7586   46.1154   24.0832 H         1 UNK         0.0000 
     51 H51        -6.9494   45.2740   25.6209 H         1 UNK         0.0000 
     52 H52        -6.7882   47.0275   25.6067 H         1 UNK         0.0000 
     53 H53        -1.7328   50.4872   27.3962 H         1 UNK         0.0000 
     54 H54        -4.1541   50.7884   27.4544 H         1 UNK         0.0000 
     55 H55        -5.2670   52.2720   25.8059 H         1 UNK         0.0000 
     56 H56        -3.9105   53.4460   24.1021 H         1 UNK         0.0000 
     57 H57         0.2681   52.7645   30.5607 H         1 UNK         0.0000 
     58 H58         1.1775   54.2523   30.6368 H         1 UNK         0.0000 
     59 H59         2.2581   52.2956   31.9383 H         1 UNK         0.0000 
     60 H60         3.6806   52.2628   29.2243 H         1 UNK         0.0000 
     61 H61         4.2825   51.5936   30.8317 H         1 UNK         0.0000 
@<TRIPOS>BOND
     1    1    2 1    
     2    1   37 1    
     3    1   38 1    
     4    1   39 1    
     5    2   11 1    
     6    2    3 2    
     7    3    4 1    
     8    3   31 1    
     9    4    5 1    
    10    4    6 1    
    11    4   24 1    
    12    6   10 1    
    13    6    7 1    
    14    7    8 2    
    15    7   12 1    
    16    8    9 1    
    17    8   40 1    
    18    9   10 1    
    19   10   11 2    
    20   12   13 2    
    21   12   41 1    
    22   13   14 1    
    23   13   15 1    
    24   15   20 1    
    25   15   16 1    
    26   16   17 1    
    27   16   42 1    
    28   16   43 1    
    29   17   18 1    
    30   17   44 1    
    31   17   45 1    
    32   18   19 1    
    33   18   21 am   BACKBONE|DICT|INTERRES
    34   19   20 1    
    35   19   46 1    
    36   19   47 1    
    37   20   48 1    
    38   20   49 1    
    39   21   22 2    
    40   21   23 1    
    41   23   50 1    
    42   23   51 1    
    43   23   52 1    
    44   24   29 ar   
    45   24   25 ar   
    46   25   26 ar   
    47   25   53 1    
    48   26   27 ar   
    49   26   54 1    
    50   27   28 ar   
    51   27   55 1    
    52   28   29 ar   
    53   28   56 1    
    54   29   30 1    
    55   31   32 2    
    56   31   33 1    
    57   33   34 1    
    58   34   35 1    
    59   34   57 1    
    60   34   58 1    
    61   35   36 2    
    62   35   59 1    
    63   36   60 1    
    64   36   61 1    
@<TRIPOS>SUBSTRUCTURE
     1 UNK         1 GROUP             0       ****    0 ROOT    
