@<TRIPOS>MOLECULE
ZINC35755521_1038
66   70    1
SMALL
USER_CHARGES


@<TRIPOS>ATOM
      1 C1         -5.4535   43.0378   26.6246 C.3       1 UNK         0.0000 
      2 C2         -5.0967   44.4122   26.0845 C.ar      1 UNK         0.0000 
      3 C3         -5.4540   44.7803   24.7856 C.ar      1 UNK         0.0000 
      4 C4         -5.0833   46.0289   24.2862 C.ar      1 UNK         0.0000 
      5 C5         -4.3523   46.9136   25.0856 C.ar      1 UNK         0.0000 
      6 C6         -4.0073   46.5486   26.3920 C.ar      1 UNK         0.0000 
      7 C7         -4.3752   45.2997   26.8849 C.ar      1 UNK         0.0000 
      8 C8         -3.9330   48.2703   24.5135 C.3       1 UNK         0.0000 
      9 N9         -2.6085   48.7673   24.9160 N.am      1 UNK         0.0000 
     10 C10        -2.3167   50.1592   25.2530 C.3       1 UNK         0.0000 
     11 H11        -3.0213   50.5278   25.9969 H         1 UNK         0.0000 
     12 C12        -0.9090   50.0004   25.8429 C.3       1 UNK         0.0000 
     13 H13        -1.0178   49.6978   26.8816 H         1 UNK         0.0000 
     14 O14        -0.4237   48.8611   25.1586 O.3       1 UNK         0.0000 
     15 C15        -1.4236   48.0362   24.7737 C.2       1 UNK         0.0000 
     16 O16        -1.2375   46.8967   24.3544 O.2       1 UNK         0.0000 
     17 C17         0.0702   51.1774   25.8603 C.ar      1 UNK         0.0000 
     18 C18         0.3143   51.8547   27.0566 C.ar      1 UNK         0.0000 
     19 C19         1.2292   52.9049   27.0950 C.ar      1 UNK         0.0000 
     20 C20         1.9014   53.2964   25.9346 C.ar      1 UNK         0.0000 
     21 C21         1.6639   52.6256   24.7237 C.ar      1 UNK         0.0000 
     22 C22         0.7469   51.5699   24.6999 C.ar      1 UNK         0.0000 
     23 N23         2.3034   52.9084   23.5030 N.am      1 UNK         0.0000 
     24 C24         3.3503   53.7210   23.2427 C.2       1 UNK         0.0000 
     25 O25         3.8723   54.4857   24.0542 O.2       1 UNK         0.0000 
     26 C26         3.8703   53.6288   21.8963 C.2       1 UNK         0.0000 
     27 C27         4.8347   54.4596   21.3184 C.2       1 UNK         0.0000 
     28 C28         5.1569   54.1074   20.0052 C.2       1 UNK         0.0000 
     29 C29         4.4765   52.9819   19.5718 C.2       1 UNK         0.0000 
     30 S30         3.4249   52.3429   20.7917 S.3       1 UNK         0.0000 
     31 C31        -2.3811   51.1472   24.0570 C.2       1 UNK         0.0000 
     32 O32        -2.6301   52.3322   24.2694 O.2       1 UNK         0.0000 
     33 N33        -2.0905   50.6716   22.8304 N.am      1 UNK         0.0000 
     34 C34        -1.9383   51.4733   21.6143 C.3       1 UNK         0.0000 
     35 C35        -2.8806   51.0082   20.4918 C.3       1 UNK         0.0000 
     36 H36        -3.9016   50.8957   20.8678 H         1 UNK         0.0000 
     37 C37        -2.3569   49.8891   19.5862 C.3       1 UNK         0.0000 
     38 C38        -2.9557   50.1761   18.2259 C.3       1 UNK         0.0000 
     39 C39        -3.3775   51.6416   18.3048 C.3       1 UNK         0.0000 
     40 O40        -2.9139   52.0965   19.5726 O.3       1 UNK         0.0000 
     41 H41        -4.6536   42.6533   27.2622 H         1 UNK         0.0000 
     42 H42        -6.3677   43.0784   27.2158 H         1 UNK         0.0000 
     43 H43        -5.5840   42.3104   25.8232 H         1 UNK         0.0000 
     44 H44        -6.0224   44.1048   24.1644 H         1 UNK         0.0000 
     45 H45        -5.3652   46.3047   23.2798 H         1 UNK         0.0000 
     46 H46        -3.4421   47.2222   27.0215 H         1 UNK         0.0000 
     47 H47        -4.0929   45.0227   27.8879 H         1 UNK         0.0000 
     48 H48        -4.6816   49.0026   24.8171 H         1 UNK         0.0000 
     49 H49        -3.9693   48.2379   23.4241 H         1 UNK         0.0000 
     50 H50        -0.1906   51.5533   27.9660 H         1 UNK         0.0000 
     51 H51         1.4214   53.4191   28.0225 H         1 UNK         0.0000 
     52 H52         2.5977   54.1172   26.0099 H         1 UNK         0.0000 
     53 H53         0.5696   51.0317   23.7780 H         1 UNK         0.0000 
     54 H54         1.9829   52.3579   22.7232 H         1 UNK         0.0000 
     55 H55         5.2844   55.2964   21.8270 H         1 UNK         0.0000 
     56 H56         5.8692   54.6441   19.3952 H         1 UNK         0.0000 
     57 H57         4.5519   52.4957   18.6105 H         1 UNK         0.0000 
     58 H58        -1.8393   49.6972   22.7584 H         1 UNK         0.0000 
     59 H59        -2.0973   52.5334   21.8196 H         1 UNK         0.0000 
     60 H60        -0.8970   51.3962   21.2983 H         1 UNK         0.0000 
     61 H61        -1.2673   49.9194   19.5333 H         1 UNK         0.0000 
     62 H62        -2.6032   48.9021   19.9812 H         1 UNK         0.0000 
     63 H63        -2.2344   50.0024   17.4268 H         1 UNK         0.0000 
     64 H64        -3.8226   49.5423   18.0371 H         1 UNK         0.0000 
     65 H65        -2.9511   52.2479   17.5054 H         1 UNK         0.0000 
     66 H66        -4.4611   51.7576   18.2503 H         1 UNK         0.0000 
@<TRIPOS>BOND
     1    1    2 1    
     2    1   41 1    
     3    1   42 1    
     4    1   43 1    
     5    2    7 ar   
     6    2    3 ar   
     7    3    4 ar   
     8    3   44 1    
     9    4    5 ar   
    10    4   45 1    
    11    5    6 ar   
    12    5    8 1    
    13    6    7 ar   
    14    6   46 1    
    15    7   47 1    
    16    8    9 1    
    17    8   48 1    
    18    8   49 1    
    19    9   15 am   BACKBONE|DICT|INTERRES
    20    9   10 1    
    21   10   11 1    
    22   10   12 1    
    23   10   31 1    
    24   12   13 1    
    25   12   14 1    
    26   12   17 1    
    27   14   15 1    
    28   15   16 2    
    29   17   22 ar   
    30   17   18 ar   
    31   18   19 ar   
    32   18   50 1    
    33   19   20 ar   
    34   19   51 1    
    35   20   21 ar   
    36   20   52 1    
    37   21   22 ar   
    38   21   23 1    
    39   22   53 1    
    40   23   24 am   BACKBONE|DICT|INTERRES
    41   23   54 1    
    42   24   25 2    
    43   24   26 1    
    44   26   30 1    
    45   26   27 2    
    46   27   28 1    
    47   27   55 1    
    48   28   29 2    
    49   28   56 1    
    50   29   30 1    
    51   29   57 1    
    52   31   32 2    
    53   31   33 am   BACKBONE|DICT|INTERRES
    54   33   34 1    
    55   33   58 1    
    56   34   35 1    
    57   34   59 1    
    58   34   60 1    
    59   35   36 1    
    60   35   40 1    
    61   35   37 1    
    62   37   38 1    
    63   37   61 1    
    64   37   62 1    
    65   38   39 1    
    66   38   63 1    
    67   38   64 1    
    68   39   40 1    
    69   39   65 1    
    70   39   66 1    
@<TRIPOS>SUBSTRUCTURE
     1 UNK         1 GROUP             0       ****    0 ROOT    
