@<TRIPOS>MOLECULE
ZINC49509374_4089
71   75    1
SMALL
USER_CHARGES


@<TRIPOS>ATOM
      1 C1          2.1024   49.7205   22.3339 C.2       1 UNK         0.0000 
      2 C2          1.7045   50.5634   23.3780 C.2       1 UNK         0.0000 
      3 C3          1.6211   51.8974   22.9959 C.2       1 UNK         0.0000 
      4 S4          1.9820   52.0974   21.3041 S.3       1 UNK         0.0000 
      5 C5          2.2979   50.4005   21.1403 C.2       1 UNK         0.0000 
      6 S6          1.1853   53.2795   24.0963 S.o2      1 UNK         0.0000 
      7 O7          0.0382   52.8133   24.8820 O.2       1 UNK         0.0000 
      8 O8          1.1053   54.4944   23.2819 O.2       1 UNK         0.0000 
      9 N9          2.5846   53.4805   25.2160 N.pl3     1 UNK         0.0000 
     10 C10         2.3493   53.2916   26.6598 C.3       1 UNK         0.0000 
     11 C11         3.1598   54.2708   27.5230 C.3       1 UNK         0.0000 
     12 C12         4.6512   54.1359   27.2140 C.3       1 UNK         0.0000 
     13 C13         4.8831   54.2808   25.7189 C.ar      1 UNK         0.0000 
     14 C14         3.8673   53.9468   24.7897 C.ar      1 UNK         0.0000 
     15 C15         4.1451   54.0859   23.4243 C.ar      1 UNK         0.0000 
     16 C16         5.3875   54.4965   22.9581 C.ar      1 UNK         0.0000 
     17 C17         6.3864   54.8232   23.8784 C.ar      1 UNK         0.0000 
     18 C18         6.1238   54.7244   25.2428 C.ar      1 UNK         0.0000 
     19 N19         5.5338   54.5392   21.5643 N.am      1 UNK         0.0000 
     20 C20         6.3748   55.2968   20.8180 C.2       1 UNK         0.0000 
     21 O21         7.1045   56.1732   21.2852 O.2       1 UNK         0.0000 
     22 C22         6.3725   55.0151   19.3410 C.2       1 UNK         0.0000 
     23 O23         7.1161   55.6460   18.5880 O.2       1 UNK         0.0000 
     24 N24         5.5285   54.0556   18.8830 N.am      1 UNK         0.0000 
     25 C25         5.3505   53.6927   17.4724 C.3       1 UNK         0.0000 
     26 C26         4.4995   54.6829   16.6142 C.3       1 UNK         0.0000 
     27 C27         5.3962   55.6326   15.7848 C.3       1 UNK         0.0000 
     28 C28         4.5876   56.5585   14.8614 C.3       1 UNK         0.0000 
     29 N29         3.6036   57.3720   15.7361 N.4       1 UNK         0.0000 
     30 C30         2.6399   56.4528   16.5240 C.3       1 UNK         0.0000 
     31 C31         3.4880   55.5380   17.4243 C.3       1 UNK         0.0000 
     32 C32         2.8472   58.4360   14.9042 C.3       1 UNK         0.0000 
     33 C33         1.8832   59.3733   15.6429 C.3       1 UNK         0.0000 
     34 C34         1.5364   60.4514   14.6148 C.3       1 UNK         0.0000 
     35 C35         2.8140   60.6409   13.7886 C.3       1 UNK         0.0000 
     36 C36         3.6911   59.4067   14.0594 C.3       1 UNK         0.0000 
     37 H37         2.2467   48.6564   22.4491 H         1 UNK         0.0000 
     38 H38         1.5036   50.2145   24.3812 H         1 UNK         0.0000 
     39 H39         2.6055   49.9931   20.1868 H         1 UNK         0.0000 
     40 H40         1.2905   53.2946   26.9204 H         1 UNK         0.0000 
     41 H41         2.7000   52.2802   26.8634 H         1 UNK         0.0000 
     42 H42         2.8265   55.2908   27.3332 H         1 UNK         0.0000 
     43 H43         2.9677   54.0862   28.5804 H         1 UNK         0.0000 
     44 H44         5.0043   53.1525   27.5302 H         1 UNK         0.0000 
     45 H45         5.2256   54.8727   27.7777 H         1 UNK         0.0000 
     46 H46         3.3902   53.8793   22.6911 H         1 UNK         0.0000 
     47 H47         7.3654   55.1420   23.5521 H         1 UNK         0.0000 
     48 H48         6.9052   54.9707   25.9450 H         1 UNK         0.0000 
     49 H49         4.9023   53.9298   21.0768 H         1 UNK         0.0000 
     50 H50         4.9479   53.5315   19.5161 H         1 UNK         0.0000 
     51 H51         4.8571   52.7155   17.4700 H         1 UNK         0.0000 
     52 H52         6.3202   53.4943   17.0096 H         1 UNK         0.0000 
     53 H53         3.9181   54.0921   15.9030 H         1 UNK         0.0000 
     54 H54         6.0938   55.0483   15.1840 H         1 UNK         0.0000 
     55 H55         6.0338   56.2297   16.4345 H         1 UNK         0.0000 
     56 H56         4.0080   56.0224   14.1074 H         1 UNK         0.0000 
     57 H57         5.2649   57.2673   14.3822 H         1 UNK         0.0000 
     58 H58         2.0102   57.0928   17.1397 H         1 UNK         0.0000 
     59 H59         2.0246   55.9080   15.8057 H         1 UNK         0.0000 
     60 H60         4.0031   56.1446   18.1700 H         1 UNK         0.0000 
     61 H61         2.8360   54.8851   18.0073 H         1 UNK         0.0000 
     62 H62         2.2393   57.8466   14.2111 H         1 UNK         0.0000 
     63 H63         2.3970   59.8471   16.4798 H         1 UNK         0.0000 
     64 H64         0.9960   58.8767   16.0351 H         1 UNK         0.0000 
     65 H65         1.2123   61.3789   15.0875 H         1 UNK         0.0000 
     66 H66         0.7198   60.1115   13.9753 H         1 UNK         0.0000 
     67 H67         3.3376   61.5457   14.1022 H         1 UNK         0.0000 
     68 H68         2.5853   60.7529   12.7285 H         1 UNK         0.0000 
     69 H69         4.0577   58.9524   13.1373 H         1 UNK         0.0000 
     70 H70         4.5600   59.7213   14.6426 H         1 UNK         0.0000 
     71 H71         4.1547   57.8885   16.4099 H         1 UNK         0.0000 
@<TRIPOS>BOND
     1    1    5 2    
     2    1    2 1    
     3    1   37 1    
     4    2    3 2    
     5    2   38 1    
     6    3    4 1    
     7    3    6 1    
     8    4    5 1    
     9    5   39 1    
    10    6    7 2    
    11    6    8 2    
    12    6    9 1    
    13    9   14 1    
    14    9   10 1    
    15   10   11 1    
    16   10   40 1    
    17   10   41 1    
    18   11   12 1    
    19   11   42 1    
    20   11   43 1    
    21   12   13 1    
    22   12   44 1    
    23   12   45 1    
    24   13   18 ar   
    25   13   14 ar   
    26   14   15 ar   
    27   15   16 ar   
    28   15   46 1    
    29   16   17 ar   
    30   16   19 1    
    31   17   18 ar   
    32   17   47 1    
    33   18   48 1    
    34   19   20 am   BACKBONE|DICT|INTERRES
    35   19   49 1    
    36   20   21 2    
    37   20   22 1    
    38   22   23 2    
    39   22   24 am   BACKBONE|DICT|INTERRES
    40   24   25 1    
    41   24   50 1    
    42   25   26 1    
    43   25   51 1    
    44   25   52 1    
    45   26   31 1    
    46   26   27 1    
    47   26   53 1    
    48   27   28 1    
    49   27   54 1    
    50   27   55 1    
    51   28   29 1    
    52   28   56 1    
    53   28   57 1    
    54   29   30 1    
    55   29   32 1    
    56   29   71 1    
    57   30   31 1    
    58   30   58 1    
    59   30   59 1    
    60   31   60 1    
    61   31   61 1    
    62   32   36 1    
    63   32   33 1    
    64   32   62 1    
    65   33   34 1    
    66   33   63 1    
    67   33   64 1    
    68   34   35 1    
    69   34   65 1    
    70   34   66 1    
    71   35   36 1    
    72   35   67 1    
    73   35   68 1    
    74   36   69 1    
    75   36   70 1    
@<TRIPOS>SUBSTRUCTURE
     1 UNK         1 GROUP             0       ****    0 ROOT    
