@<TRIPOS>MOLECULE
ZINC63478901_3241
57   60    1
SMALL
USER_CHARGES


@<TRIPOS>ATOM
      1 C1          6.0661   53.5199   18.9255 C.3       1 UNK         0.0000 
      2 C2          5.1013   53.2482   20.0669 C.ar      1 UNK         0.0000 
      3 C3          4.8608   51.9514   20.4930 C.ar      1 UNK         0.0000 
      4 C4          3.9237   51.6921   21.4763 C.ar      1 UNK         0.0000 
      5 C5          3.2319   52.7280   22.1195 C.ar      1 UNK         0.0000 
      6 C6          3.5044   54.0389   21.6949 C.ar      1 UNK         0.0000 
      7 C7          4.4238   54.2928   20.6766 C.ar      1 UNK         0.0000 
      8 N8          2.3045   52.4114   23.1603 N.pl3     1 UNK         0.0000 
      9 C9          1.7533   51.0571   23.2775 C.3       1 UNK         0.0000 
     10 C10         0.8918   50.6185   22.0737 C.2       1 UNK         0.0000 
     11 O11         0.5597   51.4277   21.2062 O.2       1 UNK         0.0000 
     12 N12         0.5378   49.3185   22.0543 N.am      1 UNK         0.0000 
     13 C13        -0.0591   48.5577   20.9463 C.3       1 UNK         0.0000 
     14 H14        -0.4960   47.6311   21.3220 H         1 UNK         0.0000 
     15 N15        -1.1170   49.2418   20.2142 N.pl3     1 UNK         0.0000 
     16 C16        -0.7402   49.7136   18.9592 C.ar      1 UNK         0.0000 
     17 C17        -1.4495   50.6079   18.1574 C.ar      1 UNK         0.0000 
     18 C18        -0.9356   50.9737   16.9107 C.ar      1 UNK         0.0000 
     19 C19         0.2787   50.4403   16.4627 C.ar      1 UNK         0.0000 
     20 C20         0.9719   49.5288   17.2646 C.ar      1 UNK         0.0000 
     21 C21         0.4608   49.1761   18.5131 C.ar      1 UNK         0.0000 
     22 S22         1.1492   48.0599   19.6814 S.3       1 UNK         0.0000 
     23 C23         0.8332   50.8284   15.1049 C.3       1 UNK         0.0000 
     24 S24         1.8894   53.5688   24.4840 S.o2      1 UNK         0.0000 
     25 O25         1.5318   54.8301   23.8370 O.2       1 UNK         0.0000 
     26 O26         0.8726   52.8986   25.3040 O.2       1 UNK         0.0000 
     27 C27         3.3054   53.9012   25.5933 C.2       1 UNK         0.0000 
     28 C28         4.6172   54.0969   25.3688 C.2       1 UNK         0.0000 
     29 N29         5.2388   54.4417   26.5208 N.2       1 UNK         0.0000 
     30 N30         4.4315   54.4969   27.4936 N.2       1 UNK         0.0000 
     31 C31         3.1111   54.1553   27.0675 C.3       1 UNK         0.0000 
     32 H32         2.4573   55.0016   27.2738 H         1 UNK         0.0000 
     33 C33         2.6467   52.9366   27.8867 C.3       1 UNK         0.0000 
     34 C34         5.5220   54.0248   24.1549 C.3       1 UNK         0.0000 
     35 H35         5.6001   54.1811   18.1929 H         1 UNK         0.0000 
     36 H36         6.3381   52.6027   18.4008 H         1 UNK         0.0000 
     37 H37         6.9709   54.0131   19.2815 H         1 UNK         0.0000 
     38 H38         5.3982   51.1198   20.0817 H         1 UNK         0.0000 
     39 H39         3.7748   50.6574   21.7366 H         1 UNK         0.0000 
     40 H40         3.0069   54.8960   22.1092 H         1 UNK         0.0000 
     41 H41         4.6147   55.2966   20.3442 H         1 UNK         0.0000 
     42 H42         2.5272   50.3145   23.4720 H         1 UNK         0.0000 
     43 H43         1.1010   50.9023   24.1330 H         1 UNK         0.0000 
     44 H44         0.9134   48.7512   22.7999 H         1 UNK         0.0000 
     45 H45        -1.9645   49.4817   20.7065 H         1 UNK         0.0000 
     46 H46        -2.3876   51.0248   18.4897 H         1 UNK         0.0000 
     47 H47        -1.4824   51.6711   16.2934 H         1 UNK         0.0000 
     48 H48         1.9041   49.1091   16.9170 H         1 UNK         0.0000 
     49 H49         1.3832   49.9986   14.6587 H         1 UNK         0.0000 
     50 H50         0.0335   51.0868   14.4096 H         1 UNK         0.0000 
     51 H51         1.5089   51.6778   15.2005 H         1 UNK         0.0000 
     52 H52         1.6461   52.6039   27.6177 H         1 UNK         0.0000 
     53 H53         3.3260   52.0963   27.7613 H         1 UNK         0.0000 
     54 H54         2.6188   53.1717   28.9515 H         1 UNK         0.0000 
     55 H55         5.3432   53.1227   23.5798 H         1 UNK         0.0000 
     56 H56         5.3748   54.8963   23.5202 H         1 UNK         0.0000 
     57 H57         6.5751   54.0000   24.4403 H         1 UNK         0.0000 
@<TRIPOS>BOND
     1    1    2 1    
     2    1   35 1    
     3    1   36 1    
     4    1   37 1    
     5    2    7 ar   
     6    2    3 ar   
     7    3    4 ar   
     8    3   38 1    
     9    4    5 ar   
    10    4   39 1    
    11    5    6 ar   
    12    5    8 1    
    13    6    7 ar   
    14    6   40 1    
    15    7   41 1    
    16    8    9 1    
    17    8   24 1    
    18    9   10 1    
    19    9   42 1    
    20    9   43 1    
    21   10   11 2    
    22   10   12 am   BACKBONE|DICT|INTERRES
    23   12   13 1    
    24   12   44 1    
    25   13   14 1    
    26   13   22 1    
    27   13   15 1    
    28   15   16 1    
    29   15   45 1    
    30   16   21 ar   
    31   16   17 ar   
    32   17   18 ar   
    33   17   46 1    
    34   18   19 ar   
    35   18   47 1    
    36   19   20 ar   
    37   19   23 1    
    38   20   21 ar   
    39   20   48 1    
    40   21   22 1    
    41   23   49 1    
    42   23   50 1    
    43   23   51 1    
    44   24   25 2    
    45   24   26 2    
    46   24   27 1    
    47   27   31 1    
    48   27   28 2    
    49   28   29 1    
    50   28   34 1    
    51   29   30 2    
    52   30   31 1    
    53   31   32 1    
    54   31   33 1    
    55   33   52 1    
    56   33   53 1    
    57   33   54 1    
    58   34   55 1    
    59   34   56 1    
    60   34   57 1    
@<TRIPOS>SUBSTRUCTURE
     1 UNK         1 GROUP             0       ****    0 ROOT    
