ZINC40826043_4197
                    3D
 Schrodinger Suite 2024-2.
 58 61  0  0  1  0            999 V2000
    4.5157   54.4994   29.3207 C   0  0  0  0  0  0
    3.6049   54.0820   28.1850 C   0  0  0  0  0  0
    2.3346   53.5755   28.4522 C   0  0  0  0  0  0
    1.5043   53.1836   27.4059 C   0  0  0  0  0  0
    1.9279   53.2939   26.0705 C   0  0  0  0  0  0
    3.2059   53.8176   25.8026 C   0  0  0  0  0  0
    4.0344   54.2115   26.8660 C   0  0  0  0  0  0
    3.5870   53.8861   24.4479 N   0  0  0  0  0  0
    4.7650   54.2293   23.8821 C   0  0  0  0  0  0
    5.7637   54.6259   24.4833 O   0  0  0  0  0  0
    4.7699   54.0963   22.4436 C   0  0  0  0  0  0
    5.6795   54.5551   21.4747 C   0  0  0  0  0  0
    5.1669   54.0762   20.2439 C   0  0  0  0  0  0
    3.9909   53.3995   20.5289 C   0  0  0  0  0  0
    3.7516   53.4078   21.8557 O   0  0  0  0  0  0
    3.0323   52.7480   19.5590 C   0  0  0  0  0  0
    3.2647   53.4401   18.2010 C   0  0  0  0  0  0
    4.7572   53.5024   17.7898 C   0  0  0  0  0  0
    5.6678   54.1746   18.8565 C   0  0  0  0  0  0
    6.8063   54.7107   18.6568 N   0  0  0  0  0  0
    7.3094   54.7033   17.4022 N   0  0  0  0  0  0
    8.9883   55.1152   17.0743 S   0  0  0  0  0  0
    9.8307   54.3934   18.0348 O   0  0  0  0  0  0
    9.1991   54.9566   15.6317 O   0  0  0  0  0  0
    9.1735   56.8596   17.4234 C   0  0  0  0  0  0
   10.4004   57.3254   17.8979 C   0  0  0  0  0  0
   10.5825   58.6851   18.1266 C   0  0  0  0  0  0
    9.5388   59.5715   17.8764 C   0  0  0  0  0  0
    8.3084   59.1093   17.4131 C   0  0  0  0  0  0
    8.1233   57.7485   17.1809 C   0  0  0  0  0  0
    9.7282   60.8942   18.0813 F   0  0  0  0  0  0
    6.8931   55.4482   21.6887 C   0  0  0  0  0  0
    1.1488   52.9038   24.9916 O   0  0  0  0  0  0
   -0.0945   52.2486   25.2229 C   0  0  0  0  0  0
    3.9294   54.8914   30.1483 H   0  0  0  0  0  0
    5.2037   55.2907   29.0178 H   0  0  0  0  0  0
    5.0926   53.6445   29.6701 H   0  0  0  0  0  0
    1.9886   53.4750   29.4703 H   0  0  0  0  0  0
    0.5317   52.7888   27.6545 H   0  0  0  0  0  0
    5.0208   54.6110   26.6988 H   0  0  0  0  0  0
    2.8643   53.5810   23.8112 H   0  0  0  0  0  0
    3.2153   51.6743   19.4902 H   0  0  0  0  0  0
    1.9970   52.8915   19.8702 H   0  0  0  0  0  0
    2.6968   52.9176   17.4302 H   0  0  0  0  0  0
    2.8562   54.4523   18.2325 H   0  0  0  0  0  0
    5.1299   52.4968   17.5932 H   0  0  0  0  0  0
    4.8289   54.0426   16.8458 H   0  0  0  0  0  0
    6.7640   54.2917   16.6410 H   0  0  0  0  0  0
   11.2151   56.6361   18.0732 H   0  0  0  0  0  0
   11.5325   59.0503   18.4862 H   0  0  0  0  0  0
    7.5050   59.8069   17.2234 H   0  0  0  0  0  0
    7.1730   57.3959   16.8067 H   0  0  0  0  0  0
    7.8313   54.8958   21.6518 H   0  0  0  0  0  0
    6.9594   56.2074   20.9099 H   0  0  0  0  0  0
    6.8614   56.0010   22.6271 H   0  0  0  0  0  0
   -0.5385   51.9720   24.2667 H   0  0  0  0  0  0
    0.0371   51.3326   25.8009 H   0  0  0  0  0  0
   -0.8043   52.8958   25.7384 H   0  0  0  0  0  0
  1  2  1  0  0  0
  1 35  1  0  0  0
  1 36  1  0  0  0
  1 37  1  0  0  0
  2  7  2  0  0  0
  2  3  1  0  0  0
  3  4  2  0  0  0
  3 38  1  0  0  0
  4  5  1  0  0  0
  4 39  1  0  0  0
  5  6  2  0  0  0
  5 33  1  0  0  0
  6  7  1  0  0  0
  6  8  1  0  0  0
  7 40  1  0  0  0
  8  9  1  0  0  0
  8 41  1  0  0  0
  9 10  2  0  0  0
  9 11  1  0  0  0
 11 15  1  0  0  0
 11 12  2  0  0  0
 12 13  1  0  0  0
 12 32  1  0  0  0
 13 19  1  0  0  0
 13 14  2  0  0  0
 14 15  1  0  0  0
 14 16  1  0  0  0
 16 17  1  0  0  0
 16 42  1  0  0  0
 16 43  1  0  0  0
 17 18  1  0  0  0
 17 44  1  0  0  0
 17 45  1  0  0  0
 18 19  1  0  0  0
 18 46  1  0  0  0
 18 47  1  0  0  0
 19 20  2  0  0  0
 20 21  1  0  0  0
 21 22  1  0  0  0
 21 48  1  0  0  0
 22 23  2  0  0  0
 22 24  2  0  0  0
 22 25  1  0  0  0
 25 30  2  0  0  0
 25 26  1  0  0  0
 26 27  2  0  0  0
 26 49  1  0  0  0
 27 28  1  0  0  0
 27 50  1  0  0  0
 28 29  2  0  0  0
 28 31  1  0  0  0
 29 30  1  0  0  0
 29 51  1  0  0  0
 30 52  1  0  0  0
 32 53  1  0  0  0
 32 54  1  0  0  0
 32 55  1  0  0  0
 33 34  1  0  0  0
 34 56  1  0  0  0
 34 57  1  0  0  0
 34 58  1  0  0  0
M  END
> <i_i_glide_confnum>
238

> <i_i_glide_lignum>
4198

> <i_i_glide_posenum>
400

> <i_i_glide_rotatable_bonds>
7

> <i_m_Source_File_Index>
973

> <b_m_subgroup_collapsed>
0

> <r_i_docking_score>
-3.95419

> <r_i_glide_ecoul>
-2.92929

> <r_i_glide_eff_state_penalty>
0

> <r_i_glide_einternal>
5.55686

> <r_i_glide_emodel>
-48.7871

> <r_i_glide_energy>
-41.6933

> <r_i_glide_erotb>
0.430896

> <r_i_glide_esite>
-0.114834

> <r_i_glide_evdw>
-38.764

> <r_i_glide_gscore>
-3.95419

> <r_i_glide_hbond>
0

> <r_i_glide_ligand_efficiency>
-0.1163

> <r_i_glide_ligand_efficiency_ln>
-0.873592

> <r_i_glide_ligand_efficiency_sa>
-0.376766

> <r_i_glide_lipo>
-1.94769

> <r_i_glide_metal>
0

> <r_i_glide_rewards>
0.0550253

> <s_i_glide_gridfile>
wee1_glide-grid

> <s_m_Source_File>
wee1_decoys_glide_SP.sdf

> <s_m_Source_Path>
/Users/zhangxujun/Desktop

> <s_m_entry_id>
1248

> <s_m_entry_name>
wee1_decoys_glide_SP.973

> <s_m_subgroup_title>
wee1_decoys_glide_SP

> <s_m_subgroupid>
wee1_decoys_glide_SP


$$$$
