@<TRIPOS>MOLECULE
ZINC54621216_2524
45   48    1
SMALL
USER_CHARGES


@<TRIPOS>ATOM
      1 C1          4.7706   54.4967   28.6826 C.ar      1 UNK         0.0000 
      2 C2          5.7986   54.4831   27.7452 C.ar      1 UNK         0.0000 
      3 C3          5.4791   54.4430   26.3652 C.ar      1 UNK         0.0000 
      4 C4          6.4706   54.4161   25.3693 C.ar      1 UNK         0.0000 
      5 C5          6.1217   54.2868   24.0325 C.ar      1 UNK         0.0000 
      6 C6          4.7816   54.2794   23.6128 C.ar      1 UNK         0.0000 
      7 C7          3.7715   54.3903   24.5920 C.ar      1 UNK         0.0000 
      8 C8          4.1048   54.4294   25.9817 C.ar      1 UNK         0.0000 
      9 N9          3.1142   54.4607   26.9254 N.ar      1 UNK         0.0000 
     10 C10         3.4541   54.4894   28.2357 C.ar      1 UNK         0.0000 
     11 O11         2.4521   54.4967   24.2212 O.3       1 UNK         0.0000 
     12 C12         4.4275   54.2386   22.1012 C.3       1 UNK         0.0000 
     13 H13         3.6618   55.0055   21.9747 H         1 UNK         0.0000 
     14 C14         3.8307   52.9103   21.6301 C.2       1 UNK         0.0000 
     15 C15         4.3683   51.9452   20.7768 C.2       1 UNK         0.0000 
     16 C16         3.5038   50.8956   20.4631 C.2       1 UNK         0.0000 
     17 C17         2.2941   50.9823   21.1137 C.2       1 UNK         0.0000 
     18 S18         2.2108   52.4116   22.0692 S.3       1 UNK         0.0000 
     19 N19         5.5517   54.7228   21.2845 N.pl3     1 UNK         0.0000 
     20 C20         5.4696   55.1326   19.9434 C.ar      1 UNK         0.0000 
     21 C21         4.3542   54.8984   19.1307 C.ar      1 UNK         0.0000 
     22 C22         4.3045   55.4236   17.8428 C.ar      1 UNK         0.0000 
     23 C23         5.3752   56.1789   17.3607 C.ar      1 UNK         0.0000 
     24 C24         6.5064   56.3813   18.1512 C.ar      1 UNK         0.0000 
     25 C25         6.5518   55.8541   19.4391 C.ar      1 UNK         0.0000 
     26 S26         5.3238   56.8796   15.7157 S.o2      1 UNK         0.0000 
     27 O27         6.6054   56.5525   15.0839 O.2       1 UNK         0.0000 
     28 O28         4.0485   56.4974   15.1015 O.2       1 UNK         0.0000 
     29 N29         5.2950   58.6082   15.9530 N.pl3     1 UNK         0.0000 
     30 H30         4.9957   54.5291   29.7366 H         1 UNK         0.0000 
     31 H31         6.8311   54.4953   28.0646 H         1 UNK         0.0000 
     32 H32         7.5040   54.4874   25.6557 H         1 UNK         0.0000 
     33 H33         6.9313   54.2140   23.3214 H         1 UNK         0.0000 
     34 H34         2.6329   54.5103   28.9370 H         1 UNK         0.0000 
     35 H35         2.3083   54.3537   23.2837 H         1 UNK         0.0000 
     36 H36         5.3534   52.0314   20.3408 H         1 UNK         0.0000 
     37 H37         3.7547   50.0995   19.7757 H         1 UNK         0.0000 
     38 H38         1.4558   50.3036   21.0559 H         1 UNK         0.0000 
     39 H39         6.3246   55.1079   21.8030 H         1 UNK         0.0000 
     40 H40         3.5007   54.3475   19.4911 H         1 UNK         0.0000 
     41 H41         3.4298   55.2503   17.2324 H         1 UNK         0.0000 
     42 H42         7.3440   56.9490   17.7705 H         1 UNK         0.0000 
     43 H43         7.4267   56.0297   20.0465 H         1 UNK         0.0000 
     44 H44         4.4215   59.0032   16.3133 H         1 UNK         0.0000 
     45 H45         6.1323   59.0210   16.3700 H         1 UNK         0.0000 
@<TRIPOS>BOND
     1    1   10 ar   
     2    1    2 ar   
     3    1   30 1    
     4    2    3 ar   
     5    2   31 1    
     6    3    8 ar   
     7    3    4 ar   
     8    4    5 ar   
     9    4   32 1    
    10    5    6 ar   
    11    5   33 1    
    12    6    7 ar   
    13    6   12 1    
    14    7    8 ar   
    15    7   11 1    
    16    8    9 ar   
    17    9   10 ar   
    18   10   34 1    
    19   11   35 1    
    20   12   13 1    
    21   12   14 1    
    22   12   19 1    
    23   14   18 1    
    24   14   15 2    
    25   15   16 1    
    26   15   36 1    
    27   16   17 2    
    28   16   37 1    
    29   17   18 1    
    30   17   38 1    
    31   19   20 1    
    32   19   39 1    
    33   20   25 ar   
    34   20   21 ar   
    35   21   22 ar   
    36   21   40 1    
    37   22   23 ar   
    38   22   41 1    
    39   23   24 ar   
    40   23   26 1    
    41   24   25 ar   
    42   24   42 1    
    43   25   43 1    
    44   26   27 2    
    45   26   28 2    
    46   26   29 1    
    47   29   44 1    
    48   29   45 1    
@<TRIPOS>SUBSTRUCTURE
     1 UNK         1 GROUP             0       ****    0 ROOT    
