@<TRIPOS>MOLECULE
ZINC04233954_1370
41   42    1
SMALL
USER_CHARGES


@<TRIPOS>ATOM
      1 C1          1.3450   52.6834   30.8218 C.3       1 UNK         0.0000 
      2 C2          2.4104   52.9231   29.7268 C.3       1 UNK         0.0000 
      3 C3          3.8349   52.6484   30.2533 C.3       1 UNK         0.0000 
      4 C4          2.2887   54.3274   29.0716 C.2       1 UNK         0.0000 
      5 O5          1.6165   55.2262   29.5775 O.2       1 UNK         0.0000 
      6 N6          3.0807   54.5824   27.9684 N.am      1 UNK         0.0000 
      7 C7          2.8236   54.0716   26.8215 C.2       1 UNK         0.0000 
      8 N8          3.5046   54.3365   25.6282 N.pl3     1 UNK         0.0000 
      9 C9          3.0405   53.6969   24.4644 C.ar      1 UNK         0.0000 
     10 C10         3.5456   53.7847   23.1581 C.ar      1 UNK         0.0000 
     11 C11         2.9456   53.0674   22.1238 C.ar      1 UNK         0.0000 
     12 C12         1.8391   52.2563   22.3848 C.ar      1 UNK         0.0000 
     13 C13         1.3246   52.1720   23.6807 C.ar      1 UNK         0.0000 
     14 C14         1.9330   52.8946   24.7064 C.ar      1 UNK         0.0000 
     15 S15         1.4993   52.9038   26.3945 S.3       1 UNK         0.0000 
     16 S16         1.1250   51.3081   21.0533 S.o2      1 UNK         0.0000 
     17 O17         2.2360   50.7016   20.3185 O.2       1 UNK         0.0000 
     18 O18         0.0415   50.4856   21.5975 O.2       1 UNK         0.0000 
     19 N19         0.4009   52.4872   19.9985 N.pl3     1 UNK         0.0000 
     20 C20         4.7243   55.1675   25.5552 C.3       1 UNK         0.0000 
     21 C21         6.0238   54.5860   26.1347 C.2       1 UNK         0.0000 
     22 O22         7.1043   54.9638   25.6830 O.2       1 UNK         0.0000 
     23 O23         5.8658   53.8105   27.2201 O.3       1 UNK         0.0000 
     24 C24         6.9918   53.3620   27.9520 C.3       1 UNK         0.0000 
     25 H25         0.3322   52.7675   30.4240 H         1 UNK         0.0000 
     26 H26         1.4384   51.6955   31.2588 H         1 UNK         0.0000 
     27 H27         1.4268   53.3855   31.6481 H         1 UNK         0.0000 
     28 H28         2.2125   52.1764   28.9596 H         1 UNK         0.0000 
     29 H29         4.5474   52.5986   29.4312 H         1 UNK         0.0000 
     30 H30         4.1771   53.4281   30.9327 H         1 UNK         0.0000 
     31 H31         3.8940   51.6985   30.7847 H         1 UNK         0.0000 
     32 H32         4.4031   54.3902   22.9118 H         1 UNK         0.0000 
     33 H33         3.3470   53.1349   21.1215 H         1 UNK         0.0000 
     34 H34         0.4750   51.5368   23.8891 H         1 UNK         0.0000 
     35 H35         1.1085   53.1047   19.5893 H         1 UNK         0.0000 
     36 H36        -0.0981   52.0330   19.2311 H         1 UNK         0.0000 
     37 H37         4.5208   56.0955   26.0809 H         1 UNK         0.0000 
     38 H38         4.9562   55.4909   24.5446 H         1 UNK         0.0000 
     39 H39         6.6516   52.8995   28.8741 H         1 UNK         0.0000 
     40 H40         7.6484   54.1908   28.2209 H         1 UNK         0.0000 
     41 H41         7.5628   52.6296   27.3831 H         1 UNK         0.0000 
@<TRIPOS>BOND
     1    1    2 1    
     2    1   25 1    
     3    1   26 1    
     4    1   27 1    
     5    2    3 1    
     6    2    4 1    
     7    2   28 1    
     8    3   29 1    
     9    3   30 1    
    10    3   31 1    
    11    4    5 2    
    12    4    6 am   BACKBONE|DICT|INTERRES
    13    6    7 2    BACKBONE|DICT|INTERRES
    14    7   15 1    
    15    7    8 1    
    16    8    9 1    
    17    8   20 1    
    18    9   14 ar   
    19    9   10 ar   
    20   10   11 ar   
    21   10   32 1    
    22   11   12 ar   
    23   11   33 1    
    24   12   13 ar   
    25   12   16 1    
    26   13   14 ar   
    27   13   34 1    
    28   14   15 1    
    29   16   17 2    
    30   16   18 2    
    31   16   19 1    
    32   19   35 1    
    33   19   36 1    
    34   20   21 1    
    35   20   37 1    
    36   20   38 1    
    37   21   22 2    
    38   21   23 1    
    39   23   24 1    
    40   24   39 1    
    41   24   40 1    
    42   24   41 1    
@<TRIPOS>SUBSTRUCTURE
     1 UNK         1 GROUP             0       ****    0 ROOT    
