@<TRIPOS>MOLECULE
ZINC43746352_1198
77   83    1
SMALL
USER_CHARGES


@<TRIPOS>ATOM
      1 C1          2.2448   54.7790   27.5424 C.3       1 UNK         0.0000 
      2 C2          2.8202   53.4064   27.1083 C.3       1 UNK         0.0000 
      3 C3          4.3626   53.4212   27.3258 C.3       1 UNK         0.0000 
      4 C4          4.7633   53.6683   28.7931 C.3       1 UNK         0.0000 
      5 C5          4.0883   52.6459   29.7305 C.3       1 UNK         0.0000 
      6 C6          2.5703   52.4684   29.4750 C.3       1 UNK         0.0000 
      7 C7          2.2062   52.2699   27.9750 C.3       1 UNK         0.0000 
      8 H8          2.7033   51.3506   27.6821 H         1 UNK         0.0000 
      9 C9          0.7069   51.9806   27.6586 C.3       1 UNK         0.0000 
     10 C10         0.1589   52.2410   26.2255 C.3       1 UNK         0.0000 
     11 H11        -0.7980   52.7659   26.3020 H         1 UNK         0.0000 
     12 C12         1.0440   53.0722   25.2771 C.3       1 UNK         0.0000 
     13 H13         0.7051   54.0968   25.2438 H         1 UNK         0.0000 
     14 C14         2.5356   53.0854   25.6093 C.3       1 UNK         0.0000 
     15 O15         0.8240   52.5456   23.9767 O.3       1 UNK         0.0000 
     16 C16         0.1563   51.3815   24.0120 C.2       1 UNK         0.0000 
     17 O17        -0.2381   50.8338   22.9837 O.2       1 UNK         0.0000 
     18 C18        -0.0460   50.9341   25.4645 C.3       1 UNK         0.0000 
     19 H19         0.7425   50.2176   25.6971 H         1 UNK         0.0000 
     20 C20        -1.4393   50.3035   25.7376 C.3       1 UNK         0.0000 
     21 N21        -1.7790   49.1671   24.7420 N.4       1 UNK         0.0000 
     22 C22        -1.0019   47.8706   25.0618 C.3       1 UNK         0.0000 
     23 C23        -1.8845   46.7218   24.5833 C.3       1 UNK         0.0000 
     24 C24        -3.1657   47.3451   24.0397 C.3       1 UNK         0.0000 
     25 C25        -3.2751   48.7741   24.6207 C.3       1 UNK         0.0000 
     26 H26        -3.5875   48.6940   25.6655 H         1 UNK         0.0000 
     27 C27        -4.2615   49.7476   23.8474 C.3       1 UNK         0.0000 
     28 C28        -5.6656   49.1222   23.6212 C.ar      1 UNK         0.0000 
     29 C29        -6.3935   49.4260   22.4570 C.ar      1 UNK         0.0000 
     30 C30        -7.6589   48.8841   22.2439 C.ar      1 UNK         0.0000 
     31 C31        -8.2142   48.0376   23.1965 C.ar      1 UNK         0.0000 
     32 C32        -7.5200   47.7363   24.3639 C.ar      1 UNK         0.0000 
     33 C33        -6.2561   48.2796   24.5771 C.ar      1 UNK         0.0000 
     34 C34        -4.4387   51.0950   24.5982 C.ar      1 UNK         0.0000 
     35 C35        -3.9264   52.3002   24.0840 C.ar      1 UNK         0.0000 
     36 C36        -4.0951   53.5010   24.7663 C.ar      1 UNK         0.0000 
     37 C37        -4.7651   53.5111   25.9852 C.ar      1 UNK         0.0000 
     38 C38        -5.2629   52.3287   26.5238 C.ar      1 UNK         0.0000 
     39 C39        -5.0962   51.1289   25.8387 C.ar      1 UNK         0.0000 
     40 O40        -3.6124   49.9343   22.5894 O.3       1 UNK         0.0000 
     41 C41         1.5730   53.0626   30.4282 C.3       1 UNK         0.0000 
     42 O42         1.8933   51.6973   30.4192 O.3       1 UNK         0.0000 
     43 H43         2.2981   54.9470   28.6158 H         1 UNK         0.0000 
     44 H44         2.8268   55.5811   27.1007 H         1 UNK         0.0000 
     45 H45         1.1958   54.8957   27.2820 H         1 UNK         0.0000 
     46 H46         4.8167   52.4969   26.9773 H         1 UNK         0.0000 
     47 H47         4.8141   54.2008   26.7104 H         1 UNK         0.0000 
     48 H48         5.8486   53.5984   28.8826 H         1 UNK         0.0000 
     49 H49         4.5087   54.6832   29.0995 H         1 UNK         0.0000 
     50 H50         4.2764   52.9058   30.7724 H         1 UNK         0.0000 
     51 H51         4.5729   51.6805   29.5874 H         1 UNK         0.0000 
     52 H52         0.1656   52.7575   28.1918 H         1 UNK         0.0000 
     53 H53         0.3175   51.0800   28.1374 H         1 UNK         0.0000 
     54 H54         2.9558   52.1327   25.3065 H         1 UNK         0.0000 
     55 H55         3.0100   53.8584   25.0028 H         1 UNK         0.0000 
     56 H56        -2.2066   51.0578   25.6368 H         1 UNK         0.0000 
     57 H57        -1.5363   49.8909   26.7444 H         1 UNK         0.0000 
     58 H58        -0.8956   47.8158   26.1460 H         1 UNK         0.0000 
     59 H59        -0.0149   47.9385   24.5972 H         1 UNK         0.0000 
     60 H60        -2.1091   46.0763   25.4335 H         1 UNK         0.0000 
     61 H61        -1.3812   46.1125   23.8317 H         1 UNK         0.0000 
     62 H62        -4.0522   46.7390   24.2330 H         1 UNK         0.0000 
     63 H63        -3.0871   47.3909   22.9519 H         1 UNK         0.0000 
     64 H64        -5.9907   50.0994   21.7150 H         1 UNK         0.0000 
     65 H65        -8.2104   49.1237   21.3458 H         1 UNK         0.0000 
     66 H66        -9.1984   47.6224   23.0336 H         1 UNK         0.0000 
     67 H67        -7.9623   47.0883   25.1048 H         1 UNK         0.0000 
     68 H68        -5.7454   48.0359   25.4957 H         1 UNK         0.0000 
     69 H69        -3.3907   52.3204   23.1460 H         1 UNK         0.0000 
     70 H70        -3.7042   54.4180   24.3492 H         1 UNK         0.0000 
     71 H71        -4.8950   54.4405   26.5189 H         1 UNK         0.0000 
     72 H72        -5.7813   52.3377   27.4709 H         1 UNK         0.0000 
     73 H73        -5.4889   50.2267   26.2832 H         1 UNK         0.0000 
     74 H74        -3.5892   49.0908   22.1331 H         1 UNK         0.0000 
     75 H75         1.9043   53.6265   31.2819 H         1 UNK         0.0000 
     76 H76         0.5488   53.3067   30.1594 H         1 UNK         0.0000 
     77 H77        -1.5025   49.4890   23.8183 H         1 UNK         0.0000 
@<TRIPOS>BOND
     1    1    2 1    
     2    1   43 1    
     3    1   44 1    
     4    1   45 1    
     5    2    7 1    
     6    2   14 1    
     7    2    3 1    
     8    3    4 1    
     9    3   46 1    
    10    3   47 1    
    11    4    5 1    
    12    4   48 1    
    13    4   49 1    
    14    5    6 1    
    15    5   50 1    
    16    5   51 1    
    17    6   42 1    
    18    6    7 1    
    19    6   41 1    
    20    7    8 1    
    21    7    9 1    
    22    9   10 1    
    23    9   52 1    
    24    9   53 1    
    25   10   11 1    
    26   10   18 1    
    27   10   12 1    
    28   12   13 1    
    29   12   14 1    
    30   12   15 1    
    31   14   54 1    
    32   14   55 1    
    33   15   16 1    
    34   16   17 2    
    35   16   18 1    
    36   18   19 1    
    37   18   20 1    
    38   20   21 1    
    39   20   56 1    
    40   20   57 1    
    41   21   25 1    
    42   21   22 1    
    43   21   77 1    
    44   22   23 1    
    45   22   58 1    
    46   22   59 1    
    47   23   24 1    
    48   23   60 1    
    49   23   61 1    
    50   24   25 1    
    51   24   62 1    
    52   24   63 1    
    53   25   26 1    
    54   25   27 1    
    55   27   28 1    
    56   27   34 1    
    57   27   40 1    
    58   28   33 ar   
    59   28   29 ar   
    60   29   30 ar   
    61   29   64 1    
    62   30   31 ar   
    63   30   65 1    
    64   31   32 ar   
    65   31   66 1    
    66   32   33 ar   
    67   32   67 1    
    68   33   68 1    
    69   34   39 ar   
    70   34   35 ar   
    71   35   36 ar   
    72   35   69 1    
    73   36   37 ar   
    74   36   70 1    
    75   37   38 ar   
    76   37   71 1    
    77   38   39 ar   
    78   38   72 1    
    79   39   73 1    
    80   40   74 1    
    81   41   42 1    
    82   41   75 1    
    83   41   76 1    
@<TRIPOS>SUBSTRUCTURE
     1 UNK         1 GROUP             0       ****    0 ROOT    
