@<TRIPOS>MOLECULE
ZINC53103429_1656
43   44    1
SMALL
USER_CHARGES


@<TRIPOS>ATOM
      1 C1          3.2183   54.2994   25.7211 C.3       1 UNK         0.0000 
      2 C2          3.5045   53.7644   27.1287 C.ar      1 UNK         0.0000 
      3 C3          4.8552   53.9345   27.6494 C.ar      1 UNK         0.0000 
      4 N4          5.1100   53.5518   28.8564 N.ar      1 UNK         0.0000 
      5 N5          4.2127   52.9725   29.6811 N.2       1 UNK         0.0000 
      6 C6          2.9634   52.7173   29.2970 C.ar      1 UNK         0.0000 
      7 O7          2.1620   52.1001   30.0021 O.2       1 UNK         0.0000 
      8 C8          2.5579   53.1841   27.9517 C.ar      1 UNK         0.0000 
      9 C9          1.1909   52.9626   27.5092 C.2       1 UNK         0.0000 
     10 O10         0.2194   53.4594   28.0814 O.2       1 UNK         0.0000 
     11 N11         1.1035   52.1130   26.4672 N.am      1 UNK         0.0000 
     12 C12        -0.0704   51.4677   25.8498 C.3       1 UNK         0.0000 
     13 C13         0.4228   50.3769   24.8493 C.3       1 UNK         0.0000 
     14 C14         1.2729   50.9827   23.7074 C.3       1 UNK         0.0000 
     15 C15         0.4442   52.0135   22.9060 C.3       1 UNK         0.0000 
     16 C16        -0.2022   53.0697   23.8409 C.3       1 UNK         0.0000 
     17 C17        -0.9649   52.4174   25.0072 C.3       1 UNK         0.0000 
     18 C18         1.2554   52.6457   21.7641 C.3       1 UNK         0.0000 
     19 C19        -0.9132   50.8088   26.9745 C.3       1 UNK         0.0000 
     20 O20        -2.0257   50.0951   26.4814 O.3       1 UNK         0.0000 
     21 C21         6.0301   54.5107   26.8684 C.3       1 UNK         0.0000 
     22 H22         2.1615   54.4204   25.5151 H         1 UNK         0.0000 
     23 H23         3.6580   55.2859   25.5755 H         1 UNK         0.0000 
     24 H24         3.6343   53.6287   24.9695 H         1 UNK         0.0000 
     25 H25         1.9897   51.8147   26.0934 H         1 UNK         0.0000 
     26 H26         1.0245   49.6337   25.3769 H         1 UNK         0.0000 
     27 H27        -0.4176   49.8266   24.4230 H         1 UNK         0.0000 
     28 H28         2.1715   51.4620   24.0961 H         1 UNK         0.0000 
     29 H29         1.6408   50.1977   23.0446 H         1 UNK         0.0000 
     30 H30        -0.3841   51.4539   22.4668 H         1 UNK         0.0000 
     31 H31         0.5572   53.7467   24.2246 H         1 UNK         0.0000 
     32 H32        -0.8995   53.6892   23.2865 H         1 UNK         0.0000 
     33 H33        -1.8240   51.8778   24.6042 H         1 UNK         0.0000 
     34 H34        -1.3833   53.1917   25.6489 H         1 UNK         0.0000 
     35 H35         2.0843   53.2438   22.1471 H         1 UNK         0.0000 
     36 H36         1.6738   51.8818   21.1070 H         1 UNK         0.0000 
     37 H37         0.6372   53.2966   21.1484 H         1 UNK         0.0000 
     38 H38        -0.2847   50.1257   27.5475 H         1 UNK         0.0000 
     39 H39        -1.2885   51.5325   27.6966 H         1 UNK         0.0000 
     40 H40        -2.1099   49.3380   27.0887 H         1 UNK         0.0000 
     41 H41         6.3060   53.8463   26.0492 H         1 UNK         0.0000 
     42 H42         5.7841   55.4834   26.4414 H         1 UNK         0.0000 
     43 H43         6.9180   54.6501   27.4903 H         1 UNK         0.0000 
@<TRIPOS>BOND
     1    1    2 1    
     2    1   22 1    
     3    1   23 1    
     4    1   24 1    
     5    2    8 ar   
     6    2    3 ar   
     7    3    4 ar   
     8    3   21 1    
     9    4    5 ar   
    10    5    6 ar   
    11    6    7 2    
    12    6    8 ar   
    13    8    9 1    
    14    9   10 2    
    15    9   11 am   BACKBONE|DICT|INTERRES
    16   11   12 1    
    17   11   25 1    
    18   12   17 1    
    19   12   13 1    
    20   12   19 1    
    21   13   14 1    
    22   13   26 1    
    23   13   27 1    
    24   14   15 1    
    25   14   28 1    
    26   14   29 1    
    27   15   16 1    
    28   15   18 1    
    29   15   30 1    
    30   16   17 1    
    31   16   31 1    
    32   16   32 1    
    33   17   33 1    
    34   17   34 1    
    35   18   35 1    
    36   18   36 1    
    37   18   37 1    
    38   19   20 1    
    39   19   38 1    
    40   19   39 1    
    41   20   40 1    
    42   21   41 1    
    43   21   42 1    
    44   21   43 1    
@<TRIPOS>SUBSTRUCTURE
     1 UNK         1 GROUP             0       ****    0 ROOT    
