@<TRIPOS>MOLECULE
ZINC33821876_694
64   68    1
SMALL
USER_CHARGES


@<TRIPOS>ATOM
      1 C1          2.3070   51.5345   15.9557 C.3       1 UNK         0.0000 
      2 C2          1.4282   51.4827   17.1927 C.ar      1 UNK         0.0000 
      3 C3          1.9167   50.9074   18.3634 C.ar      1 UNK         0.0000 
      4 C4          1.1314   50.8793   19.5111 C.ar      1 UNK         0.0000 
      5 C5         -0.1624   51.4286   19.5052 C.ar      1 UNK         0.0000 
      6 C6         -0.6399   52.0070   18.3180 C.ar      1 UNK         0.0000 
      7 C7          0.1487   52.0353   17.1715 C.ar      1 UNK         0.0000 
      8 C8         -1.0422   51.4618   20.7255 C.2       1 UNK         0.0000 
      9 O9         -2.0985   52.0966   20.7499 O.2       1 UNK         0.0000 
     10 C10        -0.6682   50.6117   21.9698 C.3       1 UNK         0.0000 
     11 H11         0.2469   50.0508   21.8067 H         1 UNK         0.0000 
     12 C12        -1.8088   49.6059   22.3516 C.3       1 UNK         0.0000 
     13 H13        -2.7725   50.0187   22.0405 H         1 UNK         0.0000 
     14 C14        -1.8004   49.6609   23.9095 C.3       1 UNK         0.0000 
     15 C15        -1.4132   51.1386   24.1562 C.3       1 UNK         0.0000 
     16 H16        -2.2871   51.7458   23.9058 H         1 UNK         0.0000 
     17 N17        -0.4012   51.4835   23.1335 N.pl3     1 UNK         0.0000 
     18 C18         0.6627   52.3717   23.4446 C.ar      1 UNK         0.0000 
     19 C19         1.5137   52.8844   22.4573 C.ar      1 UNK         0.0000 
     20 C20         2.5719   53.7309   22.7856 C.ar      1 UNK         0.0000 
     21 C21         2.8042   54.0736   24.1131 C.ar      1 UNK         0.0000 
     22 C22         1.9827   53.5609   25.1152 C.ar      1 UNK         0.0000 
     23 C23         0.9189   52.7122   24.7911 C.ar      1 UNK         0.0000 
     24 C24         0.0503   52.2194   25.8638 C.2       1 UNK         0.0000 
     25 C25        -1.0540   51.5135   25.5945 C.2       1 UNK         0.0000 
     26 C26        -3.1283   49.3766   24.4907 C.1       1 UNK         0.0000 
     27 N27        -4.1700   49.1550   24.9438 N.1       1 UNK         0.0000 
     28 C28        -0.7268   48.6965   24.5105 C.2       1 UNK         0.0000 
     29 O29         0.3210   48.4963   23.9115 O.2       1 UNK         0.0000 
     30 N30        -0.9336   48.0986   25.6816 N.am      1 UNK         0.0000 
     31 C31        -1.7953   48.2098   21.6805 C.ar      1 UNK         0.0000 
     32 C32        -0.9345   47.9043   20.6213 C.ar      1 UNK         0.0000 
     33 C33        -0.8944   46.6207   20.0822 C.ar      1 UNK         0.0000 
     34 C34        -1.7143   45.5998   20.5897 C.ar      1 UNK         0.0000 
     35 C35        -2.6163   45.9003   21.6220 C.ar      1 UNK         0.0000 
     36 C36        -2.6510   47.2044   22.1447 C.ar      1 UNK         0.0000 
     37 O37        -3.4265   44.8753   22.0821 O.3       1 UNK         0.0000 
     38 C38        -4.4873   45.1756   22.9859 C.3       1 UNK         0.0000 
     39 O39        -1.6883   44.2942   20.1232 O.3       1 UNK         0.0000 
     40 C40        -0.8011   43.9523   19.0626 C.3       1 UNK         0.0000 
     41 H41         2.0264   52.3606   15.2999 H         1 UNK         0.0000 
     42 H42         3.3513   51.6950   16.2359 H         1 UNK         0.0000 
     43 H43         2.2444   50.5956   15.4029 H         1 UNK         0.0000 
     44 H44         2.9167   50.4929   18.3831 H         1 UNK         0.0000 
     45 H45         1.5783   50.4447   20.3918 H         1 UNK         0.0000 
     46 H46        -1.6264   52.4468   18.2704 H         1 UNK         0.0000 
     47 H47        -0.2341   52.4895   16.2688 H         1 UNK         0.0000 
     48 H48         1.3608   52.6615   21.4171 H         1 UNK         0.0000 
     49 H49         3.2010   54.1292   22.0024 H         1 UNK         0.0000 
     50 H50         3.6193   54.7330   24.3690 H         1 UNK         0.0000 
     51 H51         2.1731   53.8342   26.1428 H         1 UNK         0.0000 
     52 H52         0.2824   52.4480   26.8941 H         1 UNK         0.0000 
     53 H53        -1.6826   51.1840   26.4099 H         1 UNK         0.0000 
     54 H54        -0.2166   47.4819   26.0539 H         1 UNK         0.0000 
     55 H55        -1.6768   48.3710   26.3186 H         1 UNK         0.0000 
     56 H56        -0.2676   48.6424   20.2092 H         1 UNK         0.0000 
     57 H57        -0.1976   46.4367   19.2795 H         1 UNK         0.0000 
     58 H58        -3.3380   47.4385   22.9389 H         1 UNK         0.0000 
     59 H59        -5.0592   44.2686   23.1832 H         1 UNK         0.0000 
     60 H60        -4.1103   45.5387   23.9441 H         1 UNK         0.0000 
     61 H61        -5.1750   45.9148   22.5687 H         1 UNK         0.0000 
     62 H62        -0.9217   42.8964   18.8206 H         1 UNK         0.0000 
     63 H63         0.2412   44.1102   19.3449 H         1 UNK         0.0000 
     64 H64        -1.0194   44.5226   18.1590 H         1 UNK         0.0000 
@<TRIPOS>BOND
     1    1    2 1    
     2    1   41 1    
     3    1   42 1    
     4    1   43 1    
     5    2    7 ar   
     6    2    3 ar   
     7    3    4 ar   
     8    3   44 1    
     9    4    5 ar   
    10    4   45 1    
    11    5    6 ar   
    12    5    8 1    
    13    6    7 ar   
    14    6   46 1    
    15    7   47 1    
    16    8    9 2    
    17    8   10 1    
    18   10   11 1    
    19   10   17 1    
    20   10   12 1    
    21   12   13 1    
    22   12   14 1    
    23   12   31 1    
    24   14   15 1    
    25   14   26 1    
    26   14   28 1    
    27   15   16 1    
    28   15   25 1    
    29   15   17 1    
    30   17   18 1    
    31   18   23 ar   
    32   18   19 ar   
    33   19   20 ar   
    34   19   48 1    
    35   20   21 ar   
    36   20   49 1    
    37   21   22 ar   
    38   21   50 1    
    39   22   23 ar   
    40   22   51 1    
    41   23   24 1    
    42   24   25 2    
    43   24   52 1    
    44   25   53 1    
    45   26   27 3    
    46   28   29 2    
    47   28   30 am   BACKBONE|DICT|INTERRES
    48   30   54 1    
    49   30   55 1    
    50   31   36 ar   
    51   31   32 ar   
    52   32   33 ar   
    53   32   56 1    
    54   33   34 ar   
    55   33   57 1    
    56   34   35 ar   
    57   34   39 1    
    58   35   36 ar   
    59   35   37 1    
    60   36   58 1    
    61   37   38 1    
    62   38   59 1    
    63   38   60 1    
    64   38   61 1    
    65   39   40 1    
    66   40   62 1    
    67   40   63 1    
    68   40   64 1    
@<TRIPOS>SUBSTRUCTURE
     1 UNK         1 GROUP             0       ****    0 ROOT    
