@<TRIPOS>MOLECULE
ZINC20097727_3166
68   71    1
SMALL
USER_CHARGES


@<TRIPOS>ATOM
      1 C1         -3.2989   53.3211   24.1714 C.ar      1 UNK         0.0000 
      2 C2         -4.4532   53.0825   24.9041 C.ar      1 UNK         0.0000 
      3 C3         -4.4600   52.1890   25.9795 C.ar      1 UNK         0.0000 
      4 C4         -3.2615   51.5181   26.3321 C.ar      1 UNK         0.0000 
      5 C5         -2.0941   51.7732   25.5790 C.ar      1 UNK         0.0000 
      6 C6         -2.1186   52.6833   24.5177 C.ar      1 UNK         0.0000 
      7 N7         -0.8812   51.0994   25.8469 N.am      1 UNK         0.0000 
      8 C8         -0.6229   49.8386   25.1000 C.3       1 UNK         0.0000 
      9 C9          0.0269   50.0516   23.7144 C.2       1 UNK         0.0000 
     10 O10        -0.5073   50.7869   22.8857 O.2       1 UNK         0.0000 
     11 N11         1.1034   49.3007   23.4101 N.am      1 UNK         0.0000 
     12 C12         1.8352   49.2871   22.1290 C.3       1 UNK         0.0000 
     13 C13         0.9719   48.8634   20.9136 C.3       1 UNK         0.0000 
     14 C14         1.0456   50.0215   19.9096 C.3       1 UNK         0.0000 
     15 C15         2.3769   50.7046   20.2109 C.3       1 UNK         0.0000 
     16 C16         2.4788   50.6375   21.7343 C.3       1 UNK         0.0000 
     17 C17         0.0357   51.5668   26.7476 C.2       1 UNK         0.0000 
     18 O18         1.1034   50.9952   26.9352 O.2       1 UNK         0.0000 
     19 C19        -0.1877   52.8480   27.5738 C.3       1 UNK         0.0000 
     20 S20        -0.0956   52.6755   29.4277 S.3       1 UNK         0.0000 
     21 O21        -0.1469   54.0916   30.0057 O.2       1 UNK         0.0000 
     22 C22         1.6407   52.0868   29.7429 C.3       1 UNK         0.0000 
     23 C23         2.7637   53.0097   29.2747 C.2       1 UNK         0.0000 
     24 O24         3.2921   53.7738   30.0820 O.2       1 UNK         0.0000 
     25 N25         3.1120   52.9159   27.9776 N.am      1 UNK         0.0000 
     26 C26         4.1347   53.6174   27.3199 C.ar      1 UNK         0.0000 
     27 C27         3.9314   53.9317   25.9742 C.ar      1 UNK         0.0000 
     28 C28         4.9338   54.5748   25.2514 C.ar      1 UNK         0.0000 
     29 C29         6.1354   54.8988   25.8754 C.ar      1 UNK         0.0000 
     30 C30         6.3467   54.5847   27.2140 C.ar      1 UNK         0.0000 
     31 C31         5.3497   53.9423   27.9404 C.ar      1 UNK         0.0000 
     32 F32         7.1038   55.5340   25.1795 F         1 UNK         0.0000 
     33 C33        -3.2289   50.5770   27.5421 C.3       1 UNK         0.0000 
     34 C34        -4.6147   50.1327   28.0402 C.3       1 UNK         0.0000 
     35 C35        -5.5784   51.3217   28.1091 C.3       1 UNK         0.0000 
     36 C36        -5.7789   51.9118   26.7059 C.3       1 UNK         0.0000 
     37 H37        -3.3138   54.0168   23.3464 H         1 UNK         0.0000 
     38 H38        -5.3669   53.5840   24.6186 H         1 UNK         0.0000 
     39 H39        -1.2231   52.8958   23.9535 H         1 UNK         0.0000 
     40 H40        -0.0089   49.1588   25.6952 H         1 UNK         0.0000 
     41 H41        -1.5465   49.2783   24.9511 H         1 UNK         0.0000 
     42 H42         1.4811   48.6897   24.1242 H         1 UNK         0.0000 
     43 H43         2.6570   48.5677   22.1705 H         1 UNK         0.0000 
     44 H44         1.4045   47.9764   20.4430 H         1 UNK         0.0000 
     45 H45        -0.0638   48.6286   21.1677 H         1 UNK         0.0000 
     46 H46         0.9790   49.6823   18.8753 H         1 UNK         0.0000 
     47 H47         0.2212   50.7176   20.0829 H         1 UNK         0.0000 
     48 H48         3.1979   50.1545   19.7441 H         1 UNK         0.0000 
     49 H49         2.4123   51.7280   19.8334 H         1 UNK         0.0000 
     50 H50         1.9307   51.4799   22.1588 H         1 UNK         0.0000 
     51 H51         3.5067   50.7324   22.0832 H         1 UNK         0.0000 
     52 H52         0.5624   53.5809   27.2819 H         1 UNK         0.0000 
     53 H53        -1.1502   53.2968   27.3458 H         1 UNK         0.0000 
     54 H54         1.7391   51.9356   30.8181 H         1 UNK         0.0000 
     55 H55         1.7617   51.1026   29.2928 H         1 UNK         0.0000 
     56 H56         2.5376   52.3136   27.4001 H         1 UNK         0.0000 
     57 H57         3.0052   53.6706   25.4809 H         1 UNK         0.0000 
     58 H58         4.7812   54.8215   24.2115 H         1 UNK         0.0000 
     59 H59         7.2812   54.8413   27.6912 H         1 UNK         0.0000 
     60 H60         5.5381   53.6871   28.9710 H         1 UNK         0.0000 
     61 H61        -2.6966   51.0669   28.3587 H         1 UNK         0.0000 
     62 H62        -2.6508   49.6968   27.2816 H         1 UNK         0.0000 
     63 H63        -5.0178   49.3685   27.3752 H         1 UNK         0.0000 
     64 H64        -4.5186   49.6618   29.0198 H         1 UNK         0.0000 
     65 H65        -6.5378   51.0058   28.5216 H         1 UNK         0.0000 
     66 H66        -5.1902   52.0842   28.7861 H         1 UNK         0.0000 
     67 H67        -6.3506   51.2053   26.1043 H         1 UNK         0.0000 
     68 H68        -6.3824   52.8193   26.7666 H         1 UNK         0.0000 
@<TRIPOS>BOND
     1    1    6 ar   
     2    1    2 ar   
     3    1   37 1    
     4    2    3 ar   
     5    2   38 1    
     6    3   36 1    
     7    3    4 ar   
     8    4    5 ar   
     9    4   33 1    
    10    5    6 ar   
    11    5    7 1    
    12    6   39 1    
    13    7    8 1    
    14    7   17 am   BACKBONE|DICT|INTERRES
    15    8    9 1    
    16    8   40 1    
    17    8   41 1    
    18    9   10 2    
    19    9   11 am   BACKBONE|DICT|INTERRES
    20   11   12 1    
    21   11   42 1    
    22   12   16 1    
    23   12   13 1    
    24   12   43 1    
    25   13   14 1    
    26   13   44 1    
    27   13   45 1    
    28   14   15 1    
    29   14   46 1    
    30   14   47 1    
    31   15   16 1    
    32   15   48 1    
    33   15   49 1    
    34   16   50 1    
    35   16   51 1    
    36   17   18 2    
    37   17   19 1    
    38   19   20 1    
    39   19   52 1    
    40   19   53 1    
    41   20   21 2    
    42   20   22 1    
    43   22   23 1    
    44   22   54 1    
    45   22   55 1    
    46   23   24 2    
    47   23   25 am   BACKBONE|DICT|INTERRES
    48   25   26 1    
    49   25   56 1    
    50   26   31 ar   
    51   26   27 ar   
    52   27   28 ar   
    53   27   57 1    
    54   28   29 ar   
    55   28   58 1    
    56   29   30 ar   
    57   29   32 1    
    58   30   31 ar   
    59   30   59 1    
    60   31   60 1    
    61   33   34 1    
    62   33   61 1    
    63   33   62 1    
    64   34   35 1    
    65   34   63 1    
    66   34   64 1    
    67   35   36 1    
    68   35   65 1    
    69   35   66 1    
    70   36   67 1    
    71   36   68 1    
@<TRIPOS>SUBSTRUCTURE
     1 UNK         1 GROUP             0       ****    0 ROOT    
