ZINC12564597_3512
                    3D
 Schrodinger Suite 2024-2.
 47 50  0  0  1  0            999 V2000
    0.3965   51.8187   26.9156 C   0  0  0  0  0  0
    1.6417   52.6866   27.0883 C   0  0  0  0  0  0
    2.3184   53.3523   26.1130 C   0  0  0  0  0  0
    3.4941   54.2850   26.5289 C   0  0  1  0  0  0
    3.1043   55.2969   26.5056 H   0  0  0  0  0  0
    3.8542   54.0118   27.9479 N   0  0  0  0  0  0
    3.0124   53.5335   28.8960 C   0  0  0  0  0  0
    3.1043   53.8413   30.0814 O   0  0  0  0  0  0
    1.9938   52.7934   28.4001 N   0  0  0  0  0  0
    4.7560   54.2587   25.6602 C   0  0  0  0  0  0
    6.1123   54.0964   25.9234 C   0  0  0  0  0  0
    6.7817   54.2108   24.7044 C   0  0  0  0  0  0
    5.8288   54.4499   23.7363 C   0  0  0  0  0  0
    4.6056   54.4964   24.3286 O   0  0  0  0  0  0
    5.8998   54.6737   22.2680 C   0  0  0  0  0  0
    4.8405   54.2780   21.4471 C   0  0  0  0  0  0
    4.9061   54.4967   20.0734 C   0  0  0  0  0  0
    6.0255   55.1203   19.5257 C   0  0  0  0  0  0
    7.0823   55.5235   20.3393 C   0  0  0  0  0  0
    7.0213   55.2967   21.7118 C   0  0  0  0  0  0
    6.0862   55.3401   18.1934 F   0  0  0  0  0  0
    1.9312   53.3353   24.7101 C   0  0  0  0  0  0
    1.7388   54.3724   24.0762 O   0  0  0  0  0  0
    1.9038   52.0935   24.1873 N   0  0  0  0  0  0
    1.7456   51.6574   22.8623 C   0  0  0  0  0  0
    1.9067   50.2841   22.6566 C   0  0  0  0  0  0
    1.8319   49.7530   21.3733 C   0  0  0  0  0  0
    1.5796   50.5934   20.2930 C   0  0  0  0  0  0
    1.3990   51.9607   20.4870 C   0  0  0  0  0  0
    1.4819   52.4965   21.7697 C   0  0  0  0  0  0
    1.4818   49.8671   18.5377 Br  0  0  0  0  0  0
   -0.0893   51.9537   25.9486 H   0  0  0  0  0  0
    0.6531   50.7605   27.0189 H   0  0  0  0  0  0
   -0.3564   52.0543   27.6714 H   0  0  0  0  0  0
    4.7084   54.4231   28.2929 H   0  0  0  0  0  0
    1.4533   52.3132   29.1022 H   0  0  0  0  0  0
    6.5641   53.9004   26.8850 H   0  0  0  0  0  0
    7.8409   54.1174   24.5201 H   0  0  0  0  0  0
    3.9683   53.8014   21.8713 H   0  0  0  0  0  0
    4.0901   54.1916   19.4356 H   0  0  0  0  0  0
    7.9467   56.0021   19.9013 H   0  0  0  0  0  0
    7.8423   55.6134   22.3401 H   0  0  0  0  0  0
    2.0658   51.3535   24.8502 H   0  0  0  0  0  0
    2.1159   49.6210   23.4849 H   0  0  0  0  0  0
    1.9794   48.6944   21.2146 H   0  0  0  0  0  0
    1.2098   52.6102   19.6440 H   0  0  0  0  0  0
    1.3581   53.5622   21.8786 H   0  0  0  0  0  0
  1  2  1  0  0  0
  1 32  1  0  0  0
  1 33  1  0  0  0
  1 34  1  0  0  0
  2  9  1  0  0  0
  2  3  2  0  0  0
  3  4  1  0  0  0
  3 22  1  0  0  0
  4  5  1  0  0  0
  4  6  1  0  0  0
  4 10  1  0  0  0
  6  7  1  0  0  0
  6 35  1  0  0  0
  7  8  2  0  0  0
  7  9  1  0  0  0
  9 36  1  0  0  0
 10 14  1  0  0  0
 10 11  2  0  0  0
 11 12  1  0  0  0
 11 37  1  0  0  0
 12 13  2  0  0  0
 12 38  1  0  0  0
 13 14  1  0  0  0
 13 15  1  0  0  0
 15 20  2  0  0  0
 15 16  1  0  0  0
 16 17  2  0  0  0
 16 39  1  0  0  0
 17 18  1  0  0  0
 17 40  1  0  0  0
 18 19  2  0  0  0
 18 21  1  0  0  0
 19 20  1  0  0  0
 19 41  1  0  0  0
 20 42  1  0  0  0
 22 23  2  0  0  0
 22 24  1  0  0  0
 24 25  1  0  0  0
 24 43  1  0  0  0
 25 30  2  0  0  0
 25 26  1  0  0  0
 26 27  2  0  0  0
 26 44  1  0  0  0
 27 28  1  0  0  0
 27 45  1  0  0  0
 28 29  2  0  0  0
 28 31  1  0  0  0
 29 30  1  0  0  0
 29 46  1  0  0  0
 30 47  1  0  0  0
M  END
> <i_i_glide_confnum>
82

> <i_i_glide_lignum>
3513

> <i_i_glide_posenum>
64

> <i_i_glide_rotatable_bonds>
5

> <i_m_Source_File_Index>
1409

> <b_m_subgroup_collapsed>
0

> <r_i_docking_score>
-6.45645

> <r_i_glide_ecoul>
-5.81199

> <r_i_glide_eff_state_penalty>
0

> <r_i_glide_einternal>
9.18636

> <r_i_glide_emodel>
-65.2913

> <r_i_glide_energy>
-50.0108

> <r_i_glide_erotb>
0.456744

> <r_i_glide_esite>
0

> <r_i_glide_evdw>
-44.1988

> <r_i_glide_gscore>
-6.45645

> <r_i_glide_hbond>
-0.32

> <r_i_glide_ligand_efficiency>
-0.215215

> <r_i_glide_ligand_efficiency_ln>
-1.46698

> <r_i_glide_ligand_efficiency_sa>
-0.668723

> <r_i_glide_lipo>
-2.65036

> <r_i_glide_metal>
0

> <r_i_glide_rewards>
-0.861096

> <s_i_glide_gridfile>
wee1_glide-grid

> <s_m_Source_File>
wee1_decoys_glide_SP.sdf

> <s_m_Source_Path>
/Users/zhangxujun/Desktop

> <s_m_entry_id>
1684

> <s_m_entry_name>
wee1_decoys_glide_SP.1409

> <s_m_subgroup_title>
wee1_decoys_glide_SP

> <s_m_subgroupid>
wee1_decoys_glide_SP


$$$$
