ZINC01114395_2538
                    3D
 Schrodinger Suite 2024-2.
 47 49  0  0  1  0            999 V2000
    5.9283   54.0905   28.4814 C   0  0  0  0  0  0
    5.3468   53.8038   27.0932 C   0  0  1  0  0  0
    5.4464   52.7300   26.9261 H   0  0  0  0  0  0
    3.8673   54.2239   27.0256 C   0  0  0  0  0  0
    3.1782   53.7903   25.7182 C   0  0  0  0  0  0
    4.1070   54.0009   24.5118 C   0  0  0  0  0  0
    5.4617   54.3357   24.6742 C   0  0  0  0  0  0
    6.2878   54.4967   23.1669 S   0  0  0  0  0  0
    4.8220   54.1357   22.2849 C   0  0  0  0  0  0
    3.7606   53.7943   23.1503 C   0  0  0  0  0  0
    2.4305   53.3935   22.7205 C   0  0  0  0  0  0
    1.4049   53.7714   23.2814 O   0  0  0  0  0  0
    2.3890   52.5678   21.6732 N   0  0  0  0  0  0
    4.7418   54.1979   20.8937 N   0  0  0  0  0  0
    5.6150   54.7220   20.0058 C   0  0  0  0  0  0
    6.6602   55.2971   20.3144 O   0  0  0  0  0  0
    5.2428   54.6062   18.5045 C   0  0  1  0  0  0
    6.0954   54.2009   17.9595 H   0  0  0  0  0  0
    4.0618   53.6609   18.1870 C   0  0  0  0  0  0
    4.8423   55.8924   18.0189 O   0  0  0  0  0  0
    5.7441   56.7721   17.4413 C   0  0  0  0  0  0
    7.1366   56.5763   17.4107 C   0  0  0  0  0  0
    7.9693   57.4936   16.7707 C   0  0  0  0  0  0
    7.4271   58.6139   16.1456 C   0  0  0  0  0  0
    6.0488   58.8225   16.1685 C   0  0  0  0  0  0
    5.2146   57.9175   16.8277 C   0  0  0  0  0  0
    3.5142   58.2311   16.8761 Cl  0  0  0  0  0  0
    8.4624   59.7416   15.3492 Cl  0  0  0  0  0  0
    6.1559   54.5521   26.0103 C   0  0  0  0  0  0
    5.8829   55.1517   28.7287 H   0  0  0  0  0  0
    5.3771   53.5505   29.2508 H   0  0  0  0  0  0
    6.9726   53.7818   28.5508 H   0  0  0  0  0  0
    3.7780   55.2968   27.1791 H   0  0  0  0  0  0
    3.3215   53.7901   27.8657 H   0  0  0  0  0  0
    2.8872   52.7422   25.7844 H   0  0  0  0  0  0
    2.2567   54.3586   25.6093 H   0  0  0  0  0  0
    1.4914   52.2846   21.3120 H   0  0  0  0  0  0
    3.2302   52.1389   21.3194 H   0  0  0  0  0  0
    3.8521   53.9145   20.5070 H   0  0  0  0  0  0
    4.2621   52.6401   18.5196 H   0  0  0  0  0  0
    3.1294   53.9965   18.6454 H   0  0  0  0  0  0
    3.8897   53.6137   17.1109 H   0  0  0  0  0  0
    7.5986   55.7251   17.8863 H   0  0  0  0  0  0
    9.0370   57.3322   16.7615 H   0  0  0  0  0  0
    5.6286   59.6962   15.6863 H   0  0  0  0  0  0
    6.2052   55.6187   26.2312 H   0  0  0  0  0  0
    7.1811   54.1864   25.9792 H   0  0  0  0  0  0
  1  2  1  0  0  0
  1 30  1  0  0  0
  1 31  1  0  0  0
  1 32  1  0  0  0
  2  3  1  0  0  0
  2 29  1  0  0  0
  2  4  1  0  0  0
  4  5  1  0  0  0
  4 33  1  0  0  0
  4 34  1  0  0  0
  5  6  1  0  0  0
  5 35  1  0  0  0
  5 36  1  0  0  0
  6 10  1  0  0  0
  6  7  2  0  0  0
  7  8  1  0  0  0
  7 29  1  0  0  0
  8  9  1  0  0  0
  9 10  2  0  0  0
  9 14  1  0  0  0
 10 11  1  0  0  0
 11 12  2  0  0  0
 11 13  1  0  0  0
 13 37  1  0  0  0
 13 38  1  0  0  0
 14 15  1  0  0  0
 14 39  1  0  0  0
 15 16  2  0  0  0
 15 17  1  0  0  0
 17 18  1  0  0  0
 17 19  1  0  0  0
 17 20  1  0  0  0
 19 40  1  0  0  0
 19 41  1  0  0  0
 19 42  1  0  0  0
 20 21  1  0  0  0
 21 26  2  0  0  0
 21 22  1  0  0  0
 22 23  2  0  0  0
 22 43  1  0  0  0
 23 24  1  0  0  0
 23 44  1  0  0  0
 24 25  2  0  0  0
 24 28  1  0  0  0
 25 26  1  0  0  0
 25 45  1  0  0  0
 26 27  1  0  0  0
 29 46  1  0  0  0
 29 47  1  0  0  0
M  END
> <i_i_glide_confnum>
25

> <i_i_glide_lignum>
2539

> <i_i_glide_posenum>
220

> <i_i_glide_rotatable_bonds>
6

> <i_m_Source_File_Index>
3847

> <b_m_subgroup_collapsed>
0

> <r_i_docking_score>
-5.38358

> <r_i_glide_ecoul>
-3.02093

> <r_i_glide_eff_state_penalty>
0

> <r_i_glide_einternal>
8.89651

> <r_i_glide_emodel>
-54.2171

> <r_i_glide_energy>
-43.084

> <r_i_glide_erotb>
0.434863

> <r_i_glide_esite>
0

> <r_i_glide_evdw>
-40.0631

> <r_i_glide_gscore>
-5.38358

> <r_i_glide_hbond>
0

> <r_i_glide_ligand_efficiency>
-0.199392

> <r_i_glide_ligand_efficiency_ln>
-1.25321

> <r_i_glide_ligand_efficiency_sa>
-0.598175

> <r_i_glide_lipo>
-2.51263

> <r_i_glide_metal>
0

> <r_i_glide_rewards>
-0.849515

> <s_i_glide_gridfile>
wee1_glide-grid

> <s_m_Source_File>
wee1_decoys_glide_SP.sdf

> <s_m_Source_Path>
/Users/zhangxujun/Desktop

> <s_m_entry_id>
4122

> <s_m_entry_name>
wee1_decoys_glide_SP.3847

> <s_m_subgroup_title>
wee1_decoys_glide_SP

> <s_m_subgroupid>
wee1_decoys_glide_SP


$$$$
