@<TRIPOS>MOLECULE
ZINC29827803_1377
48   51    1
SMALL
USER_CHARGES


@<TRIPOS>ATOM
      1 C1          1.2534   54.9222   30.0819 C.ar      1 UNK         0.0000 
      2 C2          0.4708   54.1221   30.9250 C.ar      1 UNK         0.0000 
      3 C3         -0.0955   52.9235   30.4816 C.ar      1 UNK         0.0000 
      4 C4          0.1413   52.5892   29.1459 C.ar      1 UNK         0.0000 
      5 C5          0.9381   53.3642   28.2902 C.ar      1 UNK         0.0000 
      6 C6          1.5181   54.5500   28.7604 C.ar      1 UNK         0.0000 
      7 N7          0.9898   52.7744   27.0649 N.2       1 UNK         0.0000 
      8 C8          0.1854   51.7372   27.1785 C.2       1 UNK         0.0000 
      9 O9         -0.3380   51.5395   28.4272 O.3       1 UNK         0.0000 
     10 C10        -0.2610   50.7854   26.0729 C.3       1 UNK         0.0000 
     11 H11        -0.0002   49.7701   26.3777 H         1 UNK         0.0000 
     12 C12        -1.7911   50.8196   25.8588 C.3       1 UNK         0.0000 
     13 C13        -2.2253   52.0949   25.1102 C.3       1 UNK         0.0000 
     14 C14        -1.4251   52.3181   23.8066 C.3       1 UNK         0.0000 
     15 N15         0.0204   52.2961   24.0546 N.3       1 UNK         0.0000 
     16 C16         0.4365   51.0392   24.7046 C.3       1 UNK         0.0000 
     17 C17         0.8068   52.5639   22.8376 C.3       1 UNK         0.0000 
     18 C18         2.2273   53.1244   23.0623 C.ar      1 UNK         0.0000 
     19 C19         2.5048   53.7778   24.2711 C.ar      1 UNK         0.0000 
     20 C20         3.7781   54.2359   24.5841 C.ar      1 UNK         0.0000 
     21 C21         4.8236   54.0966   23.6714 C.ar      1 UNK         0.0000 
     22 C22         4.5364   53.5196   22.4253 C.ar      1 UNK         0.0000 
     23 C23         3.2552   53.0428   22.0846 C.ar      1 UNK         0.0000 
     24 N24         3.0577   52.5004   20.7050 N.pl3     1 UNK         0.0000 
     25 O25         1.9584   52.0972   20.3439 O.co2     1 UNK         0.0000 
     26 O26         4.0220   52.4953   19.9457 O.co2     1 UNK         0.0000 
     27 C27         6.2189   54.5514   24.0454 C.2       1 UNK         0.0000 
     28 O28         6.5390   54.7989   25.2069 O.2       1 UNK         0.0000 
     29 N29         7.1043   54.6671   23.0571 N.am      1 UNK         0.0000 
     30 H30         1.6672   55.8446   30.4662 H         1 UNK         0.0000 
     31 H31         0.3034   54.4370   31.9461 H         1 UNK         0.0000 
     32 H32        -0.7031   52.3019   31.1269 H         1 UNK         0.0000 
     33 H33         2.1278   55.1637   28.1145 H         1 UNK         0.0000 
     34 H34        -2.3477   50.6186   26.7759 H         1 UNK         0.0000 
     35 H35        -2.0452   50.0104   25.1709 H         1 UNK         0.0000 
     36 H36        -2.1362   52.9728   25.7510 H         1 UNK         0.0000 
     37 H37        -3.2867   52.0263   24.8710 H         1 UNK         0.0000 
     38 H38        -1.6936   53.2880   23.3861 H         1 UNK         0.0000 
     39 H39        -1.6839   51.5715   23.0527 H         1 UNK         0.0000 
     40 H40         0.3218   50.1842   24.0346 H         1 UNK         0.0000 
     41 H41         1.5045   51.1149   24.8833 H         1 UNK         0.0000 
     42 H42         0.3048   53.2948   22.2078 H         1 UNK         0.0000 
     43 H43         0.8429   51.6303   22.2786 H         1 UNK         0.0000 
     44 H44         1.7225   53.9268   24.9956 H         1 UNK         0.0000 
     45 H45         3.9435   54.6955   25.5493 H         1 UNK         0.0000 
     46 H46         5.3301   53.4239   21.6991 H         1 UNK         0.0000 
     47 H47         8.0720   54.8984   23.2821 H         1 UNK         0.0000 
     48 H48         6.8234   54.5660   22.0952 H         1 UNK         0.0000 
@<TRIPOS>BOND
     1    1    6 ar   
     2    1    2 ar   
     3    1   30 1    
     4    2    3 ar   
     5    2   31 1    
     6    3    4 ar   
     7    3   32 1    
     8    4    9 1    
     9    4    5 ar   
    10    5    6 ar   
    11    5    7 1    
    12    6   33 1    
    13    7    8 2    
    14    8    9 1    
    15    8   10 1    
    16   10   11 1    
    17   10   16 1    
    18   10   12 1    
    19   12   13 1    
    20   12   34 1    
    21   12   35 1    
    22   13   14 1    
    23   13   36 1    
    24   13   37 1    
    25   14   15 1    
    26   14   38 1    
    27   14   39 1    
    28   15   16 1    
    29   15   17 1    
    30   16   40 1    
    31   16   41 1    
    32   17   18 1    
    33   17   42 1    
    34   17   43 1    
    35   18   23 ar   
    36   18   19 ar   
    37   19   20 ar   
    38   19   44 1    
    39   20   21 ar   
    40   20   45 1    
    41   21   22 ar   
    42   21   27 1    
    43   22   23 ar   
    44   22   46 1    
    45   23   24 1    
    46   24   25 2    
    47   24   26 1    
    48   27   28 2    
    49   27   29 am   BACKBONE|DICT|INTERRES
    50   29   47 1    
    51   29   48 1    
@<TRIPOS>SUBSTRUCTURE
     1 UNK         1 GROUP             0       ****    0 ROOT    
