@<TRIPOS>MOLECULE
ZINC09018787_1020
66   69    1
SMALL
USER_CHARGES


@<TRIPOS>ATOM
      1 C1          3.0918   52.1059   21.5197 C.3       1 UNK         0.0000 
      2 C2          2.1941   53.2973   21.8838 C.3       1 UNK         0.0000 
      3 O3          1.7762   53.2265   23.2416 O.3       1 UNK         0.0000 
      4 C4          2.5495   53.6960   24.2537 C.2       1 UNK         0.0000 
      5 O5          3.5845   54.3380   24.0700 O.2       1 UNK         0.0000 
      6 C6          2.0493   53.2901   25.5927 C.2       1 UNK         0.0000 
      7 C7          2.5266   53.8226   26.8287 C.2       1 UNK         0.0000 
      8 C8          2.0338   53.1697   27.9668 C.2       1 UNK         0.0000 
      9 S9          0.8704   51.9718   27.5343 S.3       1 UNK         0.0000 
     10 C10         1.1042   52.2752   25.8417 C.2       1 UNK         0.0000 
     11 N11         0.4438   51.5412   24.8616 N.am      1 UNK         0.0000 
     12 C12        -0.1628   50.3436   24.9562 C.2       1 UNK         0.0000 
     13 O13        -0.2212   49.6692   25.9794 O.2       1 UNK         0.0000 
     14 C14        -0.7468   49.7965   23.6427 C.3       1 UNK         0.0000 
     15 H15        -0.6440   50.5631   22.8746 H         1 UNK         0.0000 
     16 C16         0.0927   48.6037   23.1450 C.3       1 UNK         0.0000 
     17 S17        -2.5644   49.5482   23.7229 S.3       1 UNK         0.0000 
     18 C18        -2.7303   48.1581   24.8027 C.ar      1 UNK         0.0000 
     19 N19        -2.1503   47.0249   24.4805 N.2       1 UNK         0.0000 
     20 N20        -2.3946   46.0967   25.4659 N.2       1 UNK         0.0000 
     21 C21        -3.1662   46.6900   26.3219 C.ar      1 UNK         0.0000 
     22 N22        -3.4400   48.0233   26.0055 N.pl3     1 UNK         0.0000 
     23 C23        -4.3152   48.7957   26.8693 C.ar      1 UNK         0.0000 
     24 C24        -4.8878   48.0862   27.8871 C.ar      1 UNK         0.0000 
     25 C25        -4.7324   46.6693   28.1429 C.ar      1 UNK         0.0000 
     26 O26        -5.4612   46.0190   28.8818 O.2       1 UNK         0.0000 
     27 N27        -3.7443   46.0963   27.4309 N.pl3     1 UNK         0.0000 
     28 H28        -3.5459   45.1334   27.6793 H         1 UNK         0.0000 
     29 C29        -4.5406   50.3284   26.6911 C.3       1 UNK         0.0000 
     30 C30        -5.3522   50.6343   25.4075 C.3       1 UNK         0.0000 
     31 C31        -3.2062   51.1165   26.7424 C.3       1 UNK         0.0000 
     32 C32        -5.3855   50.9466   27.8452 C.3       1 UNK         0.0000 
     33 C33         2.4688   53.4156   29.3983 C.3       1 UNK         0.0000 
     34 C34         3.9748   53.1432   29.6105 C.3       1 UNK         0.0000 
     35 C35         4.9313   54.2273   29.0543 C.3       1 UNK         0.0000 
     36 C36         4.8807   54.5061   27.5401 C.3       1 UNK         0.0000 
     37 C37         3.5128   54.9623   27.0083 C.3       1 UNK         0.0000 
     38 H38         3.3457   52.1241   20.4596 H         1 UNK         0.0000 
     39 H39         4.0264   52.1261   22.0816 H         1 UNK         0.0000 
     40 H40         2.5956   51.1580   21.7250 H         1 UNK         0.0000 
     41 H41         1.3007   53.2946   21.2586 H         1 UNK         0.0000 
     42 H42         2.7056   54.2393   21.6810 H         1 UNK         0.0000 
     43 H43         0.5966   51.8966   23.9284 H         1 UNK         0.0000 
     44 H44         1.1053   48.9083   22.8769 H         1 UNK         0.0000 
     45 H45         0.2030   47.8236   23.9003 H         1 UNK         0.0000 
     46 H46        -0.3551   48.1587   22.2566 H         1 UNK         0.0000 
     47 H47        -5.5298   48.5747   28.5991 H         1 UNK         0.0000 
     48 H48        -6.3891   50.3060   25.5113 H         1 UNK         0.0000 
     49 H49        -5.3863   51.7049   25.1981 H         1 UNK         0.0000 
     50 H50        -4.9802   50.1408   24.5145 H         1 UNK         0.0000 
     51 H51        -2.5413   50.7320   27.5188 H         1 UNK         0.0000 
     52 H52        -2.6585   51.0940   25.8126 H         1 UNK         0.0000 
     53 H53        -3.3556   52.1794   26.9404 H         1 UNK         0.0000 
     54 H54        -4.9010   50.8206   28.8149 H         1 UNK         0.0000 
     55 H55        -5.5386   52.0191   27.7091 H         1 UNK         0.0000 
     56 H56        -6.3838   50.5113   27.9078 H         1 UNK         0.0000 
     57 H57         2.2661   54.4500   29.6788 H         1 UNK         0.0000 
     58 H58         1.8834   52.8047   30.0871 H         1 UNK         0.0000 
     59 H59         4.1607   53.0519   30.6817 H         1 UNK         0.0000 
     60 H60         4.2361   52.1710   29.1878 H         1 UNK         0.0000 
     61 H61         4.7604   55.1612   29.5933 H         1 UNK         0.0000 
     62 H62         5.9600   53.9478   29.2816 H         1 UNK         0.0000 
     63 H63         5.6105   55.2877   27.3223 H         1 UNK         0.0000 
     64 H64         5.2225   53.6285   26.9861 H         1 UNK         0.0000 
     65 H65         3.6550   55.5482   26.1028 H         1 UNK         0.0000 
     66 H66         3.0884   55.6944   27.7014 H         1 UNK         0.0000 
@<TRIPOS>BOND
     1    1    2 1    
     2    1   38 1    
     3    1   39 1    
     4    1   40 1    
     5    2    3 1    
     6    2   41 1    
     7    2   42 1    
     8    3    4 1    
     9    4    5 2    
    10    4    6 1    
    11    6   10 2    
    12    6    7 1    
    13    7   37 1    
    14    7    8 2    
    15    8    9 1    
    16    8   33 1    
    17    9   10 1    
    18   10   11 am   BACKBONE|DICT|INTERRES
    19   11   12 am   BACKBONE|DICT|INTERRES
    20   11   43 1    
    21   12   13 2    
    22   12   14 1    
    23   14   15 1    
    24   14   16 1    
    25   14   17 1    
    26   16   44 1    
    27   16   45 1    
    28   16   46 1    
    29   17   18 1    
    30   18   22 ar   
    31   18   19 ar   
    32   19   20 ar   
    33   20   21 ar   
    34   21   27 ar   
    35   21   22 ar   
    36   22   23 ar   
    37   23   24 ar   
    38   23   29 1    
    39   24   25 ar   
    40   24   47 1    
    41   25   26 2    
    42   25   27 ar   
    43   27   28 1    
    44   29   30 1    
    45   29   31 1    
    46   29   32 1    
    47   30   48 1    
    48   30   49 1    
    49   30   50 1    
    50   31   51 1    
    51   31   52 1    
    52   31   53 1    
    53   32   54 1    
    54   32   55 1    
    55   32   56 1    
    56   33   34 1    
    57   33   57 1    
    58   33   58 1    
    59   34   35 1    
    60   34   59 1    
    61   34   60 1    
    62   35   36 1    
    63   35   61 1    
    64   35   62 1    
    65   36   37 1    
    66   36   63 1    
    67   36   64 1    
    68   37   65 1    
    69   37   66 1    
@<TRIPOS>SUBSTRUCTURE
     1 UNK         1 GROUP             0       ****    0 ROOT    
