ZINC63137374_1149
                    3D
 Schrodinger Suite 2024-2.
 69 74  0  0  1  0            999 V2000
    9.9453   49.6905   16.6038 C   0  0  0  0  0  0
   10.4782   51.0493   16.1206 C   0  0  0  0  0  0
   11.1631   50.9309   14.7418 C   0  0  0  0  0  0
    9.3851   52.1215   16.1698 C   0  0  0  0  0  0
    8.4542   52.2500   15.1330 C   0  0  0  0  0  0
    7.4675   53.2300   15.1949 C   0  0  0  0  0  0
    7.3929   54.0828   16.2992 C   0  0  0  0  0  0
    8.3078   53.9359   17.3463 C   0  0  0  0  0  0
    9.3064   52.9751   17.2735 C   0  0  0  0  0  0
    6.2906   55.1543   16.3589 C   0  0  2  0  0  0
    5.6462   54.9831   15.4935 H   0  0  0  0  0  0
    6.8610   56.5973   16.1910 C   0  0  1  0  0  0
    6.0837   57.2785   15.8389 H   0  0  0  0  0  0
    7.4666   57.0893   17.4729 C   0  0  0  0  0  0
    8.7785   57.3183   17.2974 C   0  0  0  0  0  0
    9.8371   57.7292   18.2277 C   0  0  0  0  0  0
   11.1005   57.9098   17.7930 C   0  0  0  0  0  0
   11.3763   57.6944   16.3786 C   0  0  0  0  0  0
   10.4058   57.3173   15.5044 C   0  0  0  0  0  0
    9.0923   57.1175   15.9498 C   0  0  0  0  0  0
    8.0204   56.7494   15.2780 N   0  3  0  0  0  0
    6.5224   57.1834   18.6446 C   0  0  0  0  0  0
    5.5847   55.9379   18.8009 C   0  0  1  0  0  0
    4.5846   56.3394   18.9651 H   0  0  0  0  0  0
    5.4570   55.0568   17.5869 N   0  0  0  0  0  0
    4.5295   54.0512   17.6612 C   0  0  0  0  0  0
    4.1993   53.3313   16.7184 O   0  0  0  0  0  0
    3.9646   53.8462   19.0906 C   0  0  0  0  0  0
    4.9597   54.0594   20.1789 N   0  0  0  0  0  0
    5.8679   55.0763   20.0721 C   0  0  0  0  0  0
    6.7905   55.2977   20.8577 O   0  0  0  0  0  0
    4.9081   53.1649   21.3543 C   0  0  0  0  0  0
    4.0352   53.5940   22.5743 C   0  0  1  0  0  0
    3.5050   52.6892   22.8760 H   0  0  0  0  0  0
    4.7466   54.0503   23.8556 C   0  0  0  0  0  0
    3.9861   54.1425   25.0297 C   0  0  0  0  0  0
    4.5813   54.4974   26.2358 C   0  0  0  0  0  0
    5.9439   54.7783   26.2722 C   0  0  0  0  0  0
    6.7072   54.6961   25.1116 C   0  0  0  0  0  0
    6.1170   54.3305   23.9081 C   0  0  0  0  0  0
    3.0190   54.4966   22.2158 O   0  0  0  0  0  0
   10.7435   48.9498   16.6554 H   0  0  0  0  0  0
    9.5047   49.7665   17.5989 H   0  0  0  0  0  0
    9.1823   49.2999   15.9274 H   0  0  0  0  0  0
   11.2629   51.3592   16.8151 H   0  0  0  0  0  0
   10.5004   50.5038   13.9861 H   0  0  0  0  0  0
   11.4974   51.9026   14.3765 H   0  0  0  0  0  0
   12.0396   50.2846   14.7946 H   0  0  0  0  0  0
    8.4859   51.5893   14.2784 H   0  0  0  0  0  0
    6.7526   53.3127   14.3885 H   0  0  0  0  0  0
    8.2560   54.5686   18.2185 H   0  0  0  0  0  0
   10.0149   52.8967   18.0817 H   0  0  0  0  0  0
    9.6415   57.8695   19.2804 H   0  0  0  0  0  0
   11.8904   58.1838   18.4775 H   0  0  0  0  0  0
   12.3846   57.8348   16.0150 H   0  0  0  0  0  0
   10.6672   57.1709   14.4659 H   0  0  0  0  0  0
    7.0650   57.4146   19.5587 H   0  0  0  0  0  0
    5.8898   58.0584   18.4821 H   0  0  0  0  0  0
    3.1044   54.4964   19.2151 H   0  0  0  0  0  0
    3.6118   52.8149   19.1223 H   0  0  0  0  0  0
    4.5279   52.2065   20.9990 H   0  0  0  0  0  0
    5.9045   52.9046   21.6898 H   0  0  0  0  0  0
    2.9281   53.9258   25.0049 H   0  0  0  0  0  0
    3.9904   54.5576   27.1380 H   0  0  0  0  0  0
    6.4108   55.0545   27.2066 H   0  0  0  0  0  0
    7.7660   54.8980   25.1374 H   0  0  0  0  0  0
    6.7515   54.2638   23.0412 H   0  0  0  0  0  0
    2.6671   54.2749   21.3481 H   0  0  0  0  0  0
    7.9897   56.5428   14.2839 H   0  0  0  0  0  0
  1  2  1  0  0  0
  1 42  1  0  0  0
  1 43  1  0  0  0
  1 44  1  0  0  0
  2  3  1  0  0  0
  2  4  1  0  0  0
  2 45  1  0  0  0
  3 46  1  0  0  0
  3 47  1  0  0  0
  3 48  1  0  0  0
  4  9  2  0  0  0
  4  5  1  0  0  0
  5  6  2  0  0  0
  5 49  1  0  0  0
  6  7  1  0  0  0
  6 50  1  0  0  0
  7  8  2  0  0  0
  7 10  1  0  0  0
  8  9  1  0  0  0
  8 51  1  0  0  0
  9 52  1  0  0  0
 10 11  1  0  0  0
 10 25  1  0  0  0
 10 12  1  0  0  0
 12 13  1  0  0  0
 12 21  1  0  0  0
 12 14  1  0  0  0
 14 15  2  0  0  0
 14 22  1  0  0  0
 15 20  1  0  0  0
 15 16  1  0  0  0
 16 17  2  0  0  0
 16 53  1  0  0  0
 17 18  1  0  0  0
 17 54  1  0  0  0
 18 19  2  0  0  0
 18 55  1  0  0  0
 19 20  1  0  0  0
 19 56  1  0  0  0
 20 21  2  0  0  0
 21 69  1  0  0  0
 22 23  1  0  0  0
 22 57  1  0  0  0
 22 58  1  0  0  0
 23 24  1  0  0  0
 23 30  1  0  0  0
 23 25  1  0  0  0
 25 26  1  0  0  0
 26 27  2  0  0  0
 26 28  1  0  0  0
 28 29  1  0  0  0
 28 59  1  0  0  0
 28 60  1  0  0  0
 29 30  1  0  0  0
 29 32  1  0  0  0
 30 31  2  0  0  0
 32 33  1  0  0  0
 32 61  1  0  0  0
 32 62  1  0  0  0
 33 34  1  0  0  0
 33 35  1  0  0  0
 33 41  1  0  0  0
 35 40  2  0  0  0
 35 36  1  0  0  0
 36 37  2  0  0  0
 36 63  1  0  0  0
 37 38  1  0  0  0
 37 64  1  0  0  0
 38 39  2  0  0  0
 38 65  1  0  0  0
 39 40  1  0  0  0
 39 66  1  0  0  0
 40 67  1  0  0  0
 41 68  1  0  0  0
M  CHG  1  21   1
M  END
> <i_i_glide_confnum>
33

> <i_i_glide_lignum>
1150

> <i_i_glide_posenum>
241

> <i_i_glide_rotatable_bonds>
6

> <i_m_Source_File_Index>
3625

> <b_m_subgroup_collapsed>
0

> <r_i_docking_score>
-5.00413

> <r_i_glide_ecoul>
-3.37224

> <r_i_glide_eff_state_penalty>
0

> <r_i_glide_einternal>
11.0635

> <r_i_glide_emodel>
-46.1057

> <r_i_glide_energy>
-39.715

> <r_i_glide_erotb>
0.333227

> <r_i_glide_esite>
-0.0164323

> <r_i_glide_evdw>
-36.3428

> <r_i_glide_gscore>
-5.00413

> <r_i_glide_hbond>
-0.200341

> <r_i_glide_ligand_efficiency>
-0.135247

> <r_i_glide_ligand_efficiency_ln>
-1.08528

> <r_i_glide_ligand_efficiency_sa>
-0.450672

> <r_i_glide_lipo>
-2.494

> <r_i_glide_metal>
0

> <r_i_glide_rewards>
-0.303612

> <s_i_glide_gridfile>
wee1_glide-grid

> <s_m_Source_File>
wee1_decoys_glide_SP.sdf

> <s_m_Source_Path>
/Users/zhangxujun/Desktop

> <s_m_entry_id>
3900

> <s_m_entry_name>
wee1_decoys_glide_SP.3625

> <s_m_subgroup_title>
wee1_decoys_glide_SP

> <s_m_subgroupid>
wee1_decoys_glide_SP


$$$$
