@<TRIPOS>MOLECULE
ZINC00694733_5125
49   51    1
SMALL
USER_CHARGES


@<TRIPOS>ATOM
      1 C1          7.0752   55.7392   20.6805 C.3       1 UNK         0.0000 
      2 C2          7.4655   55.3403   22.1061 C.3       1 UNK         0.0000 
      3 O3          6.3049   54.8889   22.7909 O.3       1 UNK         0.0000 
      4 C4          6.2150   54.8915   24.1455 C.2       1 UNK         0.0000 
      5 O5          7.1042   55.2967   24.8950 O.2       1 UNK         0.0000 
      6 C6          4.9024   54.3974   24.6298 C.2       1 UNK         0.0000 
      7 C7          4.5783   54.2278   26.0082 C.2       1 UNK         0.0000 
      8 C8          3.2411   53.8526   26.2284 C.2       1 UNK         0.0000 
      9 S9          2.3599   53.6967   24.7590 S.3       1 UNK         0.0000 
     10 C10         3.8051   53.9905   23.8316 C.2       1 UNK         0.0000 
     11 N11         3.8268   53.8540   22.4428 N.pl3     1 UNK         0.0000 
     12 C12         3.2703   52.8793   21.6636 C.2       1 UNK         0.0000 
     13 S13         3.7950   52.8965   20.0777 S.2       1 UNK         0.0000 
     14 N14         2.3946   51.9961   22.2507 N.am      1 UNK         0.0000 
     15 C15         1.5548   51.0498   21.7516 C.2       1 UNK         0.0000 
     16 O16         1.3335   50.8570   20.5543 O.2       1 UNK         0.0000 
     17 C17         0.8838   50.2561   22.7752 C.ar      1 UNK         0.0000 
     18 C18        -0.0877   49.2458   22.5423 C.ar      1 UNK         0.0000 
     19 C19        -0.4150   48.7539   23.7943 C.ar      1 UNK         0.0000 
     20 N20         0.3375   49.4649   24.6805 N.pl3     1 UNK         0.0000 
     21 N21         1.1055   50.3737   24.0762 N.2       1 UNK         0.0000 
     22 C22         0.4282   49.2965   26.1176 C.3       1 UNK         0.0000 
     23 Br23       -0.8144   48.6221   20.8932 Br        1 UNK         0.0000 
     24 C24         2.6182   53.5129   27.5800 C.3       1 UNK         0.0000 
     25 C25         3.5613   53.9811   28.7146 C.3       1 UNK         0.0000 
     26 H26         3.4841   55.0663   28.8103 H         1 UNK         0.0000 
     27 C27         5.0125   53.5768   28.4010 C.3       1 UNK         0.0000 
     28 C28         5.5617   54.3380   27.1833 C.3       1 UNK         0.0000 
     29 C29         3.1129   53.3840   30.0610 C.3       1 UNK         0.0000 
     30 H30         7.9439   56.0951   20.1266 H         1 UNK         0.0000 
     31 H31         6.6597   54.8917   20.1347 H         1 UNK         0.0000 
     32 H32         6.3282   56.5335   20.6829 H         1 UNK         0.0000 
     33 H33         7.9046   56.1976   22.6138 H         1 UNK         0.0000 
     34 H34         8.2120   54.5461   22.0826 H         1 UNK         0.0000 
     35 H35         4.5686   54.3777   21.9961 H         1 UNK         0.0000 
     36 H36         2.3927   52.0278   23.2588 H         1 UNK         0.0000 
     37 H37        -1.0852   47.9749   24.1255 H         1 UNK         0.0000 
     38 H38        -0.4196   48.7150   26.4809 H         1 UNK         0.0000 
     39 H39         0.4267   50.2681   26.6123 H         1 UNK         0.0000 
     40 H40         1.3491   48.7607   26.3561 H         1 UNK         0.0000 
     41 H41         1.6367   53.9776   27.6867 H         1 UNK         0.0000 
     42 H42         2.4772   52.4323   27.6381 H         1 UNK         0.0000 
     43 H43         5.6475   53.8075   29.2556 H         1 UNK         0.0000 
     44 H44         5.0954   52.4953   28.2809 H         1 UNK         0.0000 
     45 H45         6.5346   53.9152   26.9317 H         1 UNK         0.0000 
     46 H46         5.7416   55.3818   27.4369 H         1 UNK         0.0000 
     47 H47         3.0678   52.2948   30.0218 H         1 UNK         0.0000 
     48 H48         3.8141   53.6460   30.8530 H         1 UNK         0.0000 
     49 H49         2.1238   53.7441   30.3464 H         1 UNK         0.0000 
@<TRIPOS>BOND
     1    1    2 1    
     2    1   30 1    
     3    1   31 1    
     4    1   32 1    
     5    2    3 1    
     6    2   33 1    
     7    2   34 1    
     8    3    4 1    
     9    4    5 2    
    10    4    6 1    
    11    6   10 2    
    12    6    7 1    
    13    7   28 1    
    14    7    8 2    
    15    8    9 1    
    16    8   24 1    
    17    9   10 1    
    18   10   11 1    
    19   11   12 1    
    20   11   35 1    
    21   12   13 2    
    22   12   14 am   BACKBONE|DICT|INTERRES
    23   14   15 am   BACKBONE|DICT|INTERRES
    24   14   36 1    
    25   15   16 2    
    26   15   17 1    
    27   17   21 ar   
    28   17   18 ar   
    29   18   19 ar   
    30   18   23 1    
    31   19   20 ar   
    32   19   37 1    
    33   20   21 ar   
    34   20   22 1    
    35   22   38 1    
    36   22   39 1    
    37   22   40 1    
    38   24   25 1    
    39   24   41 1    
    40   24   42 1    
    41   25   26 1    
    42   25   27 1    
    43   25   29 1    
    44   27   28 1    
    45   27   43 1    
    46   27   44 1    
    47   28   45 1    
    48   28   46 1    
    49   29   47 1    
    50   29   48 1    
    51   29   49 1    
@<TRIPOS>SUBSTRUCTURE
     1 UNK         1 GROUP             0       ****    0 ROOT    
