ZINC35427206_759
                    3D
 Schrodinger Suite 2024-2.
 64 69  0  0  1  0            999 V2000
    1.5418   50.5926   15.0209 C   0  0  0  0  0  0
    2.7045   51.2973   15.7454 N   0  3  2  0  0  0
    2.1815   52.0837   16.9705 C   0  0  0  0  0  0
    3.3870   52.5414   17.8291 C   0  0  0  0  0  0
    4.5455   53.0457   16.9624 C   0  0  0  0  0  0
    5.7275   53.6392   17.4536 C   0  0  0  0  0  0
    6.5639   54.0458   16.4075 C   0  0  0  0  0  0
    5.9361   53.6299   14.8488 S   0  0  0  0  0  0
    4.5381   52.9136   15.5708 C   0  0  0  0  0  0
    3.4275   52.2584   14.7672 C   0  0  0  0  0  0
    7.7681   54.6723   16.6683 N   0  0  0  0  0  0
    8.9775   54.3913   16.0739 C   0  0  0  0  0  0
    9.9563   55.1818   16.6454 C   0  0  0  0  0  0
    9.3264   55.9662   17.6118 C   0  0  0  0  0  0
    7.9680   55.6607   17.6240 C   0  0  0  0  0  0
    6.8172   56.2007   18.4830 C   0  0  2  0  0  0
    7.2443   57.0210   19.0573 H   0  0  0  0  0  0
    6.3288   55.1573   19.4322 N   0  0  0  0  0  0
    6.1163   53.7740   18.9182 C   0  0  0  0  0  0
    6.3020   55.4226   20.7763 C   0  0  0  0  0  0
    6.7083   56.4851   21.2579 O   0  0  0  0  0  0
    5.6587   54.5035   21.5348 N   0  0  0  0  0  0
    5.4940   54.4963   22.9290 C   0  0  0  0  0  0
    6.5279   54.8716   23.8007 C   0  0  0  0  0  0
    6.3129   54.8718   25.1773 C   0  0  0  0  0  0
    5.0774   54.4904   25.6919 C   0  0  0  0  0  0
    4.0515   54.1000   24.8309 C   0  0  0  0  0  0
    4.2461   54.0966   23.4389 C   0  0  0  0  0  0
    3.2661   53.7319   22.5311 O   0  0  0  0  0  0
    1.9518   53.4439   22.9945 C   0  0  0  0  0  0
    5.7374   56.9075   17.6410 C   0  0  0  0  0  0
    6.1178   57.9721   16.8164 C   0  0  0  0  0  0
    5.1770   58.6277   16.0279 C   0  0  0  0  0  0
    3.8462   58.2219   16.0583 C   0  0  0  0  0  0
    3.4517   57.1727   16.8814 C   0  0  0  0  0  0
    4.3877   56.5304   17.6874 C   0  0  0  0  0  0
    2.6747   59.0242   15.0766 Cl  0  0  0  0  0  0
    1.9705   50.0343   14.1885 H   0  0  0  0  0  0
    1.0833   49.9078   15.7363 H   0  0  0  0  0  0
    0.8326   51.3474   14.6780 H   0  0  0  0  0  0
    1.5923   52.9165   16.5835 H   0  0  0  0  0  0
    1.5422   51.4102   17.5467 H   0  0  0  0  0  0
    3.0620   53.3040   18.5359 H   0  0  0  0  0  0
    3.7309   51.6975   18.4270 H   0  0  0  0  0  0
    3.8003   51.6324   13.9564 H   0  0  0  0  0  0
    2.7007   52.9747   14.3809 H   0  0  0  0  0  0
    9.0422   53.6385   15.3017 H   0  0  0  0  0  0
   11.0102   55.1852   16.4016 H   0  0  0  0  0  0
    9.8170   56.6848   18.2523 H   0  0  0  0  0  0
    5.4240   53.1976   19.5307 H   0  0  0  0  0  0
    7.0831   53.2832   19.0260 H   0  0  0  0  0  0
    5.1794   53.7593   21.0521 H   0  0  0  0  0  0
    7.4995   55.1646   23.4183 H   0  0  0  0  0  0
    7.1039   55.1646   25.8498 H   0  0  0  0  0  0
    4.9198   54.4865   26.7591 H   0  0  0  0  0  0
    3.1115   53.7968   25.2657 H   0  0  0  0  0  0
    1.9422   52.5724   23.6497 H   0  0  0  0  0  0
    1.5198   54.2982   23.5172 H   0  0  0  0  0  0
    1.3120   53.2225   22.1413 H   0  0  0  0  0  0
    7.1476   58.2986   16.7846 H   0  0  0  0  0  0
    5.4746   59.4640   15.4125 H   0  0  0  0  0  0
    2.4170   56.8685   16.9070 H   0  0  0  0  0  0
    4.0506   55.7341   18.3319 H   0  0  0  0  0  0
    3.3485   50.5742   16.0822 H   0  0  0  0  0  0
  1  2  1  0  0  0
  1 38  1  0  0  0
  1 39  1  0  0  0
  1 40  1  0  0  0
  2 10  1  0  0  0
  2  3  1  0  0  0
  2 64  1  0  0  0
  3  4  1  0  0  0
  3 41  1  0  0  0
  3 42  1  0  0  0
  4  5  1  0  0  0
  4 43  1  0  0  0
  4 44  1  0  0  0
  5  9  2  0  0  0
  5  6  1  0  0  0
  6 19  1  0  0  0
  6  7  2  0  0  0
  7  8  1  0  0  0
  7 11  1  0  0  0
  8  9  1  0  0  0
  9 10  1  0  0  0
 10 45  1  0  0  0
 10 46  1  0  0  0
 11 15  1  0  0  0
 11 12  1  0  0  0
 12 13  2  0  0  0
 12 47  1  0  0  0
 13 14  1  0  0  0
 13 48  1  0  0  0
 14 15  2  0  0  0
 14 49  1  0  0  0
 15 16  1  0  0  0
 16 17  1  0  0  0
 16 18  1  0  0  0
 16 31  1  0  0  0
 18 19  1  0  0  0
 18 20  1  0  0  0
 19 50  1  0  0  0
 19 51  1  0  0  0
 20 21  2  0  0  0
 20 22  1  0  0  0
 22 23  1  0  0  0
 22 52  1  0  0  0
 23 28  2  0  0  0
 23 24  1  0  0  0
 24 25  2  0  0  0
 24 53  1  0  0  0
 25 26  1  0  0  0
 25 54  1  0  0  0
 26 27  2  0  0  0
 26 55  1  0  0  0
 27 28  1  0  0  0
 27 56  1  0  0  0
 28 29  1  0  0  0
 29 30  1  0  0  0
 30 57  1  0  0  0
 30 58  1  0  0  0
 30 59  1  0  0  0
 31 36  2  0  0  0
 31 32  1  0  0  0
 32 33  2  0  0  0
 32 60  1  0  0  0
 33 34  1  0  0  0
 33 61  1  0  0  0
 34 35  2  0  0  0
 34 37  1  0  0  0
 35 36  1  0  0  0
 35 62  1  0  0  0
 36 63  1  0  0  0
M  CHG  1   2   1
M  END
> <i_i_glide_confnum>
31

> <i_i_glide_lignum>
760

> <i_i_glide_posenum>
106

> <i_i_glide_rotatable_bonds>
5

> <i_m_Source_File_Index>
1622

> <b_m_subgroup_collapsed>
0

> <r_i_docking_score>
-5.25823

> <r_i_glide_ecoul>
-6.29068

> <r_i_glide_eff_state_penalty>
0

> <r_i_glide_einternal>
4.99588

> <r_i_glide_emodel>
-53.2974

> <r_i_glide_energy>
-41.4369

> <r_i_glide_erotb>
0.303899

> <r_i_glide_esite>
-0.0894703

> <r_i_glide_evdw>
-35.1462

> <r_i_glide_gscore>
-5.25823

> <r_i_glide_hbond>
-0.402608

> <r_i_glide_ligand_efficiency>
-0.146062

> <r_i_glide_ligand_efficiency_ln>
-1.1472

> <r_i_glide_ligand_efficiency_sa>
-0.482286

> <r_i_glide_lipo>
-1.93077

> <r_i_glide_metal>
0

> <r_i_glide_rewards>
-0.438373

> <s_i_glide_gridfile>
wee1_glide-grid

> <s_m_Source_File>
wee1_decoys_glide_SP.sdf

> <s_m_Source_Path>
/Users/zhangxujun/Desktop

> <s_m_entry_id>
1897

> <s_m_entry_name>
wee1_decoys_glide_SP.1622

> <s_m_subgroup_title>
wee1_decoys_glide_SP

> <s_m_subgroupid>
wee1_decoys_glide_SP


$$$$
