@<TRIPOS>MOLECULE
ZINC08686972_5966
53   56    1
SMALL
USER_CHARGES


@<TRIPOS>ATOM
      1 C1          4.4781   57.9883   14.0163 C.3       1 UNK         0.0000 
      2 C2          5.2079   57.6034   15.2896 C.ar      1 UNK         0.0000 
      3 C3          6.5492   57.2189   15.2440 C.ar      1 UNK         0.0000 
      4 C4          7.2161   56.8827   16.4200 C.ar      1 UNK         0.0000 
      5 C5          6.5416   56.9342   17.6425 C.ar      1 UNK         0.0000 
      6 C6          5.1919   57.2887   17.6806 C.ar      1 UNK         0.0000 
      7 C7          4.5267   57.6309   16.5078 C.ar      1 UNK         0.0000 
      8 S8          7.4058   56.5117   19.1647 S.o2      1 UNK         0.0000 
      9 O9          8.7951   56.8953   18.8955 O.2       1 UNK         0.0000 
     10 O10         6.7044   57.2513   20.2232 O.2       1 UNK         0.0000 
     11 N11         7.2094   54.9574   19.2057 N.2       1 UNK         0.0000 
     12 C12         5.9684   54.3910   19.3507 C.ar      1 UNK         0.0000 
     13 C13         5.3926   53.9435   18.1535 C.ar      1 UNK         0.0000 
     14 C14         4.1650   53.2989   18.1182 C.ar      1 UNK         0.0000 
     15 C15         3.4862   53.0672   19.3014 C.ar      1 UNK         0.0000 
     16 C16         4.0325   53.4814   20.5089 C.ar      1 UNK         0.0000 
     17 C17         5.2811   54.1388   20.5775 C.ar      1 UNK         0.0000 
     18 C18         5.8564   54.4970   21.9507 C.2       1 UNK         0.0000 
     19 O19         7.0056   54.9149   22.0816 O.2       1 UNK         0.0000 
     20 N20         5.0353   54.2821   23.0051 N.am      1 UNK         0.0000 
     21 C21         5.2804   54.4915   24.3560 C.2       1 UNK         0.0000 
     22 N22         4.4111   54.0969   25.2488 N.2       1 UNK         0.0000 
     23 C23         4.8224   54.2736   26.4952 C.2       1 UNK         0.0000 
     24 C24         6.0694   54.8971   26.6050 C.2       1 UNK         0.0000 
     25 S25         6.7044   55.2340   25.0249 S.3       1 UNK         0.0000 
     26 C26         3.9789   53.7902   27.6300 C.ar      1 UNK         0.0000 
     27 C27         4.5926   53.3369   28.8002 C.ar      1 UNK         0.0000 
     28 C28         3.8226   52.8410   29.8485 C.ar      1 UNK         0.0000 
     29 C29         2.4336   52.7989   29.7490 C.ar      1 UNK         0.0000 
     30 C30         1.8149   53.2672   28.5809 C.ar      1 UNK         0.0000 
     31 C31         2.5843   53.7538   27.5286 C.ar      1 UNK         0.0000 
     32 O32         1.7578   52.2808   30.8348 O.3       1 UNK         0.0000 
     33 C33         0.3350   52.2151   30.7945 C.3       1 UNK         0.0000 
     34 H34         3.5734   57.3899   13.9070 H         1 UNK         0.0000 
     35 H35         5.0914   57.8387   13.1267 H         1 UNK         0.0000 
     36 H36         4.1746   59.0352   14.0619 H         1 UNK         0.0000 
     37 H37         7.0789   57.1870   14.3036 H         1 UNK         0.0000 
     38 H38         8.2551   56.5890   16.3847 H         1 UNK         0.0000 
     39 H39         4.6643   57.2957   18.6216 H         1 UNK         0.0000 
     40 H40         3.4879   57.9239   16.5479 H         1 UNK         0.0000 
     41 H41         5.9118   54.0923   17.2172 H         1 UNK         0.0000 
     42 H42         3.7524   52.9638   17.1782 H         1 UNK         0.0000 
     43 H43         2.5333   52.5597   19.2840 H         1 UNK         0.0000 
     44 H44         3.4509   53.2527   21.3890 H         1 UNK         0.0000 
     45 H45         4.1381   53.8797   22.7909 H         1 UNK         0.0000 
     46 H46         6.6164   55.1601   27.4999 H         1 UNK         0.0000 
     47 H47         5.6689   53.3445   28.8877 H         1 UNK         0.0000 
     48 H48         4.3045   52.4793   30.7444 H         1 UNK         0.0000 
     49 H49         0.7421   53.2522   28.4667 H         1 UNK         0.0000 
     50 H50         2.0917   54.0967   26.6307 H         1 UNK         0.0000 
     51 H51        -0.0220   51.6973   31.6815 H         1 UNK         0.0000 
     52 H52        -0.1099   53.2111   30.7869 H         1 UNK         0.0000 
     53 H53        -0.0265   51.6546   29.9310 H         1 UNK         0.0000 
@<TRIPOS>BOND
     1    1    2 1    
     2    1   34 1    
     3    1   35 1    
     4    1   36 1    
     5    2    7 ar   
     6    2    3 ar   
     7    3    4 ar   
     8    3   37 1    
     9    4    5 ar   
    10    4   38 1    
    11    5    6 ar   
    12    5    8 1    
    13    6    7 ar   
    14    6   39 1    
    15    7   40 1    
    16    8    9 2    
    17    8   10 2    
    18    8   11 1    
    19   11   12 1    
    20   12   17 ar   
    21   12   13 ar   
    22   13   14 ar   
    23   13   41 1    
    24   14   15 ar   
    25   14   42 1    
    26   15   16 ar   
    27   15   43 1    
    28   16   17 ar   
    29   16   44 1    
    30   17   18 1    
    31   18   19 2    
    32   18   20 am   BACKBONE|DICT|INTERRES
    33   20   21 am   BACKBONE|DICT|INTERRES
    34   20   45 1    
    35   21   25 1    
    36   21   22 2    
    37   22   23 1    
    38   23   24 2    
    39   23   26 1    
    40   24   25 1    
    41   24   46 1    
    42   26   31 ar   
    43   26   27 ar   
    44   27   28 ar   
    45   27   47 1    
    46   28   29 ar   
    47   28   48 1    
    48   29   30 ar   
    49   29   32 1    
    50   30   31 ar   
    51   30   49 1    
    52   31   50 1    
    53   32   33 1    
    54   33   51 1    
    55   33   52 1    
    56   33   53 1    
@<TRIPOS>SUBSTRUCTURE
     1 UNK         1 GROUP             0       ****    0 ROOT    
