ZINC66086182_3041
                    3D
 Schrodinger Suite 2024-2.
 65 68  0  0  1  0            999 V2000
    1.2341   52.7342   26.7260 C   0  0  0  0  0  0
    2.6523   52.5046   27.2712 C   0  0  0  0  0  0
    3.1000   53.4244   28.3325 N   0  0  0  0  0  0
    2.4722   53.2313   29.5677 C   0  0  0  0  0  0
    1.1844   53.7261   29.7844 C   0  0  0  0  0  0
    0.5013   53.3567   30.9378 C   0  0  0  0  0  0
    1.1044   52.5110   31.8617 C   0  0  0  0  0  0
    2.4202   52.0966   31.6816 C   0  0  0  0  0  0
    3.1063   52.4379   30.5251 C   0  0  0  0  0  0
    4.1653   54.2762   28.2184 C   0  0  0  0  0  0
    4.6326   54.8949   29.1791 O   0  0  0  0  0  0
    4.8177   54.4577   26.8646 C   0  0  0  0  0  0
    6.2115   54.4201   26.7412 C   0  0  0  0  0  0
    6.8014   54.5474   25.4828 C   0  0  0  0  0  0
    6.0230   54.7183   24.3407 C   0  0  0  0  0  0
    4.6307   54.7515   24.4698 C   0  0  0  0  0  0
    4.0425   54.6681   25.7204 C   0  0  0  0  0  0
    6.7045   54.9331   23.1251 N   0  0  0  0  0  0
    6.2174   54.8967   21.8641 C   0  0  0  0  0  0
    5.0962   54.4734   21.5737 O   0  0  0  0  0  0
    7.1470   55.4064   20.7431 C   0  0  0  0  0  0
    6.3803   56.1998   19.8120 N   0  0  0  0  0  0
    6.8923   57.0290   18.8053 C   0  0  0  0  0  0
    5.9908   57.5978   17.9072 C   0  0  0  0  0  0
    6.4305   58.4967   16.9397 C   0  0  0  0  0  0
    7.7778   58.8442   16.8694 C   0  0  0  0  0  0
    8.7064   58.2765   17.7571 C   0  0  0  0  0  0
    8.2534   57.3394   18.6987 C   0  0  0  0  0  0
   10.1629   58.6719   17.7332 C   0  0  0  0  0  0
   11.0398   57.8809   18.0814 O   0  0  0  0  0  0
   10.4255   59.9419   17.3716 N   0  0  0  0  0  0
   11.7652   60.5322   17.3252 C   0  0  0  0  0  0
   12.1147   61.2570   18.6107 C   0  0  0  0  0  0
   12.4710   62.5655   18.9107 C   0  0  0  0  0  0
   12.7049   62.6217   20.2869 C   0  0  0  0  0  0
   12.4769   61.3460   20.7720 C   0  0  0  0  0  0
   12.1164   60.5212   19.7561 O   0  0  0  0  0  0
    1.0498   52.0845   25.8701 H   0  0  0  0  0  0
    0.4655   52.4977   27.4610 H   0  0  0  0  0  0
    1.1044   53.7602   26.3928 H   0  0  0  0  0  0
    3.3443   52.4967   26.4355 H   0  0  0  0  0  0
    2.6950   51.4950   27.6819 H   0  0  0  0  0  0
    0.6991   54.3506   29.0502 H   0  0  0  0  0  0
   -0.4957   53.7174   31.1153 H   0  0  0  0  0  0
    0.5700   52.2212   32.7535 H   0  0  0  0  0  0
    2.8915   51.4785   32.4329 H   0  0  0  0  0  0
    4.1094   52.0712   30.3599 H   0  0  0  0  0  0
    6.8376   54.2810   27.6123 H   0  0  0  0  0  0
    7.8732   54.5062   25.3871 H   0  0  0  0  0  0
    3.9787   54.8968   23.6226 H   0  0  0  0  0  0
    2.9720   54.7482   25.7801 H   0  0  0  0  0  0
    7.6823   55.1722   23.2284 H   0  0  0  0  0  0
    7.5505   54.5225   20.2485 H   0  0  0  0  0  0
    7.9992   55.9326   21.1776 H   0  0  0  0  0  0
    5.4267   55.8934   19.6662 H   0  0  0  0  0  0
    4.9363   57.3722   17.9714 H   0  0  0  0  0  0
    5.7230   58.9601   16.2673 H   0  0  0  0  0  0
    8.0803   59.5632   16.1237 H   0  0  0  0  0  0
    8.9641   56.8969   19.3832 H   0  0  0  0  0  0
    9.6569   60.5092   17.0447 H   0  0  0  0  0  0
   11.7843   61.2329   16.4887 H   0  0  0  0  0  0
   12.5271   59.7878   17.0784 H   0  0  0  0  0  0
   12.5694   63.3807   18.2062 H   0  0  0  0  0  0
   13.0204   63.4855   20.8555 H   0  0  0  0  0  0
   12.5390   60.8980   21.7523 H   0  0  0  0  0  0
  1  2  1  0  0  0
  1 38  1  0  0  0
  1 39  1  0  0  0
  1 40  1  0  0  0
  2  3  1  0  0  0
  2 41  1  0  0  0
  2 42  1  0  0  0
  3  4  1  0  0  0
  3 10  1  0  0  0
  4  9  2  0  0  0
  4  5  1  0  0  0
  5  6  2  0  0  0
  5 43  1  0  0  0
  6  7  1  0  0  0
  6 44  1  0  0  0
  7  8  2  0  0  0
  7 45  1  0  0  0
  8  9  1  0  0  0
  8 46  1  0  0  0
  9 47  1  0  0  0
 10 11  2  0  0  0
 10 12  1  0  0  0
 12 17  2  0  0  0
 12 13  1  0  0  0
 13 14  2  0  0  0
 13 48  1  0  0  0
 14 15  1  0  0  0
 14 49  1  0  0  0
 15 16  2  0  0  0
 15 18  1  0  0  0
 16 17  1  0  0  0
 16 50  1  0  0  0
 17 51  1  0  0  0
 18 19  1  0  0  0
 18 52  1  0  0  0
 19 20  2  0  0  0
 19 21  1  0  0  0
 21 22  1  0  0  0
 21 53  1  0  0  0
 21 54  1  0  0  0
 22 23  1  0  0  0
 22 55  1  0  0  0
 23 28  2  0  0  0
 23 24  1  0  0  0
 24 25  2  0  0  0
 24 56  1  0  0  0
 25 26  1  0  0  0
 25 57  1  0  0  0
 26 27  2  0  0  0
 26 58  1  0  0  0
 27 28  1  0  0  0
 27 29  1  0  0  0
 28 59  1  0  0  0
 29 30  2  0  0  0
 29 31  1  0  0  0
 31 32  1  0  0  0
 31 60  1  0  0  0
 32 33  1  0  0  0
 32 61  1  0  0  0
 32 62  1  0  0  0
 33 37  1  0  0  0
 33 34  2  0  0  0
 34 35  1  0  0  0
 34 63  1  0  0  0
 35 36  2  0  0  0
 35 64  1  0  0  0
 36 37  1  0  0  0
 36 65  1  0  0  0
M  END
> <i_i_glide_confnum>
249

> <i_i_glide_lignum>
3042

> <i_i_glide_posenum>
41

> <i_i_glide_rotatable_bonds>
13

> <i_m_Source_File_Index>
4761

> <b_m_subgroup_collapsed>
0

> <r_i_docking_score>
-3.8273

> <r_i_glide_ecoul>
-3.66079

> <r_i_glide_eff_state_penalty>
0

> <r_i_glide_einternal>
9.75541

> <r_i_glide_emodel>
-53.1324

> <r_i_glide_energy>
-49.4926

> <r_i_glide_erotb>
0.909783

> <r_i_glide_esite>
-0.022761

> <r_i_glide_evdw>
-45.8318

> <r_i_glide_gscore>
-3.8273

> <r_i_glide_hbond>
-0.317307

> <r_i_glide_ligand_efficiency>
-0.103441

> <r_i_glide_ligand_efficiency_ln>
-0.830052

> <r_i_glide_ligand_efficiency_sa>
-0.344687

> <r_i_glide_lipo>
-2.24962

> <r_i_glide_metal>
0

> <r_i_glide_rewards>
0.693309

> <s_i_glide_gridfile>
wee1_glide-grid

> <s_m_Source_File>
wee1_decoys_glide_SP.sdf

> <s_m_Source_Path>
/Users/zhangxujun/Desktop

> <s_m_entry_id>
5036

> <s_m_entry_name>
wee1_decoys_glide_SP.4761

> <s_m_subgroup_title>
wee1_decoys_glide_SP

> <s_m_subgroupid>
wee1_decoys_glide_SP


$$$$
