ZINC20705941_1177
                    3D
 Schrodinger Suite 2024-2.
 59 63  0  0  1  0            999 V2000
   11.1866   49.8734   14.1246 C   0  0  0  0  0  0
   10.7976   50.6429   15.4101 N   0  3  0  0  0  0
    9.3984   50.1986   15.9168 C   0  0  0  0  0  0
    8.9666   51.0399   17.1454 C   0  0  0  0  0  0
    9.1402   52.4823   16.8817 N   0  0  0  0  0  0
   10.5061   52.8902   16.4941 C   0  0  0  0  0  0
   10.9270   52.1736   15.1964 C   0  0  0  0  0  0
    7.7366   53.4542   16.3831 S   0  0  0  0  0  0
    8.2340   54.6960   15.7791 O   0  0  0  0  0  0
    6.8202   52.5769   15.6457 O   0  0  0  0  0  0
    6.9371   53.9140   17.9214 C   0  0  0  0  0  0
    7.5317   54.8962   18.7137 C   0  0  0  0  0  0
    6.9667   55.2405   19.9377 C   0  0  0  0  0  0
    5.8047   54.6029   20.3733 C   0  0  0  0  0  0
    5.1727   53.6264   19.5822 C   0  0  0  0  0  0
    5.7539   53.2969   18.3483 C   0  0  0  0  0  0
    3.8669   53.0444   20.1137 C   0  0  1  0  0  0
    3.1071   53.7903   19.8775 H   0  0  0  0  0  0
    3.3436   51.6957   19.6824 C   0  0  0  0  0  0
    2.6400   51.1486   20.6937 C   0  0  0  0  0  0
    2.7298   52.0149   21.9399 C   0  0  0  0  0  0
    3.9834   52.8362   21.6228 C   0  0  2  0  0  0
    4.8513   52.2051   21.8403 H   0  0  0  0  0  0
    4.2329   54.1894   22.3337 C   0  0  2  0  0  0
    3.3578   54.8183   22.1586 H   0  0  0  0  0  0
    5.3394   54.8972   21.6698 N   0  0  0  0  0  0
    4.3454   54.0970   23.8730 C   0  0  0  0  0  0
    3.1583   53.9818   24.6094 C   0  0  0  0  0  0
    3.1695   53.8909   26.0090 C   0  0  0  0  0  0
    4.3822   54.0035   26.6913 C   0  0  0  0  0  0
    5.5715   54.0975   25.9819 C   0  0  0  0  0  0
    5.5663   54.0965   24.5874 C   0  0  0  0  0  0
    7.1129   54.0164   23.8284 Cl  0  0  0  0  0  0
    1.9291   53.6183   26.7551 N   0  3  0  0  0  0
    1.8093   54.0912   27.8820 O   0  0  0  0  0  0
    1.0948   52.8994   26.2168 O   0  5  0  0  0  0
   10.4854   50.1383   13.3308 H   0  0  0  0  0  0
   12.2045   50.1577   13.8514 H   0  0  0  0  0  0
   11.1410   48.8051   14.3416 H   0  0  0  0  0  0
    9.5048   49.1500   16.1988 H   0  0  0  0  0  0
    8.7036   50.2861   15.0810 H   0  0  0  0  0  0
    7.9056   50.8973   17.3546 H   0  0  0  0  0  0
    9.5041   50.7570   18.0516 H   0  0  0  0  0  0
   11.1798   52.6372   17.3143 H   0  0  0  0  0  0
   10.5392   53.9762   16.4002 H   0  0  0  0  0  0
   11.9793   52.3662   14.9809 H   0  0  0  0  0  0
   10.3149   52.4585   14.3374 H   0  0  0  0  0  0
    8.4454   55.3765   18.3935 H   0  0  0  0  0  0
    7.4556   55.9750   20.5604 H   0  0  0  0  0  0
    5.2909   52.5411   17.7283 H   0  0  0  0  0  0
    3.4453   51.3093   18.6772 H   0  0  0  0  0  0
    2.0919   50.2173   20.6655 H   0  0  0  0  0  0
    2.8356   51.4247   22.8477 H   0  0  0  0  0  0
    1.8453   52.6401   22.0700 H   0  0  0  0  0  0
    5.7615   55.6329   22.2153 H   0  0  0  0  0  0
    2.2125   53.9317   24.0874 H   0  0  0  0  0  0
    4.4135   53.9478   27.7706 H   0  0  0  0  0  0
    6.5080   54.1098   26.5209 H   0  0  0  0  0  0
   11.4505   50.4110   16.1481 H   0  0  0  0  0  0
  1  2  1  0  0  0
  1 37  1  0  0  0
  1 38  1  0  0  0
  1 39  1  0  0  0
  2  7  1  0  0  0
  2  3  1  0  0  0
  2 59  1  0  0  0
  3  4  1  0  0  0
  3 40  1  0  0  0
  3 41  1  0  0  0
  4  5  1  0  0  0
  4 42  1  0  0  0
  4 43  1  0  0  0
  5  6  1  0  0  0
  5  8  1  0  0  0
  6  7  1  0  0  0
  6 44  1  0  0  0
  6 45  1  0  0  0
  7 46  1  0  0  0
  7 47  1  0  0  0
  8  9  2  0  0  0
  8 10  2  0  0  0
  8 11  1  0  0  0
 11 16  2  0  0  0
 11 12  1  0  0  0
 12 13  2  0  0  0
 12 48  1  0  0  0
 13 14  1  0  0  0
 13 49  1  0  0  0
 14 26  1  0  0  0
 14 15  2  0  0  0
 15 16  1  0  0  0
 15 17  1  0  0  0
 16 50  1  0  0  0
 17 18  1  0  0  0
 17 22  1  0  0  0
 17 19  1  0  0  0
 19 20  2  0  0  0
 19 51  1  0  0  0
 20 21  1  0  0  0
 20 52  1  0  0  0
 21 22  1  0  0  0
 21 53  1  0  0  0
 21 54  1  0  0  0
 22 23  1  0  0  0
 22 24  1  0  0  0
 24 25  1  0  0  0
 24 26  1  0  0  0
 24 27  1  0  0  0
 26 55  1  0  0  0
 27 32  2  0  0  0
 27 28  1  0  0  0
 28 29  2  0  0  0
 28 56  1  0  0  0
 29 30  1  0  0  0
 29 34  1  0  0  0
 30 31  2  0  0  0
 30 57  1  0  0  0
 31 32  1  0  0  0
 31 58  1  0  0  0
 32 33  1  0  0  0
 34 35  2  0  0  0
 34 36  1  0  0  0
M  CHG  3   2   1  34   1  36  -1
M  END
> <i_i_glide_confnum>
15

> <i_i_glide_lignum>
1178

> <i_i_glide_posenum>
298

> <i_i_glide_rotatable_bonds>
4

> <i_m_Source_File_Index>
5802

> <b_m_subgroup_collapsed>
0

> <r_i_docking_score>
-4.80424

> <r_i_glide_ecoul>
-4.1872

> <r_i_glide_eff_state_penalty>
0

> <r_i_glide_einternal>
9.65183

> <r_i_glide_emodel>
-48.7774

> <r_i_glide_energy>
-40.7824

> <r_i_glide_erotb>
0.254241

> <r_i_glide_esite>
-0.0204055

> <r_i_glide_evdw>
-36.5952

> <r_i_glide_gscore>
-4.80424

> <r_i_glide_hbond>
0

> <r_i_glide_ligand_efficiency>
-0.145583

> <r_i_glide_ligand_efficiency_ln>
-1.06844

> <r_i_glide_ligand_efficiency_sa>
-0.466963

> <r_i_glide_lipo>
-2.40524

> <r_i_glide_metal>
0

> <r_i_glide_rewards>
-0.174995

> <s_i_glide_gridfile>
wee1_glide-grid

> <s_m_Source_File>
wee1_decoys_glide_SP.sdf

> <s_m_Source_Path>
/Users/zhangxujun/Desktop

> <s_m_entry_id>
6077

> <s_m_entry_name>
wee1_decoys_glide_SP.5802

> <s_m_subgroup_title>
wee1_decoys_glide_SP

> <s_m_subgroupid>
wee1_decoys_glide_SP


$$$$
