ZINC39426537_2558
                    3D
 Schrodinger Suite 2024-2.
 33 34  0  0  1  0            999 V2000
    4.1052   52.6194   29.5440 C   0  0  0  0  0  0
    4.1228   54.1126   29.1388 C   0  0  1  0  0  0
    4.7698   54.6008   29.8695 H   0  0  0  0  0  0
    4.7997   54.3348   27.7748 C   0  0  0  0  0  0
    5.8873   54.9013   27.7373 O   0  0  0  0  0  0
    4.1278   53.9063   26.6908 N   0  0  0  0  0  0
    4.4235   54.0861   25.3234 C   0  0  0  0  0  0
    3.3176   54.0969   24.4650 C   0  0  0  0  0  0
    3.4858   54.0991   23.0804 C   0  0  0  0  0  0
    4.7734   54.1091   22.5193 C   0  0  0  0  0  0
    5.8822   54.1123   23.3791 C   0  0  0  0  0  0
    5.7177   54.0951   24.7645 C   0  0  0  0  0  0
    6.8345   53.9895   25.5217 F   0  0  0  0  0  0
    7.1394   54.0888   22.8797 F   0  0  0  0  0  0
    4.9914   54.0886   21.0018 C   0  0  0  0  0  0
    3.9148   54.4497   20.3085 F   0  0  0  0  0  0
    5.3260   52.8519   20.6373 F   0  0  0  0  0  0
    5.9786   54.9160   20.6552 F   0  0  0  0  0  0
    2.3814   54.0707   22.3004 F   0  0  0  0  0  0
    2.0616   54.0628   24.9737 F   0  0  0  0  0  0
    2.5580   55.0606   29.2816 S   0  0  0  0  0  0
    1.3537   53.7826   29.1814 C   0  0  0  0  0  0
    1.0636   53.0934   28.1019 N   0  0  0  0  0  0
    0.0853   52.1306   28.3251 N   0  0  0  0  0  0
   -0.3434   52.1335   29.5632 C   0  0  0  0  0  0
    0.4179   53.3213   30.5730 S   0  0  0  0  0  0
   -1.2922   51.2988   30.0816 N   0  0  0  0  0  0
    5.1040   52.1838   29.5179 H   0  0  0  0  0  0
    3.7285   52.4988   30.5604 H   0  0  0  0  0  0
    3.4795   52.0175   28.8831 H   0  0  0  0  0  0
    3.2431   53.4517   26.8727 H   0  0  0  0  0  0
   -1.6957   50.5464   29.5401 H   0  0  0  0  0  0
   -1.4789   51.2766   31.0818 H   0  0  0  0  0  0
  1  2  1  0  0  0
  1 28  1  0  0  0
  1 29  1  0  0  0
  1 30  1  0  0  0
  2  3  1  0  0  0
  2  4  1  0  0  0
  2 21  1  0  0  0
  4  5  2  0  0  0
  4  6  1  0  0  0
  6  7  1  0  0  0
  6 31  1  0  0  0
  7 12  2  0  0  0
  7  8  1  0  0  0
  8  9  2  0  0  0
  8 20  1  0  0  0
  9 10  1  0  0  0
  9 19  1  0  0  0
 10 11  2  0  0  0
 10 15  1  0  0  0
 11 12  1  0  0  0
 11 14  1  0  0  0
 12 13  1  0  0  0
 15 16  1  0  0  0
 15 17  1  0  0  0
 15 18  1  0  0  0
 21 22  1  0  0  0
 22 26  1  0  0  0
 22 23  2  0  0  0
 23 24  1  0  0  0
 24 25  2  0  0  0
 25 26  1  0  0  0
 25 27  1  0  0  0
 27 32  1  0  0  0
 27 33  1  0  0  0
M  END
> <i_i_glide_confnum>
38

> <i_i_glide_lignum>
2559

> <i_i_glide_posenum>
389

> <i_i_glide_rotatable_bonds>
6

> <i_m_Source_File_Index>
5219

> <b_m_subgroup_collapsed>
0

> <r_i_docking_score>
-6.29225

> <r_i_glide_ecoul>
-2.4496

> <r_i_glide_eff_state_penalty>
0

> <r_i_glide_einternal>
11.8569

> <r_i_glide_emodel>
-50.4008

> <r_i_glide_energy>
-41.3613

> <r_i_glide_erotb>
0.560099

> <r_i_glide_esite>
-0.163411

> <r_i_glide_evdw>
-38.9117

> <r_i_glide_gscore>
-6.29225

> <r_i_glide_hbond>
-0.16919

> <r_i_glide_ligand_efficiency>
-0.242009

> <r_i_glide_ligand_efficiency_ln>
-1.47771

> <r_i_glide_ligand_efficiency_sa>
-0.716952

> <r_i_glide_lipo>
-2.43396

> <r_i_glide_metal>
0

> <r_i_glide_rewards>
-1.77276

> <s_i_glide_gridfile>
wee1_glide-grid

> <s_m_Source_File>
wee1_decoys_glide_SP.sdf

> <s_m_Source_Path>
/Users/zhangxujun/Desktop

> <s_m_entry_id>
5494

> <s_m_entry_name>
wee1_decoys_glide_SP.5219

> <s_m_subgroup_title>
wee1_decoys_glide_SP

> <s_m_subgroupid>
wee1_decoys_glide_SP


$$$$
