@<TRIPOS>MOLECULE
ZINC45599653_3237
63   67    1
SMALL
USER_CHARGES


@<TRIPOS>ATOM
      1 C1          1.7002   46.8027   16.6828 C.3       1 UNK         0.0000 
      2 C2          0.3953   47.3932   17.2576 C.3       1 UNK         0.0000 
      3 H3         -0.4001   46.7000   16.9778 H         1 UNK         0.0000 
      4 C4         -0.0118   48.7593   16.6625 C.3       1 UNK         0.0000 
      5 C5          1.0324   49.8625   16.9477 C.3       1 UNK         0.0000 
      6 C6          1.4523   49.8070   18.4195 C.2       1 UNK         0.0000 
      7 C7          1.1676   48.7112   19.2406 C.2       1 UNK         0.0000 
      8 S8          1.7341   48.8967   20.8814 S.3       1 UNK         0.0000 
      9 C9          2.4676   50.4190   20.4712 C.ar      1 UNK         0.0000 
     10 C10         2.2275   50.7944   19.1164 C.ar      1 UNK         0.0000 
     11 C11         2.7931   52.0383   18.7404 C.ar      1 UNK         0.0000 
     12 N12         3.5157   52.7838   19.6142 N.ar      1 UNK         0.0000 
     13 C13         3.6783   52.2790   20.8626 C.ar      1 UNK         0.0000 
     14 N14         3.1704   51.1253   21.3561 N.ar      1 UNK         0.0000 
     15 C15         4.4815   53.1134   21.8368 C.3       1 UNK         0.0000 
     16 S16         3.5046   54.4966   22.4727 S.3       1 UNK         0.0000 
     17 C17         2.9139   53.8755   24.0010 C.ar      1 UNK         0.0000 
     18 N18         1.8012   53.1970   24.1071 N.2       1 UNK         0.0000 
     19 N19         1.6096   52.9257   25.4527 N.2       1 UNK         0.0000 
     20 C20         2.6254   53.4386   26.1116 C.ar      1 UNK         0.0000 
     21 N21         3.4847   54.0965   25.2404 N.pl3     1 UNK         0.0000 
     22 C22         4.6810   54.9007   25.5349 C.3       1 UNK         0.0000 
     23 C23         5.8673   54.0632   26.0659 C.3       1 UNK         0.0000 
     24 C24         6.8232   53.6967   24.9229 C.3       1 UNK         0.0000 
     25 C25         6.6346   54.7804   27.1912 C.3       1 UNK         0.0000 
     26 N26         2.8639   53.2716   27.4561 N.pl3     1 UNK         0.0000 
     27 C27         2.0439   52.2638   28.1638 C.3       1 UNK         0.0000 
     28 C28         2.5813   51.9069   29.5664 C.3       1 UNK         0.0000 
     29 O29         2.8092   53.0631   30.3588 O.3       1 UNK         0.0000 
     30 C30         3.5745   54.0454   29.6821 C.3       1 UNK         0.0000 
     31 C31         2.8707   54.4295   28.3624 C.3       1 UNK         0.0000 
     32 N32         2.6611   52.5594   17.4543 N.pl3     1 UNK         0.0000 
     33 C33         0.3881   47.4743   18.8025 C.3       1 UNK         0.0000 
     34 H34         2.5745   47.3859   16.9749 H         1 UNK         0.0000 
     35 H35         1.8595   45.7829   17.0336 H         1 UNK         0.0000 
     36 H36         1.6749   46.7729   15.5933 H         1 UNK         0.0000 
     37 H37        -0.1288   48.6738   15.5812 H         1 UNK         0.0000 
     38 H38        -0.9812   49.0643   17.0607 H         1 UNK         0.0000 
     39 H39         0.6026   50.8320   16.6958 H         1 UNK         0.0000 
     40 H40         1.9040   49.7312   16.3053 H         1 UNK         0.0000 
     41 H41         5.3696   53.5047   21.3397 H         1 UNK         0.0000 
     42 H42         4.8611   52.4967   22.6442 H         1 UNK         0.0000 
     43 H43         4.9776   55.4385   24.6356 H         1 UNK         0.0000 
     44 H44         4.3958   55.6951   26.2158 H         1 UNK         0.0000 
     45 H45         5.4872   53.1311   26.4902 H         1 UNK         0.0000 
     46 H46         7.4100   54.5503   24.5811 H         1 UNK         0.0000 
     47 H47         7.5044   52.9150   25.2452 H         1 UNK         0.0000 
     48 H48         6.2884   53.3032   24.0637 H         1 UNK         0.0000 
     49 H49         7.1021   55.6963   26.8346 H         1 UNK         0.0000 
     50 H50         5.9776   55.0471   28.0191 H         1 UNK         0.0000 
     51 H51         7.4232   54.1466   27.5985 H         1 UNK         0.0000 
     52 H52         2.0257   51.3433   27.5803 H         1 UNK         0.0000 
     53 H53         1.0060   52.5961   28.2255 H         1 UNK         0.0000 
     54 H54         1.8433   51.2968   30.0809 H         1 UNK         0.0000 
     55 H55         3.5037   51.3320   29.4703 H         1 UNK         0.0000 
     56 H56         3.6869   54.8967   30.3389 H         1 UNK         0.0000 
     57 H57         4.5769   53.6643   29.4743 H         1 UNK         0.0000 
     58 H58         1.8538   54.7824   28.5463 H         1 UNK         0.0000 
     59 H59         3.4025   55.2724   27.9363 H         1 UNK         0.0000 
     60 H60         2.2566   51.9813   16.7325 H         1 UNK         0.0000 
     61 H61         3.1298   53.4258   17.2362 H         1 UNK         0.0000 
     62 H62         0.8199   46.5709   19.2346 H         1 UNK         0.0000 
     63 H63        -0.6389   47.5253   19.1656 H         1 UNK         0.0000 
@<TRIPOS>BOND
     1    1    2 1    
     2    1   34 1    
     3    1   35 1    
     4    1   36 1    
     5    2    3 1    
     6    2   33 1    
     7    2    4 1    
     8    4    5 1    
     9    4   37 1    
    10    4   38 1    
    11    5    6 1    
    12    5   39 1    
    13    5   40 1    
    14    6   10 1    
    15    6    7 2    
    16    7    8 1    
    17    7   33 1    
    18    8    9 1    
    19    9   14 ar   
    20    9   10 ar   
    21   10   11 ar   
    22   11   12 ar   
    23   11   32 1    
    24   12   13 ar   
    25   13   14 ar   
    26   13   15 1    
    27   15   16 1    
    28   15   41 1    
    29   15   42 1    
    30   16   17 1    
    31   17   21 ar   
    32   17   18 ar   
    33   18   19 ar   
    34   19   20 ar   
    35   20   21 ar   
    36   20   26 1    
    37   21   22 1    
    38   22   23 1    
    39   22   43 1    
    40   22   44 1    
    41   23   24 1    
    42   23   25 1    
    43   23   45 1    
    44   24   46 1    
    45   24   47 1    
    46   24   48 1    
    47   25   49 1    
    48   25   50 1    
    49   25   51 1    
    50   26   31 1    
    51   26   27 1    
    52   27   28 1    
    53   27   52 1    
    54   27   53 1    
    55   28   29 1    
    56   28   54 1    
    57   28   55 1    
    58   29   30 1    
    59   30   31 1    
    60   30   56 1    
    61   30   57 1    
    62   31   58 1    
    63   31   59 1    
    64   32   60 1    
    65   32   61 1    
    66   33   62 1    
    67   33   63 1    
@<TRIPOS>SUBSTRUCTURE
     1 UNK         1 GROUP             0       ****    0 ROOT    
