@<TRIPOS>MOLECULE
ZINC33113030_2411
56   59    1
SMALL
USER_CHARGES


@<TRIPOS>ATOM
      1 C1         -2.9466   50.7682   27.7023 C.3       1 UNK         0.0000 
      2 C2         -1.5675   51.3988   27.6554 C.ar      1 UNK         0.0000 
      3 C3         -0.8874   51.6967   28.8365 C.ar      1 UNK         0.0000 
      4 C4          0.3721   52.2890   28.7893 C.ar      1 UNK         0.0000 
      5 C5          0.9759   52.5833   27.5553 C.ar      1 UNK         0.0000 
      6 C6          0.2944   52.2718   26.3628 C.ar      1 UNK         0.0000 
      7 C7         -0.9726   51.6832   26.4263 C.ar      1 UNK         0.0000 
      8 C8          0.8985   52.5684   24.9924 C.3       1 UNK         0.0000 
      9 N9          2.2205   53.2314   27.4485 N.am      1 UNK         0.0000 
     10 C10         3.2259   53.3332   28.3477 C.2       1 UNK         0.0000 
     11 O11         3.2388   52.7328   29.4280 O.2       1 UNK         0.0000 
     12 N12         4.1610   54.2655   28.0172 N.am      1 UNK         0.0000 
     13 C13         5.3368   54.4626   28.8808 C.3       1 UNK         0.0000 
     14 C14         6.4582   53.5562   28.3255 C.3       1 UNK         0.0000 
     15 C15         6.7688   53.8547   26.8410 C.3       1 UNK         0.0000 
     16 C16         5.4796   53.8841   25.9672 C.3       1 UNK         0.0000 
     17 H17         5.0549   52.8961   25.9930 H         1 UNK         0.0000 
     18 C18         4.4011   54.7476   26.6387 C.3       1 UNK         0.0000 
     19 C19         5.7171   54.2855   24.5160 C.2       1 UNK         0.0000 
     20 N20         6.7058   55.0574   24.1457 N.2       1 UNK         0.0000 
     21 N21         6.7529   55.2957   22.7820 N.2       1 UNK         0.0000 
     22 C22         5.7895   54.7225   22.1029 C.2       1 UNK         0.0000 
     23 S23         4.6934   53.8546   23.1663 S.3       1 UNK         0.0000 
     24 C24         5.5044   54.8920   20.6980 C.2       1 UNK         0.0000 
     25 O25         6.0298   55.8215   20.0832 O.2       1 UNK         0.0000 
     26 N26         4.6414   54.0036   20.1568 N.am      1 UNK         0.0000 
     27 C27         4.0514   54.0287   18.8779 C.ar      1 UNK         0.0000 
     28 C28         3.9417   55.1851   18.0863 C.ar      1 UNK         0.0000 
     29 C29         3.3042   55.1259   16.8502 C.ar      1 UNK         0.0000 
     30 C30         2.7773   53.9181   16.4003 C.ar      1 UNK         0.0000 
     31 C31         2.8771   52.7697   17.1794 C.ar      1 UNK         0.0000 
     32 C32         3.5051   52.8283   18.4204 C.ar      1 UNK         0.0000 
     33 F33         2.1604   53.8611   15.1995 F         1 UNK         0.0000 
     34 H34        -3.6577   51.3573   27.1204 H         1 UNK         0.0000 
     35 H35        -2.9116   49.7683   27.2706 H         1 UNK         0.0000 
     36 H36        -3.3268   50.6884   28.7233 H         1 UNK         0.0000 
     37 H37        -1.3305   51.4631   29.7949 H         1 UNK         0.0000 
     38 H38         0.8512   52.5266   29.7263 H         1 UNK         0.0000 
     39 H39        -1.5050   51.4426   25.5178 H         1 UNK         0.0000 
     40 H40         0.2758   52.2027   24.1749 H         1 UNK         0.0000 
     41 H41         1.0387   53.6429   24.8630 H         1 UNK         0.0000 
     42 H42         1.8792   52.0990   24.8979 H         1 UNK         0.0000 
     43 H43         2.3790   53.6748   26.5578 H         1 UNK         0.0000 
     44 H44         5.0990   54.3517   29.9373 H         1 UNK         0.0000 
     45 H45         5.6391   55.5064   28.8015 H         1 UNK         0.0000 
     46 H46         6.1706   52.5107   28.4399 H         1 UNK         0.0000 
     47 H47         7.3625   53.6918   28.9209 H         1 UNK         0.0000 
     48 H48         7.4754   53.1054   26.4812 H         1 UNK         0.0000 
     49 H49         7.2453   54.8359   26.8296 H         1 UNK         0.0000 
     50 H50         4.8535   55.7062   26.7829 H         1 UNK         0.0000 
     51 H51         3.5004   54.9551   26.0612 H         1 UNK         0.0000 
     52 H52         4.3630   53.2268   20.7349 H         1 UNK         0.0000 
     53 H53         4.3197   56.1408   18.4180 H         1 UNK         0.0000 
     54 H54         3.2144   56.0132   16.2412 H         1 UNK         0.0000 
     55 H55         2.4785   51.8323   16.8207 H         1 UNK         0.0000 
     56 H56         3.5843   51.9220   19.0056 H         1 UNK         0.0000 
@<TRIPOS>BOND
     1    1    2 1    
     2    1   34 1    
     3    1   35 1    
     4    1   36 1    
     5    2    7 ar   
     6    2    3 ar   
     7    3    4 ar   
     8    3   37 1    
     9    4    5 ar   
    10    4   38 1    
    11    5    6 ar   
    12    5    9 1    
    13    6    7 ar   
    14    6    8 1    
    15    7   39 1    
    16    8   40 1    
    17    8   41 1    
    18    8   42 1    
    19    9   10 am   BACKBONE|DICT|INTERRES
    20    9   43 1    
    21   10   11 2    
    22   10   12 am   BACKBONE|DICT|INTERRES
    23   12   18 1    
    24   12   13 1    
    25   13   14 1    
    26   13   44 1    
    27   13   45 1    
    28   14   15 1    
    29   14   46 1    
    30   14   47 1    
    31   15   16 1    
    32   15   48 1    
    33   15   49 1    
    34   16   17 1    
    35   16   18 1    
    36   16   19 1    
    37   18   50 1    
    38   18   51 1    
    39   19   23 1    
    40   19   20 2    
    41   20   21 1    
    42   21   22 2    
    43   22   23 1    
    44   22   24 1    
    45   24   25 2    
    46   24   26 am   BACKBONE|DICT|INTERRES
    47   26   27 1    
    48   26   52 1    
    49   27   32 ar   
    50   27   28 ar   
    51   28   29 ar   
    52   28   53 1    
    53   29   30 ar   
    54   29   54 1    
    55   30   31 ar   
    56   30   33 1    
    57   31   32 ar   
    58   31   55 1    
    59   32   56 1    
@<TRIPOS>SUBSTRUCTURE
     1 UNK         1 GROUP             0       ****    0 ROOT    
