@<TRIPOS>MOLECULE
ZINC33249943_1438
60   63    1
SMALL
USER_CHARGES


@<TRIPOS>ATOM
      1 C1          5.4466   52.8204   21.6969 C.3       1 UNK         0.0000 
      2 C2          4.3249   53.8438   21.9207 C.3       1 UNK         0.0000 
      3 N3          3.6316   53.7047   23.2200 N.am      1 UNK         0.0000 
      4 C4          4.3626   54.0958   24.3358 C.2       1 UNK         0.0000 
      5 O5          5.4833   54.6077   24.2741 O.2       1 UNK         0.0000 
      6 C6          3.7027   53.7435   25.5714 C.ar      1 UNK         0.0000 
      7 C7          4.0938   53.6970   26.9085 C.ar      1 UNK         0.0000 
      8 C8          2.9634   53.3092   27.6571 C.ar      1 UNK         0.0000 
      9 N9          1.9238   53.3178   26.8650 N.2       1 UNK         0.0000 
     10 N10         2.3538   53.5649   25.6387 N.pl3     1 UNK         0.0000 
     11 C11         1.4735   53.7469   24.5174 C.3       1 UNK         0.0000 
     12 C12         2.1988   53.1841   23.2542 C.3       1 UNK         0.0000 
     13 C13         1.3302   53.6498   22.0819 C.3       1 UNK         0.0000 
     14 C14         2.0981   51.6236   23.0677 C.2       1 UNK         0.0000 
     15 O15         2.7007   51.0759   22.1412 O.2       1 UNK         0.0000 
     16 N16         1.2747   50.9190   23.8697 N.am      1 UNK         0.0000 
     17 C17         0.9040   49.5148   23.6570 C.3       1 UNK         0.0000 
     18 C18         0.4755   48.8152   24.9666 C.3       1 UNK         0.0000 
     19 C19        -0.9704   48.3356   24.7792 C.3       1 UNK         0.0000 
     20 C20        -1.1611   48.2432   23.2680 C.3       1 UNK         0.0000 
     21 C21        -0.3230   49.4030   22.7277 C.3       1 UNK         0.0000 
     22 C22         2.9366   53.0405   29.0847 C.2       1 UNK         0.0000 
     23 O23         3.9040   53.3335   29.7847 O.2       1 UNK         0.0000 
     24 N24         1.8639   52.4563   29.6712 N.am      1 UNK         0.0000 
     25 C25         0.5271   52.0298   29.2120 C.3       1 UNK         0.0000 
     26 C26        -0.3934   53.1705   28.7677 C.3       1 UNK         0.0000 
     27 C27        -1.2956   52.5506   27.6818 C.3       1 UNK         0.0000 
     28 C28        -0.4991   51.4534   27.0200 C.3       1 UNK         0.0000 
     29 C29         0.4522   50.9546   28.1033 C.3       1 UNK         0.0000 
     30 H30         5.8994   53.0126   20.7246 H         1 UNK         0.0000 
     31 H31         6.2148   52.8834   22.4722 H         1 UNK         0.0000 
     32 H32         5.0729   51.7979   21.6752 H         1 UNK         0.0000 
     33 H33         3.6363   53.7610   21.0848 H         1 UNK         0.0000 
     34 H34         4.7313   54.8535   21.8344 H         1 UNK         0.0000 
     35 H35         5.0944   53.8512   27.2884 H         1 UNK         0.0000 
     36 H36         0.4968   53.3031   24.6997 H         1 UNK         0.0000 
     37 H37         1.3088   54.8193   24.4060 H         1 UNK         0.0000 
     38 H38         0.3047   53.2967   22.1860 H         1 UNK         0.0000 
     39 H39         1.3192   54.7339   22.0818 H         1 UNK         0.0000 
     40 H40         1.6612   53.2965   21.1033 H         1 UNK         0.0000 
     41 H41         0.7772   51.3993   24.6011 H         1 UNK         0.0000 
     42 H42         1.6946   48.9059   23.2101 H         1 UNK         0.0000 
     43 H43         1.1036   47.9524   25.1691 H         1 UNK         0.0000 
     44 H44         0.5785   49.4393   25.8456 H         1 UNK         0.0000 
     45 H45        -1.1575   47.3874   25.2863 H         1 UNK         0.0000 
     46 H46        -1.6711   49.0611   25.1921 H         1 UNK         0.0000 
     47 H47        -0.7882   47.2905   22.8935 H         1 UNK         0.0000 
     48 H48        -2.2106   48.3193   22.9792 H         1 UNK         0.0000 
     49 H49        -0.9256   50.3123   22.7784 H         1 UNK         0.0000 
     50 H50        -0.0395   49.2860   21.6805 H         1 UNK         0.0000 
     51 H51         1.9848   52.3429   30.6658 H         1 UNK         0.0000 
     52 H52         0.0043   51.5812   30.0607 H         1 UNK         0.0000 
     53 H53         0.1441   54.0222   28.3588 H         1 UNK         0.0000 
     54 H54        -0.8952   53.5894   29.6369 H         1 UNK         0.0000 
     55 H55        -1.6523   53.2792   26.9507 H         1 UNK         0.0000 
     56 H56        -2.1720   52.0967   28.1491 H         1 UNK         0.0000 
     57 H57         0.0344   51.8080   26.1496 H         1 UNK         0.0000 
     58 H58        -1.1692   50.6674   26.6724 H         1 UNK         0.0000 
     59 H59        -0.0956   50.0971   28.4755 H         1 UNK         0.0000 
     60 H60         1.4196   50.6382   27.7106 H         1 UNK         0.0000 
@<TRIPOS>BOND
     1    1    2 1    
     2    1   30 1    
     3    1   31 1    
     4    1   32 1    
     5    2    3 1    
     6    2   33 1    
     7    2   34 1    
     8    3   12 1    
     9    3    4 am   BACKBONE|DICT|INTERRES
    10    4    5 2    
    11    4    6 1    
    12    6   10 ar   
    13    6    7 ar   
    14    7    8 ar   
    15    7   35 1    
    16    8    9 ar   
    17    8   22 1    
    18    9   10 ar   
    19   10   11 1    
    20   11   12 1    
    21   11   36 1    
    22   11   37 1    
    23   12   13 1    
    24   12   14 1    
    25   13   38 1    
    26   13   39 1    
    27   13   40 1    
    28   14   15 2    
    29   14   16 am   BACKBONE|DICT|INTERRES
    30   16   17 1    
    31   16   41 1    
    32   17   21 1    
    33   17   18 1    
    34   17   42 1    
    35   18   19 1    
    36   18   43 1    
    37   18   44 1    
    38   19   20 1    
    39   19   45 1    
    40   19   46 1    
    41   20   21 1    
    42   20   47 1    
    43   20   48 1    
    44   21   49 1    
    45   21   50 1    
    46   22   23 2    
    47   22   24 am   BACKBONE|DICT|INTERRES
    48   24   25 1    
    49   24   51 1    
    50   25   29 1    
    51   25   26 1    
    52   25   52 1    
    53   26   27 1    
    54   26   53 1    
    55   26   54 1    
    56   27   28 1    
    57   27   55 1    
    58   27   56 1    
    59   28   29 1    
    60   28   57 1    
    61   28   58 1    
    62   29   59 1    
    63   29   60 1    
@<TRIPOS>SUBSTRUCTURE
     1 UNK         1 GROUP             0       ****    0 ROOT    
