@<TRIPOS>MOLECULE
ZINC67014427_4611
59   61    1
SMALL
USER_CHARGES


@<TRIPOS>ATOM
      1 C1          5.8447   53.7405   28.5919 C.3       1 UNK         0.0000 
      2 C2          4.5867   53.6291   27.7189 C.3       1 UNK         0.0000 
      3 H3          4.6227   52.6298   27.2814 H         1 UNK         0.0000 
      4 C4          4.6692   54.6239   26.5289 C.3       1 UNK         0.0000 
      5 N5          4.0785   54.1599   25.2597 N.am      1 UNK         0.0000 
      6 C6          2.6841   53.6963   25.3638 C.3       1 UNK         0.0000 
      7 C7          4.8103   54.1989   24.1098 C.2       1 UNK         0.0000 
      8 O8          5.9792   54.5928   24.0829 O.2       1 UNK         0.0000 
      9 N9          4.1505   53.8116   22.9978 N.am      1 UNK         0.0000 
     10 C10         4.5734   53.8447   21.6532 C.ar      1 UNK         0.0000 
     11 C11         5.5022   54.7933   21.1989 C.ar      1 UNK         0.0000 
     12 C12         5.9310   54.8186   19.8689 C.ar      1 UNK         0.0000 
     13 C13         5.4092   53.8672   18.9832 C.ar      1 UNK         0.0000 
     14 C14         4.4918   52.9175   19.4242 C.ar      1 UNK         0.0000 
     15 C15         4.0747   52.8711   20.7610 C.ar      1 UNK         0.0000 
     16 N16         3.1418   51.9191   21.1748 N.pl3     1 UNK         0.0000 
     17 C17         3.1026   50.5878   20.5486 C.3       1 UNK         0.0000 
     18 C18         2.4554   49.5400   21.4777 C.3       1 UNK         0.0000 
     19 C19         1.0352   49.9506   21.8866 C.3       1 UNK         0.0000 
     20 C20         1.0320   51.3967   22.4050 C.3       1 UNK         0.0000 
     21 C21         1.7629   52.3644   21.4453 C.3       1 UNK         0.0000 
     22 C22         6.9287   55.8659   19.4323 C.2       1 UNK         0.0000 
     23 O23         7.1045   56.8962   20.0803 O.2       1 UNK         0.0000 
     24 N24         7.6353   55.6172   18.3320 N.am      1 UNK         0.0000 
     25 C25         3.3079   53.6929   28.5784 C.ar      1 UNK         0.0000 
     26 C26         2.5110   54.8461   28.6694 C.ar      1 UNK         0.0000 
     27 C27         1.3657   54.8550   29.4638 C.ar      1 UNK         0.0000 
     28 C28         1.0142   53.7137   30.1781 C.ar      1 UNK         0.0000 
     29 C29         1.7974   52.5669   30.1047 C.ar      1 UNK         0.0000 
     30 C30         2.9396   52.5564   29.3078 C.ar      1 UNK         0.0000 
     31 H31         5.8966   52.8990   29.2779 H         1 UNK         0.0000 
     32 H32         6.7561   53.7085   27.9932 H         1 UNK         0.0000 
     33 H33         5.8568   54.6676   29.1670 H         1 UNK         0.0000 
     34 H34         4.2483   55.5935   26.7731 H         1 UNK         0.0000 
     35 H35         5.7241   54.8544   26.3743 H         1 UNK         0.0000 
     36 H36         2.1783   53.5781   24.4064 H         1 UNK         0.0000 
     37 H37         2.6487   52.7337   25.8761 H         1 UNK         0.0000 
     38 H38         2.0925   54.3985   25.9486 H         1 UNK         0.0000 
     39 H39         3.2765   53.3267   23.1392 H         1 UNK         0.0000 
     40 H40         5.9005   55.5291   21.8814 H         1 UNK         0.0000 
     41 H41         5.6933   53.8517   17.9408 H         1 UNK         0.0000 
     42 H42         4.1119   52.2032   18.7083 H         1 UNK         0.0000 
     43 H43         2.5801   50.6416   19.5915 H         1 UNK         0.0000 
     44 H44         4.1226   50.2797   20.3306 H         1 UNK         0.0000 
     45 H45         2.4160   48.5785   20.9641 H         1 UNK         0.0000 
     46 H46         3.0946   49.3811   22.3486 H         1 UNK         0.0000 
     47 H47         0.6448   49.2703   22.6434 H         1 UNK         0.0000 
     48 H48         0.3735   49.8715   21.0237 H         1 UNK         0.0000 
     49 H49         1.4840   51.4505   23.3963 H         1 UNK         0.0000 
     50 H50        -0.0000   51.7301   22.5384 H         1 UNK         0.0000 
     51 H51         1.7682   53.3571   21.8971 H         1 UNK         0.0000 
     52 H52         1.2236   52.4604   20.4995 H         1 UNK         0.0000 
     53 H53         7.5296   54.7430   17.8413 H         1 UNK         0.0000 
     54 H54         8.3208   56.2907   18.0269 H         1 UNK         0.0000 
     55 H55         2.7491   55.7493   28.1339 H         1 UNK         0.0000 
     56 H56         0.7485   55.7402   29.5296 H         1 UNK         0.0000 
     57 H57         0.1285   53.7188   30.7976 H         1 UNK         0.0000 
     58 H58         1.5093   51.6957   30.6703 H         1 UNK         0.0000 
     59 H59         3.5435   51.6623   29.2561 H         1 UNK         0.0000 
@<TRIPOS>BOND
     1    1    2 1    
     2    1   31 1    
     3    1   32 1    
     4    1   33 1    
     5    2    3 1    
     6    2    4 1    
     7    2   25 1    
     8    4    5 1    
     9    4   34 1    
    10    4   35 1    
    11    5    6 1    
    12    5    7 am   BACKBONE|DICT|INTERRES
    13    6   36 1    
    14    6   37 1    
    15    6   38 1    
    16    7    8 2    
    17    7    9 am   BACKBONE|DICT|INTERRES
    18    9   10 1    
    19    9   39 1    
    20   10   15 ar   
    21   10   11 ar   
    22   11   12 ar   
    23   11   40 1    
    24   12   13 ar   
    25   12   22 1    
    26   13   14 ar   
    27   13   41 1    
    28   14   15 ar   
    29   14   42 1    
    30   15   16 1    
    31   16   21 1    
    32   16   17 1    
    33   17   18 1    
    34   17   43 1    
    35   17   44 1    
    36   18   19 1    
    37   18   45 1    
    38   18   46 1    
    39   19   20 1    
    40   19   47 1    
    41   19   48 1    
    42   20   21 1    
    43   20   49 1    
    44   20   50 1    
    45   21   51 1    
    46   21   52 1    
    47   22   23 2    
    48   22   24 am   BACKBONE|DICT|INTERRES
    49   24   53 1    
    50   24   54 1    
    51   25   30 ar   
    52   25   26 ar   
    53   26   27 ar   
    54   26   55 1    
    55   27   28 ar   
    56   27   56 1    
    57   28   29 ar   
    58   28   57 1    
    59   29   30 ar   
    60   29   58 1    
    61   30   59 1    
@<TRIPOS>SUBSTRUCTURE
     1 UNK         1 GROUP             0       ****    0 ROOT    
