ZINC57328249_1909
                    3D
 Schrodinger Suite 2024-2.
 22 23  0  0  1  0            999 V2000
    2.5395   53.3338   27.4635 C   0  0  0  0  0  0
    3.5162   53.2980   28.4592 C   0  0  0  0  0  0
    4.8343   53.6630   28.1908 C   0  0  0  0  0  0
    5.1551   54.0577   26.8864 C   0  0  0  0  0  0
    4.1752   54.0920   25.8544 C   0  0  0  0  0  0
    2.8463   53.7137   26.1545 C   0  0  0  0  0  0
    1.8530   53.7902   25.2030 O   0  0  0  0  0  0
    1.8797   52.8212   24.1601 C   0  0  0  0  0  0
    2.5585   53.2589   23.1004 F   0  0  0  0  0  0
    0.6268   52.5569   23.7935 F   0  0  0  0  0  0
    4.6487   54.4966   24.6420 N   0  0  0  0  0  0
    5.9285   54.7425   24.6862 C   0  0  0  0  0  0
    6.7043   54.5566   26.2353 S   0  0  0  0  0  0
    6.7044   55.1591   23.6251 N   0  0  0  0  0  0
    6.3042   54.8963   22.2592 N   0  0  0  0  0  0
    3.0502   52.7297   30.2156 Br  0  0  0  0  0  0
    1.5238   53.0561   27.7059 H   0  0  0  0  0  0
    5.5876   53.6328   28.9641 H   0  0  0  0  0  0
    2.3042   51.8671   24.4753 H   0  0  0  0  0  0
    7.7131   55.0340   23.6820 H   0  0  0  0  0  0
    5.6217   54.1481   22.2850 H   0  0  0  0  0  0
    5.8579   55.7297   21.9004 H   0  0  0  0  0  0
  1  6  2  0  0  0
  1  2  1  0  0  0
  1 17  1  0  0  0
  2  3  2  0  0  0
  2 16  1  0  0  0
  3  4  1  0  0  0
  3 18  1  0  0  0
  4 13  1  0  0  0
  4  5  2  0  0  0
  5  6  1  0  0  0
  5 11  1  0  0  0
  6  7  1  0  0  0
  7  8  1  0  0  0
  8  9  1  0  0  0
  8 10  1  0  0  0
  8 19  1  0  0  0
 11 12  2  0  0  0
 12 13  1  0  0  0
 12 14  1  0  0  0
 14 15  1  0  0  0
 14 20  1  0  0  0
 15 21  1  0  0  0
 15 22  1  0  0  0
M  END
> <i_i_glide_confnum>
4

> <i_i_glide_lignum>
1910

> <i_i_glide_posenum>
349

> <i_i_glide_rotatable_bonds>
3

> <i_m_Source_File_Index>
2140

> <b_m_subgroup_collapsed>
0

> <r_i_docking_score>
-6.16695

> <r_i_glide_ecoul>
-2.88201

> <r_i_glide_eff_state_penalty>
0

> <r_i_glide_einternal>
4.69912

> <r_i_glide_emodel>
-43.6945

> <r_i_glide_energy>
-33.4243

> <r_i_glide_erotb>
0.192631

> <r_i_glide_esite>
0

> <r_i_glide_evdw>
-30.5423

> <r_i_glide_gscore>
-6.16695

> <r_i_glide_hbond>
-0.32

> <r_i_glide_ligand_efficiency>
-0.385434

> <r_i_glide_ligand_efficiency_ln>
-1.63467

> <r_i_glide_ligand_efficiency_sa>
-0.971233

> <r_i_glide_lipo>
-2.29898

> <r_i_glide_metal>
0

> <r_i_glide_rewards>
-1.78118

> <s_i_glide_gridfile>
wee1_glide-grid

> <s_m_Source_File>
wee1_decoys_glide_SP.sdf

> <s_m_Source_Path>
/Users/zhangxujun/Desktop

> <s_m_entry_id>
2415

> <s_m_entry_name>
wee1_decoys_glide_SP.2140

> <s_m_subgroup_title>
wee1_decoys_glide_SP

> <s_m_subgroupid>
wee1_decoys_glide_SP


$$$$
