@<TRIPOS>MOLECULE
ZINC14649024_3715
48   49    1
SMALL
USER_CHARGES


@<TRIPOS>ATOM
      1 C1          5.6590   54.5569   27.4335 C.3       1 UNK         0.0000 
      2 C2          4.8638   54.3777   26.1447 C.ar      1 UNK         0.0000 
      3 C3          3.5005   54.0929   26.2377 C.ar      1 UNK         0.0000 
      4 C4          2.7368   53.9137   25.0892 C.ar      1 UNK         0.0000 
      5 C5          3.3257   54.0346   23.8343 C.ar      1 UNK         0.0000 
      6 C6          4.6944   54.3240   23.7099 C.ar      1 UNK         0.0000 
      7 C7          5.4636   54.4970   24.8759 C.ar      1 UNK         0.0000 
      8 C8          6.9545   54.7926   24.7548 C.3       1 UNK         0.0000 
      9 O9          5.3331   54.4833   22.4873 O.3       1 UNK         0.0000 
     10 C10         4.6233   54.3326   21.2501 C.3       1 UNK         0.0000 
     11 C11         4.4193   52.8510   20.8791 C.2       1 UNK         0.0000 
     12 O12         5.1038   51.9721   21.4094 O.2       1 UNK         0.0000 
     13 N13         3.4595   52.6162   19.9593 N.am      1 UNK         0.0000 
     14 N14         3.1047   51.3003   19.6161 N.pl3     1 UNK         0.0000 
     15 C15         2.1504   50.5421   20.2453 C.2       1 UNK         0.0000 
     16 S16         1.3984   51.0062   21.6880 S.2       1 UNK         0.0000 
     17 N17         1.9030   49.3931   19.5300 N.am      1 UNK         0.0000 
     18 C18         0.9466   48.4277   19.6413 C.2       1 UNK         0.0000 
     19 O19         0.0479   48.4164   20.4848 O.2       1 UNK         0.0000 
     20 C20         1.0183   47.2883   18.6412 C.ar      1 UNK         0.0000 
     21 C21         1.7601   47.3830   17.4536 C.ar      1 UNK         0.0000 
     22 C22         1.8059   46.3232   16.5517 C.ar      1 UNK         0.0000 
     23 C23         1.1045   45.1358   16.8051 C.ar      1 UNK         0.0000 
     24 C24         0.3537   45.0348   17.9810 C.ar      1 UNK         0.0000 
     25 C25         0.3065   46.1014   18.8806 C.ar      1 UNK         0.0000 
     26 I26        -0.6939   43.2788   18.4482 I         1 UNK         0.0000 
     27 O27         1.1394   44.0508   15.9528 O.3       1 UNK         0.0000 
     28 C28         1.2416   44.3072   14.5559 C.3       1 UNK         0.0000 
     29 H29         5.0096   54.7082   28.2969 H         1 UNK         0.0000 
     30 H30         6.2889   53.6850   27.6160 H         1 UNK         0.0000 
     31 H31         6.3043   55.4336   27.3737 H         1 UNK         0.0000 
     32 H32         3.0280   53.9941   27.2051 H         1 UNK         0.0000 
     33 H33         1.6846   53.6834   25.1714 H         1 UNK         0.0000 
     34 H34         2.6981   53.8908   22.9685 H         1 UNK         0.0000 
     35 H35         7.3768   54.3998   23.8289 H         1 UNK         0.0000 
     36 H36         7.5044   54.3023   25.5553 H         1 UNK         0.0000 
     37 H37         7.1408   55.8670   24.8033 H         1 UNK         0.0000 
     38 H38         3.6843   54.8858   21.2558 H         1 UNK         0.0000 
     39 H39         5.2382   54.7887   20.4723 H         1 UNK         0.0000 
     40 H40         2.8519   53.3173   19.5575 H         1 UNK         0.0000 
     41 H41         3.7558   50.8973   18.9464 H         1 UNK         0.0000 
     42 H42         2.5582   49.2256   18.7805 H         1 UNK         0.0000 
     43 H43         2.3043   48.2818   17.2003 H         1 UNK         0.0000 
     44 H44         2.4036   46.4331   15.6601 H         1 UNK         0.0000 
     45 H45        -0.2848   45.9932   19.7807 H         1 UNK         0.0000 
     46 H46         1.0191   43.3937   14.0063 H         1 UNK         0.0000 
     47 H47         0.5359   45.0720   14.2256 H         1 UNK         0.0000 
     48 H48         2.2517   44.6153   14.2807 H         1 UNK         0.0000 
@<TRIPOS>BOND
     1    1    2 1    
     2    1   29 1    
     3    1   30 1    
     4    1   31 1    
     5    2    7 ar   
     6    2    3 ar   
     7    3    4 ar   
     8    3   32 1    
     9    4    5 ar   
    10    4   33 1    
    11    5    6 ar   
    12    5   34 1    
    13    6    7 ar   
    14    6    9 1    
    15    7    8 1    
    16    8   35 1    
    17    8   36 1    
    18    8   37 1    
    19    9   10 1    
    20   10   11 1    
    21   10   38 1    
    22   10   39 1    
    23   11   12 2    
    24   11   13 am   BACKBONE|DICT|INTERRES
    25   13   14 1    
    26   13   40 1    
    27   14   15 1    
    28   14   41 1    
    29   15   16 2    
    30   15   17 am   BACKBONE|DICT|INTERRES
    31   17   18 am   BACKBONE|DICT|INTERRES
    32   17   42 1    
    33   18   19 2    
    34   18   20 1    
    35   20   25 ar   
    36   20   21 ar   
    37   21   22 ar   
    38   21   43 1    
    39   22   23 ar   
    40   22   44 1    
    41   23   24 ar   
    42   23   27 1    
    43   24   25 ar   
    44   24   26 1    
    45   25   45 1    
    46   27   28 1    
    47   28   46 1    
    48   28   47 1    
    49   28   48 1    
@<TRIPOS>SUBSTRUCTURE
     1 UNK         1 GROUP             0       ****    0 ROOT    
