ZINC38511483_5449
                    3D
 Schrodinger Suite 2024-2.
 61 65  0  0  1  0            999 V2000
    3.8915   52.9838   12.3596 C   0  0  0  0  0  0
    4.5415   52.9763   13.7597 N   0  3  0  0  0  0
    4.8487   54.4122   14.2251 C   0  0  0  0  0  0
    5.5204   54.3562   15.6122 C   0  0  0  0  0  0
    4.7574   53.6189   16.6373 N   0  0  0  0  0  0
    4.3045   52.2976   16.1571 C   0  0  0  0  0  0
    3.6122   52.2982   14.7828 C   0  0  0  0  0  0
    4.9712   53.8563   17.9744 C   0  0  0  0  0  0
    5.9200   54.6181   18.4547 N   0  0  0  0  0  0
    5.9038   54.6438   19.8127 C   0  0  0  0  0  0
    6.8247   55.3341   20.6108 C   0  0  0  0  0  0
    6.7043   55.2413   21.9995 C   0  0  0  0  0  0
    5.6724   54.4967   22.6042 C   0  0  0  0  0  0
    4.7427   53.8152   21.8130 C   0  0  0  0  0  0
    4.8722   53.8870   20.4214 C   0  0  0  0  0  0
    3.9043   53.1318   19.1692 S   0  0  0  0  0  0
    5.4702   54.3808   23.9952 N   0  0  0  0  0  0
    6.1363   54.9579   25.0185 C   0  0  0  0  0  0
    7.1044   55.6967   24.8832 O   0  0  0  0  0  0
    5.6537   54.6963   26.4570 C   0  0  2  0  0  0
    5.5773   55.6960   26.8746 H   0  0  0  0  0  0
    6.7513   53.9432   27.2453 C   0  0  0  0  0  0
    6.2865   53.7999   28.7069 C   0  0  0  0  0  0
    4.9093   53.1056   28.8146 C   0  0  0  0  0  0
    3.9291   53.8524   27.9892 N   0  0  0  0  0  0
    4.2830   53.9915   26.5570 C   0  0  0  0  0  0
    2.2269   53.9329   28.4839 S   0  0  0  0  0  0
    1.7035   55.2414   28.0821 O   0  0  0  0  0  0
    2.1023   53.4552   29.8668 O   0  0  0  0  0  0
    1.4198   52.7156   27.4037 C   0  0  0  0  0  0
    0.6759   51.6243   27.8367 C   0  0  0  0  0  0
    0.0479   50.9501   26.7824 C   0  0  0  0  0  0
    0.3159   51.5069   25.5435 C   0  0  0  0  0  0
    1.3346   52.8967   25.6729 S   0  0  0  0  0  0
    2.9570   53.5461   12.4141 H   0  0  0  0  0  0
    4.5978   53.4531   11.6726 H   0  0  0  0  0  0
    3.7139   51.9448   12.0753 H   0  0  0  0  0  0
    5.5397   54.8295   13.4897 H   0  0  0  0  0  0
    3.9157   54.9810   14.2296 H   0  0  0  0  0  0
    5.7488   55.3671   15.9547 H   0  0  0  0  0  0
    6.4737   53.8299   15.5323 H   0  0  0  0  0  0
    5.2149   51.6995   16.0817 H   0  0  0  0  0  0
    3.6743   51.7819   16.8822 H   0  0  0  0  0  0
    3.4777   51.2700   14.4391 H   0  0  0  0  0  0
    2.6553   52.8243   14.7911 H   0  0  0  0  0  0
    7.6290   55.8966   20.1611 H   0  0  0  0  0  0
    7.4475   55.7566   22.5848 H   0  0  0  0  0  0
    3.9409   53.2399   22.2527 H   0  0  0  0  0  0
    4.6973   53.7919   24.2620 H   0  0  0  0  0  0
    7.6902   54.4968   27.2792 H   0  0  0  0  0  0
    6.9000   52.9309   26.8648 H   0  0  0  0  0  0
    6.2023   54.7867   29.1618 H   0  0  0  0  0  0
    7.0584   53.2967   29.2804 H   0  0  0  0  0  0
    4.5616   53.0461   29.8453 H   0  0  0  0  0  0
    4.9994   52.0970   28.4142 H   0  0  0  0  0  0
    4.3639   52.9758   26.1669 H   0  0  0  0  0  0
    3.4984   54.5694   26.0676 H   0  0  0  0  0  0
    0.5621   51.3438   28.8745 H   0  0  0  0  0  0
   -0.5944   50.0952   26.9083 H   0  0  0  0  0  0
   -0.0431   51.1784   24.5794 H   0  0  0  0  0  0
    5.4096   52.4563   13.7235 H   0  0  0  0  0  0
  1  2  1  0  0  0
  1 35  1  0  0  0
  1 36  1  0  0  0
  1 37  1  0  0  0
  2  7  1  0  0  0
  2  3  1  0  0  0
  2 61  1  0  0  0
  3  4  1  0  0  0
  3 38  1  0  0  0
  3 39  1  0  0  0
  4  5  1  0  0  0
  4 40  1  0  0  0
  4 41  1  0  0  0
  5  6  1  0  0  0
  5  8  1  0  0  0
  6  7  1  0  0  0
  6 42  1  0  0  0
  6 43  1  0  0  0
  7 44  1  0  0  0
  7 45  1  0  0  0
  8 16  1  0  0  0
  8  9  2  0  0  0
  9 10  1  0  0  0
 10 15  2  0  0  0
 10 11  1  0  0  0
 11 12  2  0  0  0
 11 46  1  0  0  0
 12 13  1  0  0  0
 12 47  1  0  0  0
 13 14  2  0  0  0
 13 17  1  0  0  0
 14 15  1  0  0  0
 14 48  1  0  0  0
 15 16  1  0  0  0
 17 18  1  0  0  0
 17 49  1  0  0  0
 18 19  2  0  0  0
 18 20  1  0  0  0
 20 21  1  0  0  0
 20 26  1  0  0  0
 20 22  1  0  0  0
 22 23  1  0  0  0
 22 50  1  0  0  0
 22 51  1  0  0  0
 23 24  1  0  0  0
 23 52  1  0  0  0
 23 53  1  0  0  0
 24 25  1  0  0  0
 24 54  1  0  0  0
 24 55  1  0  0  0
 25 26  1  0  0  0
 25 27  1  0  0  0
 26 56  1  0  0  0
 26 57  1  0  0  0
 27 28  2  0  0  0
 27 29  2  0  0  0
 27 30  1  0  0  0
 30 34  1  0  0  0
 30 31  2  0  0  0
 31 32  1  0  0  0
 31 58  1  0  0  0
 32 33  2  0  0  0
 32 59  1  0  0  0
 33 34  1  0  0  0
 33 60  1  0  0  0
M  CHG  1   2   1
M  END
> <i_i_glide_confnum>
110

> <i_i_glide_lignum>
5450

> <i_i_glide_posenum>
46

> <i_i_glide_rotatable_bonds>
6

> <i_m_Source_File_Index>
2901

> <b_m_subgroup_collapsed>
0

> <r_i_docking_score>
-5.61615

> <r_i_glide_ecoul>
-6.33123

> <r_i_glide_eff_state_penalty>
0

> <r_i_glide_einternal>
3.01547

> <r_i_glide_emodel>
-68.4992

> <r_i_glide_energy>
-51.6295

> <r_i_glide_erotb>
0.478203

> <r_i_glide_esite>
-0.0281364

> <r_i_glide_evdw>
-45.2983

> <r_i_glide_gscore>
-5.61615

> <r_i_glide_hbond>
-0.32

> <r_i_glide_ligand_efficiency>
-0.170186

> <r_i_glide_ligand_efficiency_ln>
-1.249

> <r_i_glide_ligand_efficiency_sa>
-0.545879

> <r_i_glide_lipo>
-2.47136

> <r_i_glide_metal>
0

> <r_i_glide_rewards>
-0.0602638

> <s_i_glide_gridfile>
wee1_glide-grid

> <s_m_Source_File>
wee1_decoys_glide_SP.sdf

> <s_m_Source_Path>
/Users/zhangxujun/Desktop

> <s_m_entry_id>
3176

> <s_m_entry_name>
wee1_decoys_glide_SP.2901

> <s_m_subgroup_title>
wee1_decoys_glide_SP

> <s_m_subgroupid>
wee1_decoys_glide_SP


$$$$
