@<TRIPOS>MOLECULE
ZINC15707188_5011
57   61    1
SMALL
USER_CHARGES


@<TRIPOS>ATOM
      1 C1          1.4827   54.3227   29.6835 C.3       1 UNK         0.0000 
      2 C2          2.3314   53.1217   29.2403 C.3       1 UNK         0.0000 
      3 O3          2.8535   53.3198   27.9299 O.3       1 UNK         0.0000 
      4 C4          3.9986   54.0216   27.7093 C.2       1 UNK         0.0000 
      5 O5          4.6916   54.4955   28.6147 O.2       1 UNK         0.0000 
      6 C6          4.3508   54.1267   26.2540 C.ar      1 UNK         0.0000 
      7 C7          5.5979   54.6505   25.8844 C.ar      1 UNK         0.0000 
      8 C8          5.9534   54.7525   24.5413 C.ar      1 UNK         0.0000 
      9 C9          5.0691   54.3257   23.5495 C.ar      1 UNK         0.0000 
     10 C10         3.8099   53.8278   23.9070 C.ar      1 UNK         0.0000 
     11 C11         3.4571   53.7233   25.2492 C.ar      1 UNK         0.0000 
     12 N12         5.4674   54.4967   22.2119 N.am      1 UNK         0.0000 
     13 C13         5.1044   53.7645   21.1341 C.2       1 UNK         0.0000 
     14 O14         4.5146   52.6874   21.2534 O.2       1 UNK         0.0000 
     15 N15         5.3742   54.3255   19.9138 N.am      1 UNK         0.0000 
     16 C16         5.2666   53.4698   18.6971 C.3       1 UNK         0.0000 
     17 C17         6.6536   53.3887   18.0818 C.ar      1 UNK         0.0000 
     18 C18         7.7187   54.2068   18.4303 C.ar      1 UNK         0.0000 
     19 N19         8.7945   53.8536   17.6328 N.pl3     1 UNK         0.0000 
     20 H20         9.7104   54.2812   17.6618 H         1 UNK         0.0000 
     21 C21         8.4248   52.7811   16.8445 C.ar      1 UNK         0.0000 
     22 N22         7.1045   52.4967   17.1287 N.pl3     1 UNK         0.0000 
     23 C23         7.6218   55.3153   19.4626 C.3       1 UNK         0.0000 
     24 C24         6.1037   55.6283   19.7089 C.3       1 UNK         0.0000 
     25 H25         6.0355   56.2406   20.6071 H         1 UNK         0.0000 
     26 C26         5.5041   56.4906   18.5979 C.2       1 UNK         0.0000 
     27 N27         4.3077   56.4207   18.0819 N.2       1 UNK         0.0000 
     28 C28         4.3100   57.4020   17.2018 C.2       1 UNK         0.0000 
     29 N29         5.4308   58.0951   17.1274 N.2       1 UNK         0.0000 
     30 O30         6.2522   57.4939   18.0792 O.3       1 UNK         0.0000 
     31 C31         3.0967   57.7175   16.3734 C.ar      1 UNK         0.0000 
     32 C32         3.0372   58.8968   15.6207 C.ar      1 UNK         0.0000 
     33 C33         1.8997   59.2095   14.8820 C.ar      1 UNK         0.0000 
     34 C34         0.8119   58.3404   14.8868 C.ar      1 UNK         0.0000 
     35 C35         0.8572   57.1588   15.6217 C.ar      1 UNK         0.0000 
     36 C36         1.9952   56.8488   16.3613 C.ar      1 UNK         0.0000 
     37 Cl37       -0.6049   58.7327   13.9828 Cl        1 UNK         0.0000 
     38 H38         2.0720   55.2393   29.7218 H         1 UNK         0.0000 
     39 H39         0.6523   54.4831   28.9955 H         1 UNK         0.0000 
     40 H40         1.0608   54.1555   30.6746 H         1 UNK         0.0000 
     41 H41         3.1310   52.9209   29.9559 H         1 UNK         0.0000 
     42 H42         1.7050   52.2292   29.2194 H         1 UNK         0.0000 
     43 H43         6.3029   54.9769   26.6367 H         1 UNK         0.0000 
     44 H44         6.9210   55.1565   24.2785 H         1 UNK         0.0000 
     45 H45         3.0966   53.5250   23.1545 H         1 UNK         0.0000 
     46 H46         2.4812   53.3258   25.4905 H         1 UNK         0.0000 
     47 H47         6.1034   55.2612   22.0533 H         1 UNK         0.0000 
     48 H48         4.9539   52.4589   18.9626 H         1 UNK         0.0000 
     49 H49         4.5092   53.8508   18.0125 H         1 UNK         0.0000 
     50 H50         9.0597   52.2439   16.1519 H         1 UNK         0.0000 
     51 H51         8.0769   54.9771   20.3944 H         1 UNK         0.0000 
     52 H52         8.1761   56.2047   19.1599 H         1 UNK         0.0000 
     53 H53         3.8603   59.5988   15.6240 H         1 UNK         0.0000 
     54 H54         1.8629   60.1312   14.3205 H         1 UNK         0.0000 
     55 H55         0.0122   56.4860   15.6244 H         1 UNK         0.0000 
     56 H56         2.0103   55.9333   16.9352 H         1 UNK         0.0000 
     57 H57         6.5540   51.7274   16.7614 H         1 UNK         0.0000 
@<TRIPOS>BOND
     1    1    2 1    
     2    1   38 1    
     3    1   39 1    
     4    1   40 1    
     5    2    3 1    
     6    2   41 1    
     7    2   42 1    
     8    3    4 1    
     9    4    5 2    
    10    4    6 1    
    11    6   11 ar   
    12    6    7 ar   
    13    7    8 ar   
    14    7   43 1    
    15    8    9 ar   
    16    8   44 1    
    17    9   10 ar   
    18    9   12 1    
    19   10   11 ar   
    20   10   45 1    
    21   11   46 1    
    22   12   13 am   BACKBONE|DICT|INTERRES
    23   12   47 1    
    24   13   14 2    
    25   13   15 am   BACKBONE|DICT|INTERRES
    26   15   24 1    
    27   15   16 1    
    28   16   17 1    
    29   16   48 1    
    30   16   49 1    
    31   17   22 ar   
    32   17   18 ar   
    33   18   19 ar   
    34   18   23 1    
    35   19   20 1    
    36   19   21 ar   
    37   21   22 ar   
    38   21   50 1    
    39   22   57 1    
    40   23   24 1    
    41   23   51 1    
    42   23   52 1    
    43   24   25 1    
    44   24   26 1    
    45   26   30 1    
    46   26   27 2    
    47   27   28 1    
    48   28   29 2    
    49   28   31 1    
    50   29   30 1    
    51   31   36 ar   
    52   31   32 ar   
    53   32   33 ar   
    54   32   53 1    
    55   33   34 ar   
    56   33   54 1    
    57   34   35 ar   
    58   34   37 1    
    59   35   36 ar   
    60   35   55 1    
    61   36   56 1    
@<TRIPOS>SUBSTRUCTURE
     1 UNK         1 GROUP             0       ****    0 ROOT    
