@<TRIPOS>MOLECULE
ZINC66197965_2579
44   46    1
SMALL
USER_CHARGES


@<TRIPOS>ATOM
      1 C1          4.9276   53.8511   19.2381 C.ar      1 UNK         0.0000 
      2 C2          3.9748   52.8962   18.8927 C.ar      1 UNK         0.0000 
      3 C3          3.1230   52.3816   19.8661 C.ar      1 UNK         0.0000 
      4 C4          3.2111   52.8396   21.1812 C.ar      1 UNK         0.0000 
      5 C5          4.1804   53.7906   21.5252 C.ar      1 UNK         0.0000 
      6 C6          5.0387   54.2968   20.5523 C.ar      1 UNK         0.0000 
      7 N7          2.3446   52.2650   22.1240 N.am      1 UNK         0.0000 
      8 C8          1.8107   52.8554   23.2160 C.2       1 UNK         0.0000 
      9 O9          1.9134   54.0596   23.4685 O.2       1 UNK         0.0000 
     10 C10         1.1062   51.9312   24.1875 C.ar      1 UNK         0.0000 
     11 C11         0.6455   50.6553   23.8163 C.ar      1 UNK         0.0000 
     12 C12         0.0525   49.8116   24.7562 C.ar      1 UNK         0.0000 
     13 C13        -0.0675   50.2147   26.0852 C.ar      1 UNK         0.0000 
     14 C14         0.4050   51.4654   26.4844 C.ar      1 UNK         0.0000 
     15 C15         0.9387   52.3336   25.5205 C.ar      1 UNK         0.0000 
     16 N16         0.3371   51.7847   27.8550 N.pl3     1 UNK         0.0000 
     17 C17         1.1420   52.5748   28.6281 C.2       1 UNK         0.0000 
     18 S18         0.5899   52.8975   30.1711 S.2       1 UNK         0.0000 
     19 N19         2.3333   52.9656   28.0640 N.am      1 UNK         0.0000 
     20 C20         3.3702   53.7118   28.5210 C.2       1 UNK         0.0000 
     21 O21         3.5340   54.0878   29.6850 O.2       1 UNK         0.0000 
     22 C22         4.3898   54.0631   27.4674 C.ar      1 UNK         0.0000 
     23 C23         3.9905   54.5518   26.2146 C.ar      1 UNK         0.0000 
     24 C24         4.9377   54.8965   25.2516 C.ar      1 UNK         0.0000 
     25 C25         6.2970   54.7312   25.5073 C.ar      1 UNK         0.0000 
     26 C26         6.7032   54.2274   26.7394 C.ar      1 UNK         0.0000 
     27 C27         5.7613   53.8903   27.7094 C.ar      1 UNK         0.0000 
     28 F28         6.1956   53.3769   28.8773 F         1 UNK         0.0000 
     29 H29         5.5960   54.2366   18.4820 H         1 UNK         0.0000 
     30 H30         3.9157   52.5321   17.8768 H         1 UNK         0.0000 
     31 H31         2.3929   51.6345   19.5879 H         1 UNK         0.0000 
     32 H32         4.2814   54.1266   22.5415 H         1 UNK         0.0000 
     33 H33         5.7881   55.0276   20.8152 H         1 UNK         0.0000 
     34 H34         2.1010   51.3030   21.9526 H         1 UNK         0.0000 
     35 H35         0.7405   50.2950   22.8018 H         1 UNK         0.0000 
     36 H36        -0.2935   48.8302   24.4652 H         1 UNK         0.0000 
     37 H37        -0.4986   49.5377   26.8093 H         1 UNK         0.0000 
     38 H38         1.2422   53.3277   25.8068 H         1 UNK         0.0000 
     39 H39        -0.4402   51.3569   28.3382 H         1 UNK         0.0000 
     40 H40         2.4378   52.6900   27.0981 H         1 UNK         0.0000 
     41 H41         2.9488   54.6942   25.9797 H         1 UNK         0.0000 
     42 H42         4.6089   55.2961   24.3075 H         1 UNK         0.0000 
     43 H43         7.0286   54.9849   24.7538 H         1 UNK         0.0000 
     44 H44         7.7515   54.0842   26.9489 H         1 UNK         0.0000 
@<TRIPOS>BOND
     1    1    6 ar   
     2    1    2 ar   
     3    1   29 1    
     4    2    3 ar   
     5    2   30 1    
     6    3    4 ar   
     7    3   31 1    
     8    4    5 ar   
     9    4    7 1    
    10    5    6 ar   
    11    5   32 1    
    12    6   33 1    
    13    7    8 am   BACKBONE|DICT|INTERRES
    14    7   34 1    
    15    8    9 2    
    16    8   10 1    
    17   10   15 ar   
    18   10   11 ar   
    19   11   12 ar   
    20   11   35 1    
    21   12   13 ar   
    22   12   36 1    
    23   13   14 ar   
    24   13   37 1    
    25   14   15 ar   
    26   14   16 1    
    27   15   38 1    
    28   16   17 1    
    29   16   39 1    
    30   17   18 2    
    31   17   19 am   BACKBONE|DICT|INTERRES
    32   19   20 am   BACKBONE|DICT|INTERRES
    33   19   40 1    
    34   20   21 2    
    35   20   22 1    
    36   22   27 ar   
    37   22   23 ar   
    38   23   24 ar   
    39   23   41 1    
    40   24   25 ar   
    41   24   42 1    
    42   25   26 ar   
    43   25   43 1    
    44   26   27 ar   
    45   26   44 1    
    46   27   28 1    
@<TRIPOS>SUBSTRUCTURE
     1 UNK         1 GROUP             0       ****    0 ROOT    
