ZINC38965412_1157
                    3D
 Schrodinger Suite 2024-2.
 47 50  0  0  1  0            999 V2000
   -0.9379   51.5748   24.0199 C   0  0  0  0  0  0
    0.3404   51.2591   23.2607 C   0  0  0  0  0  0
    1.0367   52.2883   22.6207 C   0  0  0  0  0  0
    2.2190   52.0350   21.9212 C   0  0  0  0  0  0
    2.6990   50.7222   21.8513 C   0  0  0  0  0  0
    2.0122   49.6919   22.4893 C   0  0  0  0  0  0
    0.8383   49.9504   23.1973 C   0  0  0  0  0  0
   -0.0529   48.4976   24.0569 Br  0  0  0  0  0  0
    2.8567   53.1278   21.3160 N   0  0  0  0  0  0
    4.2449   53.1391   20.8481 C   0  0  2  0  0  0
    4.6571   52.1329   20.8591 H   0  0  0  0  0  0
    5.1713   53.9935   21.7849 C   0  0  0  0  0  0
    5.1974   53.6524   23.0139 N   0  0  0  0  0  0
    6.2932   54.4464   24.1475 S   0  0  0  0  0  0
    7.5044   53.6968   24.4773 O   0  0  0  0  0  0
    6.4610   55.8978   24.0843 O   0  0  0  0  0  0
    5.2993   54.2555   25.6417 C   0  0  0  0  0  0
    5.9537   54.1017   26.8714 C   0  0  0  0  0  0
    5.2184   53.9494   28.0413 C   0  0  0  0  0  0
    3.8270   53.9416   27.9851 C   0  0  0  0  0  0
    3.1644   54.0975   26.7691 C   0  0  0  0  0  0
    3.8997   54.2718   25.5993 C   0  0  0  0  0  0
    5.9386   55.0125   21.2104 N   0  0  0  0  0  0
    5.9414   55.2689   19.9487 C   0  0  0  0  0  0
    6.7453   56.3199   19.3648 C   0  0  0  0  0  0
    6.7339   56.6009   18.0412 C   0  0  0  0  0  0
    5.8958   55.8140   17.1330 C   0  0  0  0  0  0
    5.1146   54.7910   17.5736 C   0  0  0  0  0  0
    5.0961   54.4867   18.9346 C   0  0  0  0  0  0
    4.3388   53.5045   19.3975 N   0  3  0  0  0  0
   -1.1827   52.6378   24.0081 H   0  0  0  0  0  0
   -0.8411   51.2594   25.0592 H   0  0  0  0  0  0
   -1.7763   51.0233   23.5890 H   0  0  0  0  0  0
    0.6641   53.2991   22.6792 H   0  0  0  0  0  0
    3.5909   50.4696   21.3041 H   0  0  0  0  0  0
    2.4037   48.6842   22.4609 H   0  0  0  0  0  0
    2.3092   53.9714   21.1646 H   0  0  0  0  0  0
    7.0328   54.0966   26.9252 H   0  0  0  0  0  0
    5.7282   53.8344   28.9857 H   0  0  0  0  0  0
    3.2557   53.8140   28.8918 H   0  0  0  0  0  0
    2.0839   54.0909   26.7367 H   0  0  0  0  0  0
    3.3698   54.4089   24.6671 H   0  0  0  0  0  0
    7.3937   56.8964   20.0018 H   0  0  0  0  0  0
    7.3522   57.3977   17.6455 H   0  0  0  0  0  0
    5.9083   56.0474   16.0760 H   0  0  0  0  0  0
    4.5121   54.2201   16.8814 H   0  0  0  0  0  0
    3.7829   52.9644   18.7375 H   0  0  0  0  0  0
  1  2  1  0  0  0
  1 31  1  0  0  0
  1 32  1  0  0  0
  1 33  1  0  0  0
  2  7  2  0  0  0
  2  3  1  0  0  0
  3  4  2  0  0  0
  3 34  1  0  0  0
  4  5  1  0  0  0
  4  9  1  0  0  0
  5  6  2  0  0  0
  5 35  1  0  0  0
  6  7  1  0  0  0
  6 36  1  0  0  0
  7  8  1  0  0  0
  9 10  1  0  0  0
  9 37  1  0  0  0
 10 11  1  0  0  0
 10 30  1  0  0  0
 10 12  1  0  0  0
 12 13  2  0  0  0
 12 23  1  0  0  0
 13 14  1  0  0  0
 14 15  2  0  0  0
 14 16  2  0  0  0
 14 17  1  0  0  0
 17 22  2  0  0  0
 17 18  1  0  0  0
 18 19  2  0  0  0
 18 38  1  0  0  0
 19 20  1  0  0  0
 19 39  1  0  0  0
 20 21  2  0  0  0
 20 40  1  0  0  0
 21 22  1  0  0  0
 21 41  1  0  0  0
 22 42  1  0  0  0
 23 24  2  0  0  0
 24 29  1  0  0  0
 24 25  1  0  0  0
 25 26  2  0  0  0
 25 43  1  0  0  0
 26 27  1  0  0  0
 26 44  1  0  0  0
 27 28  2  0  0  0
 27 45  1  0  0  0
 28 29  1  0  0  0
 28 46  1  0  0  0
 29 30  2  0  0  0
 30 47  1  0  0  0
M  CHG  1  30   1
M  END
> <i_i_glide_confnum>
33

> <i_i_glide_lignum>
1158

> <i_i_glide_posenum>
306

> <i_i_glide_rotatable_bonds>
4

> <i_m_Source_File_Index>
5396

> <b_m_subgroup_collapsed>
0

> <r_i_docking_score>
-5.11254

> <r_i_glide_ecoul>
-1.39422

> <r_i_glide_eff_state_penalty>
0

> <r_i_glide_einternal>
8.64095

> <r_i_glide_emodel>
-50.8736

> <r_i_glide_energy>
-40.671

> <r_i_glide_erotb>
0.27397

> <r_i_glide_esite>
-0.0566089

> <r_i_glide_evdw>
-39.2767

> <r_i_glide_gscore>
-5.11254

> <r_i_glide_hbond>
-0.32

> <r_i_glide_ligand_efficiency>
-0.176295

> <r_i_glide_ligand_efficiency_ln>
-1.17064

> <r_i_glide_ligand_efficiency_sa>
-0.541633

> <r_i_glide_lipo>
-2.23988

> <r_i_glide_metal>
0

> <r_i_glide_rewards>
-0.597051

> <s_i_glide_gridfile>
wee1_glide-grid

> <s_m_Source_File>
wee1_decoys_glide_SP.sdf

> <s_m_Source_Path>
/Users/zhangxujun/Desktop

> <s_m_entry_id>
5671

> <s_m_entry_name>
wee1_decoys_glide_SP.5396

> <s_m_subgroup_title>
wee1_decoys_glide_SP

> <s_m_subgroupid>
wee1_decoys_glide_SP


$$$$
