ZINC00702394_990
                    3D
 Schrodinger Suite 2024-2.
 57 61  0  0  1  0            999 V2000
    3.9505   54.5381   24.9206 C   0  0  0  0  0  0
    2.9717   53.8325   24.0007 C   0  0  0  0  0  0
    1.6290   53.7126   24.3565 C   0  0  0  0  0  0
    0.7513   53.0100   23.5356 C   0  0  0  0  0  0
    1.2158   52.3535   22.3911 C   0  0  0  0  0  0
    2.5537   52.5420   22.0084 C   0  0  0  0  0  0
    3.4205   53.2966   22.7962 C   0  0  0  0  0  0
    0.3189   51.5012   21.5355 C   0  0  0  0  0  0
   -0.9768   50.9759   22.0036 C   0  0  0  0  0  0
   -1.1494   49.9465   23.0933 C   0  0  2  0  0  0
   -0.5197   49.0805   22.8781 H   0  0  0  0  0  0
   -2.5475   49.5167   22.9460 N   0  0  0  0  0  0
   -3.1890   50.2629   21.9980 C   0  0  0  0  0  0
   -4.3812   50.1817   21.6793 O   0  0  0  0  0  0
   -2.1714   51.1292   21.4214 C   0  0  0  0  0  0
   -2.4951   51.8764   20.4208 O   0  5  0  0  0  0
   -3.1035   48.4350   23.6638 C   0  0  0  0  0  0
   -4.2932   47.9325   23.4404 N   0  0  0  0  0  0
   -4.5832   46.9002   24.2723 C   0  0  0  0  0  0
   -5.7767   46.1674   24.2470 C   0  0  0  0  0  0
   -5.9353   45.1242   25.1607 C   0  0  0  0  0  0
   -4.9425   44.8170   26.0956 C   0  0  0  0  0  0
   -3.7571   45.5556   26.1557 C   0  0  0  0  0  0
   -3.5732   46.5735   25.2108 C   0  0  0  0  0  0
   -2.1912   47.6152   24.9330 S   0  0  0  0  0  0
   -5.1572   43.6777   27.0753 C   0  0  0  0  0  0
   -0.7934   50.4161   24.5095 C   0  0  0  0  0  0
   -1.5771   51.3526   25.1967 C   0  0  0  0  0  0
   -1.1925   51.7930   26.4635 C   0  0  0  0  0  0
   -0.0499   51.2594   27.0791 C   0  0  0  0  0  0
    0.6507   50.2401   26.4267 C   0  0  0  0  0  0
    0.3050   49.8429   25.1442 C   0  0  0  0  0  0
    0.4693   51.7364   28.4019 C   0  0  0  0  0  0
    1.5055   51.2968   28.9119 O   0  0  0  0  0  0
   -0.2868   52.7077   28.9686 O   0  0  0  0  0  0
    0.0663   53.2497   30.2353 C   0  0  0  0  0  0
    0.6576   51.2090   20.3880 O   0  0  0  0  0  0
    4.7318   55.0414   24.3499 H   0  0  0  0  0  0
    3.4559   55.2971   25.5244 H   0  0  0  0  0  0
    4.4224   53.8174   25.5904 H   0  0  0  0  0  0
    1.2629   54.1529   25.2713 H   0  0  0  0  0  0
   -0.2898   52.9763   23.8047 H   0  0  0  0  0  0
    2.9394   52.0927   21.1030 H   0  0  0  0  0  0
    4.4523   53.4075   22.4963 H   0  0  0  0  0  0
   -6.5537   46.4045   23.5358 H   0  0  0  0  0  0
   -6.8505   44.5493   25.1423 H   0  0  0  0  0  0
   -2.9980   45.3346   26.8966 H   0  0  0  0  0  0
   -6.1951   43.3400   27.1004 H   0  0  0  0  0  0
   -4.5105   42.8322   26.8360 H   0  0  0  0  0  0
   -4.8957   44.0035   28.0816 H   0  0  0  0  0  0
   -2.4547   51.7730   24.7281 H   0  0  0  0  0  0
   -1.7840   52.5563   26.9471 H   0  0  0  0  0  0
    1.4992   49.7568   26.8904 H   0  0  0  0  0  0
    0.8941   49.0809   24.6539 H   0  0  0  0  0  0
   -0.4948   54.1643   30.4207 H   0  0  0  0  0  0
    1.1267   53.5041   30.2828 H   0  0  0  0  0  0
   -0.1562   52.5403   31.0343 H   0  0  0  0  0  0
  1  2  1  0  0  0
  1 38  1  0  0  0
  1 39  1  0  0  0
  1 40  1  0  0  0
  2  7  2  0  0  0
  2  3  1  0  0  0
  3  4  2  0  0  0
  3 41  1  0  0  0
  4  5  1  0  0  0
  4 42  1  0  0  0
  5  6  2  0  0  0
  5  8  1  0  0  0
  6  7  1  0  0  0
  6 43  1  0  0  0
  7 44  1  0  0  0
  8  9  1  0  0  0
  8 37  2  0  0  0
  9 15  2  0  0  0
  9 10  1  0  0  0
 10 12  1  0  0  0
 10 27  1  0  0  0
 10 11  1  0  0  0
 12 17  1  0  0  0
 12 13  1  0  0  0
 13 14  2  0  0  0
 13 15  1  0  0  0
 15 16  1  0  0  0
 17 25  1  0  0  0
 17 18  2  0  0  0
 18 19  1  0  0  0
 19 24  2  0  0  0
 19 20  1  0  0  0
 20 21  2  0  0  0
 20 45  1  0  0  0
 21 22  1  0  0  0
 21 46  1  0  0  0
 22 23  2  0  0  0
 22 26  1  0  0  0
 23 24  1  0  0  0
 23 47  1  0  0  0
 24 25  1  0  0  0
 26 48  1  0  0  0
 26 49  1  0  0  0
 26 50  1  0  0  0
 27 32  2  0  0  0
 27 28  1  0  0  0
 28 29  2  0  0  0
 28 51  1  0  0  0
 29 30  1  0  0  0
 29 52  1  0  0  0
 30 31  2  0  0  0
 30 33  1  0  0  0
 31 32  1  0  0  0
 31 53  1  0  0  0
 32 54  1  0  0  0
 33 34  2  0  0  0
 33 35  1  0  0  0
 35 36  1  0  0  0
 36 55  1  0  0  0
 36 56  1  0  0  0
 36 57  1  0  0  0
M  CHG  1  16  -1
M  END
> <i_i_glide_confnum>
91

> <i_i_glide_lignum>
991

> <i_i_glide_posenum>
261

> <i_i_glide_rotatable_bonds>
6

> <i_m_Source_File_Index>
1120

> <b_m_subgroup_collapsed>
0

> <r_i_docking_score>
-2.94674

> <r_i_glide_ecoul>
-1.0695

> <r_i_glide_eff_state_penalty>
0

> <r_i_glide_einternal>
12.5113

> <r_i_glide_emodel>
-39.2844

> <r_i_glide_energy>
-36.5999

> <r_i_glide_erotb>
0.412037

> <r_i_glide_esite>
-5.51325e-05

> <r_i_glide_evdw>
-35.5304

> <r_i_glide_gscore>
-2.94674

> <r_i_glide_hbond>
-0.141952

> <r_i_glide_ligand_efficiency>
-0.0818538

> <r_i_glide_ligand_efficiency_ln>
-0.642898

> <r_i_glide_ligand_efficiency_sa>
-0.270275

> <r_i_glide_lipo>
-1.17462

> <r_i_glide_metal>
0

> <r_i_glide_rewards>
-0.105201

> <s_i_glide_gridfile>
wee1_glide-grid

> <s_m_Source_File>
wee1_decoys_glide_SP.sdf

> <s_m_Source_Path>
/Users/zhangxujun/Desktop

> <s_m_entry_id>
1395

> <s_m_entry_name>
wee1_decoys_glide_SP.1120

> <s_m_subgroup_title>
wee1_decoys_glide_SP

> <s_m_subgroupid>
wee1_decoys_glide_SP


$$$$
