@<TRIPOS>MOLECULE
ZINC12616555_930
63   66    1
SMALL
USER_CHARGES


@<TRIPOS>ATOM
      1 C1          2.4508   41.7728   18.7010 C.3       1 UNK         0.0000 
      2 C2          1.0882   42.4473   18.8044 C.2       1 UNK         0.0000 
      3 O3          0.3045   42.0968   19.6850 O.2       1 UNK         0.0000 
      4 N4          0.7983   43.3804   17.8836 N.am      1 UNK         0.0000 
      5 C5         -0.4795   44.0864   17.7382 C.3       1 UNK         0.0000 
      6 C6         -0.9907   44.8039   18.9850 C.ar      1 UNK         0.0000 
      7 C7         -2.0297   44.2490   19.7367 C.ar      1 UNK         0.0000 
      8 C8         -2.5051   44.9113   20.8659 C.ar      1 UNK         0.0000 
      9 C9         -1.9555   46.1382   21.2511 C.ar      1 UNK         0.0000 
     10 C10        -0.9360   46.7041   20.4726 C.ar      1 UNK         0.0000 
     11 C11        -0.4599   46.0440   19.3424 C.ar      1 UNK         0.0000 
     12 C12        -2.4585   46.8346   22.4798 C.2       1 UNK         0.0000 
     13 C13        -3.7456   46.7249   23.0189 C.2       1 UNK         0.0000 
     14 S14        -3.9142   47.7627   24.4026 S.3       1 UNK         0.0000 
     15 C15        -2.2602   48.2504   24.1563 C.2       1 UNK         0.0000 
     16 N16        -1.6661   47.6588   23.1512 N.2       1 UNK         0.0000 
     17 N17        -1.5773   49.1772   24.9334 N.am      1 UNK         0.0000 
     18 C18        -2.0921   50.0976   25.7831 C.2       1 UNK         0.0000 
     19 O19        -3.2947   50.2579   25.9996 O.2       1 UNK         0.0000 
     20 C20        -1.0755   50.9954   26.4611 C.ar      1 UNK         0.0000 
     21 C21        -1.3937   51.6345   27.6679 C.ar      1 UNK         0.0000 
     22 C22        -0.4829   52.4955   28.2787 C.ar      1 UNK         0.0000 
     23 C23         0.7672   52.7286   27.6958 C.ar      1 UNK         0.0000 
     24 C24         1.0958   52.0733   26.5107 C.ar      1 UNK         0.0000 
     25 C25         0.1845   51.2273   25.8914 C.ar      1 UNK         0.0000 
     26 S26         1.9029   53.8893   28.4922 S.o2      1 UNK         0.0000 
     27 O27         1.3278   55.2257   28.3131 O.2       1 UNK         0.0000 
     28 O28         2.1049   53.3744   29.8537 O.2       1 UNK         0.0000 
     29 N29         3.4946   53.8770   27.6607 N.pl3     1 UNK         0.0000 
     30 C30         4.6696   54.0821   28.5488 C.3       1 UNK         0.0000 
     31 C31         5.9962   53.5210   28.0274 C.3       1 UNK         0.0000 
     32 C32         6.7067   54.4452   27.0303 C.3       1 UNK         0.0000 
     33 C33         6.0589   54.5450   25.6479 C.3       1 UNK         0.0000 
     34 C34         4.6249   55.0998   25.6414 C.3       1 UNK         0.0000 
     35 C35         3.5273   54.1654   26.1912 C.3       1 UNK         0.0000 
     36 H36         3.2348   42.4954   18.4658 H         1 UNK         0.0000 
     37 H37         2.4387   41.0148   17.9173 H         1 UNK         0.0000 
     38 H38         2.7151   41.2870   19.6446 H         1 UNK         0.0000 
     39 H39         1.4913   43.5747   17.1762 H         1 UNK         0.0000 
     40 H40        -0.3647   44.8268   16.9448 H         1 UNK         0.0000 
     41 H41        -1.2339   43.3914   17.3640 H         1 UNK         0.0000 
     42 H42        -2.4597   43.2999   19.4541 H         1 UNK         0.0000 
     43 H43        -3.2991   44.4612   21.4420 H         1 UNK         0.0000 
     44 H44        -0.5082   47.6590   20.7395 H         1 UNK         0.0000 
     45 H45         0.3303   46.4893   18.7544 H         1 UNK         0.0000 
     46 H46        -4.5827   46.1413   22.6641 H         1 UNK         0.0000 
     47 H47        -0.5803   49.2060   24.7968 H         1 UNK         0.0000 
     48 H48        -2.3491   51.4596   28.1437 H         1 UNK         0.0000 
     49 H49        -0.7442   52.9731   29.2126 H         1 UNK         0.0000 
     50 H50         2.0487   52.1910   26.0377 H         1 UNK         0.0000 
     51 H51         0.4784   50.7628   24.9612 H         1 UNK         0.0000 
     52 H52         4.7499   55.1410   28.7971 H         1 UNK         0.0000 
     53 H53         4.4647   53.5766   29.4920 H         1 UNK         0.0000 
     54 H54         6.6650   53.4012   28.8807 H         1 UNK         0.0000 
     55 H55         5.8601   52.5206   27.6166 H         1 UNK         0.0000 
     56 H56         6.7901   55.4438   27.4599 H         1 UNK         0.0000 
     57 H57         7.7315   54.0950   26.9041 H         1 UNK         0.0000 
     58 H58         6.0774   53.5702   25.1624 H         1 UNK         0.0000 
     59 H59         6.6850   55.1882   25.0260 H         1 UNK         0.0000 
     60 H60         4.3790   55.2811   24.5938 H         1 UNK         0.0000 
     61 H61         4.5862   56.0911   26.0817 H         1 UNK         0.0000 
     62 H62         3.7688   53.2217   25.7039 H         1 UNK         0.0000 
     63 H63         2.5372   54.4801   25.8575 H         1 UNK         0.0000 
@<TRIPOS>BOND
     1    1    2 1    
     2    1   36 1    
     3    1   37 1    
     4    1   38 1    
     5    2    3 2    
     6    2    4 am   BACKBONE|DICT|INTERRES
     7    4    5 1    
     8    4   39 1    
     9    5    6 1    
    10    5   40 1    
    11    5   41 1    
    12    6   11 ar   
    13    6    7 ar   
    14    7    8 ar   
    15    7   42 1    
    16    8    9 ar   
    17    8   43 1    
    18    9   10 ar   
    19    9   12 1    
    20   10   11 ar   
    21   10   44 1    
    22   11   45 1    
    23   12   16 1    
    24   12   13 2    
    25   13   14 1    
    26   13   46 1    
    27   14   15 1    
    28   15   16 2    
    29   15   17 am   BACKBONE|DICT|INTERRES
    30   17   18 am   BACKBONE|DICT|INTERRES
    31   17   47 1    
    32   18   19 2    
    33   18   20 1    
    34   20   25 ar   
    35   20   21 ar   
    36   21   22 ar   
    37   21   48 1    
    38   22   23 ar   
    39   22   49 1    
    40   23   24 ar   
    41   23   26 1    
    42   24   25 ar   
    43   24   50 1    
    44   25   51 1    
    45   26   27 2    
    46   26   28 2    
    47   26   29 1    
    48   29   35 1    
    49   29   30 1    
    50   30   31 1    
    51   30   52 1    
    52   30   53 1    
    53   31   32 1    
    54   31   54 1    
    55   31   55 1    
    56   32   33 1    
    57   32   56 1    
    58   32   57 1    
    59   33   34 1    
    60   33   58 1    
    61   33   59 1    
    62   34   35 1    
    63   34   60 1    
    64   34   61 1    
    65   35   62 1    
    66   35   63 1    
@<TRIPOS>SUBSTRUCTURE
     1 UNK         1 GROUP             0       ****    0 ROOT    
