@<TRIPOS>MOLECULE
ZINC28947619_5896
48   51    1
SMALL
USER_CHARGES


@<TRIPOS>ATOM
      1 C1         -4.0298   49.5753   27.4573 C.3       1 UNK         0.0000 
      2 N2         -4.1287   50.9282   26.9348 N.pl3     1 UNK         0.0000 
      3 C3         -5.2793   51.6542   26.7638 C.ar      1 UNK         0.0000 
      4 C4         -4.8786   52.8669   26.2316 C.ar      1 UNK         0.0000 
      5 N5         -3.5687   52.9221   26.0816 N.2       1 UNK         0.0000 
      6 C6         -3.1156   51.7472   26.4759 C.ar      1 UNK         0.0000 
      7 C7         -1.6408   51.3337   26.4687 C.3       1 UNK         0.0000 
      8 H8         -1.4809   50.5879   27.2554 H         1 UNK         0.0000 
      9 C9         -1.2269   50.7057   25.1307 C.ar      1 UNK         0.0000 
     10 C10        -1.5604   51.3224   23.9179 C.ar      1 UNK         0.0000 
     11 C11        -1.1568   50.7580   22.7124 C.ar      1 UNK         0.0000 
     12 C12        -0.4210   49.5766   22.7149 C.ar      1 UNK         0.0000 
     13 C13        -0.0915   48.9502   23.9156 C.ar      1 UNK         0.0000 
     14 C14        -0.4999   49.5100   25.1230 C.ar      1 UNK         0.0000 
     15 Cl15        0.0884   48.8965   21.2133 Cl        1 UNK         0.0000 
     16 N16        -0.7795   52.4766   26.8066 N.am      1 UNK         0.0000 
     17 C17         0.5106   52.3829   27.1756 C.2       1 UNK         0.0000 
     18 O18         1.1044   51.3074   27.2494 O.2       1 UNK         0.0000 
     19 C19         1.2285   53.7009   27.5140 C.3       1 UNK         0.0000 
     20 N20         2.4369   53.5319   28.3328 N.pl3     1 UNK         0.0000 
     21 C21         3.7756   53.6836   27.9760 C.ar      1 UNK         0.0000 
     22 N22         4.5315   53.4562   29.0254 N.2       1 UNK         0.0000 
     23 N23         3.7129   53.1436   30.0985 N.2       1 UNK         0.0000 
     24 C24         2.4774   53.2008   29.6817 C.ar      1 UNK         0.0000 
     25 S25         1.1043   52.8967   30.7592 S.3       1 UNK         0.0000 
     26 C26         4.3777   54.0525   26.6394 C.ar      1 UNK         0.0000 
     27 C27         3.7482   53.7901   25.4148 C.ar      1 UNK         0.0000 
     28 C28         4.3790   54.0952   24.2095 C.ar      1 UNK         0.0000 
     29 C29         5.6684   54.6170   24.2158 C.ar      1 UNK         0.0000 
     30 C30         6.3056   54.8972   25.4180 C.ar      1 UNK         0.0000 
     31 C31         5.6627   54.6205   26.6216 C.ar      1 UNK         0.0000 
     32 Cl32        6.4928   54.8967   22.7255 Cl        1 UNK         0.0000 
     33 H33        -3.6968   49.6170   28.4962 H         1 UNK         0.0000 
     34 H34        -3.3132   48.9959   26.8729 H         1 UNK         0.0000 
     35 H35        -5.0060   49.0880   27.4252 H         1 UNK         0.0000 
     36 H36        -6.2462   51.2506   27.0281 H         1 UNK         0.0000 
     37 H37        -5.5190   53.6957   25.9666 H         1 UNK         0.0000 
     38 H38        -2.1192   52.2469   23.9072 H         1 UNK         0.0000 
     39 H39        -1.4074   51.2387   21.7791 H         1 UNK         0.0000 
     40 H40         0.4913   48.0417   23.9202 H         1 UNK         0.0000 
     41 H41        -0.2335   49.0226   26.0521 H         1 UNK         0.0000 
     42 H42        -1.1597   53.3862   26.5987 H         1 UNK         0.0000 
     43 H43         1.4692   54.2628   26.6195 H         1 UNK         0.0000 
     44 H44         0.5472   54.3364   28.0816 H         1 UNK         0.0000 
     45 H45         2.7989   53.2822   25.3691 H         1 UNK         0.0000 
     46 H46         3.8909   53.8680   23.2727 H         1 UNK         0.0000 
     47 H47         7.3019   55.3074   25.4089 H         1 UNK         0.0000 
     48 H48         6.1808   54.8297   27.5471 H         1 UNK         0.0000 
@<TRIPOS>BOND
     1    1    2 1    
     2    1   33 1    
     3    1   34 1    
     4    1   35 1    
     5    2    6 ar   
     6    2    3 ar   
     7    3    4 ar   
     8    3   36 1    
     9    4    5 ar   
    10    4   37 1    
    11    5    6 ar   
    12    6    7 1    
    13    7    8 1    
    14    7    9 1    
    15    7   16 1    
    16    9   14 ar   
    17    9   10 ar   
    18   10   11 ar   
    19   10   38 1    
    20   11   12 ar   
    21   11   39 1    
    22   12   13 ar   
    23   12   15 1    
    24   13   14 ar   
    25   13   40 1    
    26   14   41 1    
    27   16   17 am   BACKBONE|DICT|INTERRES
    28   16   42 1    
    29   17   18 2    
    30   17   19 1    
    31   19   20 1    
    32   19   43 1    
    33   19   44 1    
    34   20   24 ar   
    35   20   21 ar   
    36   21   22 ar   
    37   21   26 1    
    38   22   23 ar   
    39   23   24 ar   
    40   24   25 1    
    41   26   31 ar   
    42   26   27 ar   
    43   27   28 ar   
    44   27   45 1    
    45   28   29 ar   
    46   28   46 1    
    47   29   30 ar   
    48   29   32 1    
    49   30   31 ar   
    50   30   47 1    
    51   31   48 1    
@<TRIPOS>SUBSTRUCTURE
     1 UNK         1 GROUP             0       ****    0 ROOT    
