@<TRIPOS>MOLECULE
ZINC39665650_5546
67   70    1
SMALL
USER_CHARGES


@<TRIPOS>ATOM
      1 C1          4.0133   54.9491   25.7018 C.3       1 UNK         0.0000 
      2 C2          3.0076   53.8607   25.2632 C.3       1 UNK         0.0000 
      3 H3          3.5069   52.8972   25.1537 H         1 UNK         0.0000 
      4 C4          2.3829   54.2626   23.9036 C.3       1 UNK         0.0000 
      5 N5          1.6942   53.1828   23.2011 N.am      1 UNK         0.0000 
      6 C6          0.4319   52.7650   23.4146 C.2       1 UNK         0.0000 
      7 O7         -0.3145   53.2968   24.2253 O.2       1 UNK         0.0000 
      8 C8         -0.1494   51.5994   22.5775 C.3       1 UNK         0.0000 
      9 H9         -1.0563   51.9731   22.1005 H         1 UNK         0.0000 
     10 C10         0.8065   51.2285   21.4305 C.3       1 UNK         0.0000 
     11 N11         0.4255   49.8593   21.1009 N.am      1 UNK         0.0000 
     12 C12        -0.3476   49.2448   22.1878 C.3       1 UNK         0.0000 
     13 C13        -0.3765   50.2730   23.3491 C.3       1 UNK         0.0000 
     14 C14        -1.6959   50.2837   24.1600 C.3       1 UNK         0.0000 
     15 C15        -2.0050   48.8945   24.7476 C.3       1 UNK         0.0000 
     16 N16        -0.8415   48.4947   25.6817 N.4       1 UNK         0.0000 
     17 C17         0.5761   48.6120   25.0790 C.3       1 UNK         0.0000 
     18 C18         0.7364   49.9860   24.4078 C.3       1 UNK         0.0000 
     19 C19         0.4568   49.3213   19.8505 C.2       1 UNK         0.0000 
     20 O20        -0.0379   48.2164   19.6122 O.2       1 UNK         0.0000 
     21 C21         1.0244   50.1388   18.7044 C.ar      1 UNK         0.0000 
     22 C22         2.2068   50.8871   18.8329 C.ar      1 UNK         0.0000 
     23 C23         2.6514   51.6957   17.7889 C.ar      1 UNK         0.0000 
     24 C24         1.9482   51.7162   16.5885 C.ar      1 UNK         0.0000 
     25 C25         0.8058   50.9366   16.4240 C.ar      1 UNK         0.0000 
     26 C26         0.3489   50.1489   17.4758 C.ar      1 UNK         0.0000 
     27 Br27        2.5682   52.7987   15.1504 Br        1 UNK         0.0000 
     28 O28         1.9107   53.6965   26.1685 O.3       1 UNK         0.0000 
     29 C29         2.0844   53.2965   27.4779 C.ar      1 UNK         0.0000 
     30 C30         3.3047   52.8962   28.0342 C.ar      1 UNK         0.0000 
     31 C31         3.3805   52.5150   29.3684 C.ar      1 UNK         0.0000 
     32 C32         2.2258   52.4983   30.1614 C.ar      1 UNK         0.0000 
     33 C33         1.0095   52.8883   29.6053 C.ar      1 UNK         0.0000 
     34 C34         0.9408   53.2854   28.2735 C.ar      1 UNK         0.0000 
     35 O35         2.1947   52.0965   31.4791 O.3       1 UNK         0.0000 
     36 C36         3.3767   51.5879   32.0816 C.3       1 UNK         0.0000 
     37 H37         4.8158   55.0569   24.9733 H         1 UNK         0.0000 
     38 H38         3.5065   55.9032   25.7757 H         1 UNK         0.0000 
     39 H39         4.4845   54.7712   26.6639 H         1 UNK         0.0000 
     40 H40         1.7017   55.1018   24.0591 H         1 UNK         0.0000 
     41 H41         3.1599   54.6282   23.2298 H         1 UNK         0.0000 
     42 H42         2.2204   52.7453   22.4611 H         1 UNK         0.0000 
     43 H43         0.6934   51.9565   20.6258 H         1 UNK         0.0000 
     44 H44         1.8236   51.1534   21.8175 H         1 UNK         0.0000 
     45 H45        -0.0953   48.2194   22.4537 H         1 UNK         0.0000 
     46 H46        -1.3712   49.1961   21.8098 H         1 UNK         0.0000 
     47 H47        -1.6896   51.0575   24.9312 H         1 UNK         0.0000 
     48 H48        -2.5223   50.5465   23.4982 H         1 UNK         0.0000 
     49 H49        -2.9015   48.8928   25.3711 H         1 UNK         0.0000 
     50 H50        -2.0910   48.1124   23.9920 H         1 UNK         0.0000 
     51 H51        -0.8974   49.0279   26.5458 H         1 UNK         0.0000 
     52 H52         1.2649   48.4970   25.9183 H         1 UNK         0.0000 
     53 H53         0.7032   47.7703   24.4014 H         1 UNK         0.0000 
     54 H54         1.7159   49.9999   23.9241 H         1 UNK         0.0000 
     55 H55         0.7820   50.7626   25.1732 H         1 UNK         0.0000 
     56 H56         2.7993   50.8517   19.7350 H         1 UNK         0.0000 
     57 H57         3.5659   52.2630   17.8954 H         1 UNK         0.0000 
     58 H58         0.2771   50.9461   15.4834 H         1 UNK         0.0000 
     59 H59        -0.5459   49.5587   17.3356 H         1 UNK         0.0000 
     60 H60         4.2041   52.8428   27.4424 H         1 UNK         0.0000 
     61 H61         4.3435   52.2244   29.7577 H         1 UNK         0.0000 
     62 H62         0.1138   52.8710   30.2089 H         1 UNK         0.0000 
     63 H63        -0.0086   53.5831   27.8504 H         1 UNK         0.0000 
     64 H64         3.1041   50.9887   32.9492 H         1 UNK         0.0000 
     65 H65         4.0512   52.3915   32.3794 H         1 UNK         0.0000 
     66 H66         3.9081   50.8995   31.4310 H         1 UNK         0.0000 
     67 H67        -0.9728   47.5461   26.0083 H         1 UNK         0.0000 
@<TRIPOS>BOND
     1    1    2 1    
     2    1   37 1    
     3    1   38 1    
     4    1   39 1    
     5    2    3 1    
     6    2    4 1    
     7    2   28 1    
     8    4    5 1    
     9    4   40 1    
    10    4   41 1    
    11    5    6 am   BACKBONE|DICT|INTERRES
    12    5   42 1    
    13    6    7 2    
    14    6    8 1    
    15    8    9 1    
    16    8   13 1    
    17    8   10 1    
    18   10   11 1    
    19   10   43 1    
    20   10   44 1    
    21   11   12 1    
    22   11   19 am   BACKBONE|DICT|INTERRES
    23   12   13 1    
    24   12   45 1    
    25   12   46 1    
    26   13   18 1    
    27   13   14 1    
    28   14   15 1    
    29   14   47 1    
    30   14   48 1    
    31   15   16 1    
    32   15   49 1    
    33   15   50 1    
    34   16   17 1    
    35   16   51 1    
    36   16   67 1    
    37   17   18 1    
    38   17   52 1    
    39   17   53 1    
    40   18   54 1    
    41   18   55 1    
    42   19   20 2    
    43   19   21 1    
    44   21   26 ar   
    45   21   22 ar   
    46   22   23 ar   
    47   22   56 1    
    48   23   24 ar   
    49   23   57 1    
    50   24   25 ar   
    51   24   27 1    
    52   25   26 ar   
    53   25   58 1    
    54   26   59 1    
    55   28   29 1    
    56   29   34 ar   
    57   29   30 ar   
    58   30   31 ar   
    59   30   60 1    
    60   31   32 ar   
    61   31   61 1    
    62   32   33 ar   
    63   32   35 1    
    64   33   34 ar   
    65   33   62 1    
    66   34   63 1    
    67   35   36 1    
    68   36   64 1    
    69   36   65 1    
    70   36   66 1    
@<TRIPOS>SUBSTRUCTURE
     1 UNK         1 GROUP             0       ****    0 ROOT    
