@<TRIPOS>MOLECULE
ZINC22936584_4856
69   72    1
SMALL
USER_CHARGES


@<TRIPOS>ATOM
      1 C1          2.9213   46.2292   15.3941 C.3       1 UNK         0.0000 
      2 C2          2.5781   46.4942   16.8671 C.3       1 UNK         0.0000 
      3 N3          1.9044   47.8698   17.0630 N.4       1 UNK         0.0000 
      4 C4          0.6188   48.0486   16.2259 C.3       1 UNK         0.0000 
      5 C5          0.0041   49.4327   16.5111 C.3       1 UNK         0.0000 
      6 N6         -0.2761   49.6090   17.9420 N.3       1 UNK         0.0000 
      7 C7          0.9541   49.4971   18.7475 C.3       1 UNK         0.0000 
      8 C8          1.6246   48.1188   18.5629 C.3       1 UNK         0.0000 
      9 C9         -0.9875   50.8788   18.1492 C.3       1 UNK         0.0000 
     10 C10        -1.6002   51.0376   19.5549 C.3       1 UNK         0.0000 
     11 N11        -0.6606   51.6091   20.5139 N.am      1 UNK         0.0000 
     12 C12        -0.8675   51.7003   21.8387 C.2       1 UNK         0.0000 
     13 O13        -1.9232   51.3521   22.3663 O.2       1 UNK         0.0000 
     14 C14         0.2721   52.2721   22.6584 C.ar      1 UNK         0.0000 
     15 C15         0.2278   52.2030   24.0568 C.ar      1 UNK         0.0000 
     16 C16         1.2656   52.7252   24.8233 C.ar      1 UNK         0.0000 
     17 C17         2.3619   53.3348   24.2056 C.ar      1 UNK         0.0000 
     18 C18         2.4054   53.4282   22.8163 C.ar      1 UNK         0.0000 
     19 C19         1.3746   52.8968   22.0519 C.ar      1 UNK         0.0000 
     20 C20         3.4995   53.8523   25.0195 C.2       1 UNK         0.0000 
     21 N21         3.6712   53.6967   26.3060 N.2       1 UNK         0.0000 
     22 C22         4.8489   54.2250   26.5819 C.2       1 UNK         0.0000 
     23 C23         5.3795   54.7821   25.4258 C.2       1 UNK         0.0000 
     24 O24         4.5229   54.5016   24.4118 O.3       1 UNK         0.0000 
     25 C25         6.6204   55.5641   25.0860 C.3       1 UNK         0.0000 
     26 C26         5.4157   54.1599   27.9899 C.3       1 UNK         0.0000 
     27 S27         4.2787   54.7603   29.2816 S.3       1 UNK         0.0000 
     28 C28         2.8109   53.7793   29.3062 C.ar      1 UNK         0.0000 
     29 C29         1.6089   54.3769   29.6822 C.ar      1 UNK         0.0000 
     30 C30         0.4336   53.6279   29.6716 C.ar      1 UNK         0.0000 
     31 C31         0.4662   52.2895   29.2750 C.ar      1 UNK         0.0000 
     32 C32         1.6734   51.6969   28.8999 C.ar      1 UNK         0.0000 
     33 C33         2.8500   52.4353   28.9430 C.ar      1 UNK         0.0000 
     34 C34        -0.8115   51.4741   29.2338 C.3       1 UNK         0.0000 
     35 H35         3.5042   45.3132   15.3113 H         1 UNK         0.0000 
     36 H36         3.5070   47.0478   14.9704 H         1 UNK         0.0000 
     37 H37         2.0307   46.0905   14.7768 H         1 UNK         0.0000 
     38 H38         1.9001   45.7462   17.2786 H         1 UNK         0.0000 
     39 H39         3.4906   46.5544   17.4604 H         1 UNK         0.0000 
     40 H40         0.9174   48.0073   15.1784 H         1 UNK         0.0000 
     41 H41        -0.0565   47.2249   16.4676 H         1 UNK         0.0000 
     42 H42         0.7121   50.2077   16.2062 H         1 UNK         0.0000 
     43 H43        -0.9063   49.5384   15.9175 H         1 UNK         0.0000 
     44 H44         0.7530   49.6266   19.8109 H         1 UNK         0.0000 
     45 H45         1.6454   50.2784   18.4183 H         1 UNK         0.0000 
     46 H46         1.0023   47.2999   18.9302 H         1 UNK         0.0000 
     47 H47         2.6012   48.1085   19.0533 H         1 UNK         0.0000 
     48 H48        -0.4198   51.7575   17.8350 H         1 UNK         0.0000 
     49 H49        -1.8480   50.8077   17.4813 H         1 UNK         0.0000 
     50 H50        -2.4791   51.6791   19.4940 H         1 UNK         0.0000 
     51 H51        -1.9684   50.0738   19.9111 H         1 UNK         0.0000 
     52 H52         0.2273   51.9165   20.1496 H         1 UNK         0.0000 
     53 H53        -0.6068   51.7339   24.5619 H         1 UNK         0.0000 
     54 H54         1.2144   52.6449   25.8997 H         1 UNK         0.0000 
     55 H55         3.2415   53.8972   22.3179 H         1 UNK         0.0000 
     56 H56         1.4542   52.9924   20.9782 H         1 UNK         0.0000 
     57 H57         7.1040   55.9359   25.9867 H         1 UNK         0.0000 
     58 H58         7.3438   54.9611   24.5357 H         1 UNK         0.0000 
     59 H59         6.3796   56.4326   24.4740 H         1 UNK         0.0000 
     60 H60         5.7396   53.1496   28.2370 H         1 UNK         0.0000 
     61 H61         6.3077   54.7807   28.0676 H         1 UNK         0.0000 
     62 H62         1.5826   55.4187   29.9712 H         1 UNK         0.0000 
     63 H63        -0.4954   54.0898   29.9646 H         1 UNK         0.0000 
     64 H64         1.7073   50.6672   28.5811 H         1 UNK         0.0000 
     65 H65         3.7803   51.9725   28.6573 H         1 UNK         0.0000 
     66 H66        -1.6931   52.0964   29.0941 H         1 UNK         0.0000 
     67 H67        -0.7928   50.7832   28.3908 H         1 UNK         0.0000 
     68 H68        -0.9350   50.9007   30.1538 H         1 UNK         0.0000 
     69 H69         2.5888   48.5797   16.7823 H         1 UNK         0.0000 
@<TRIPOS>BOND
     1    1    2 1    
     2    1   35 1    
     3    1   36 1    
     4    1   37 1    
     5    2    3 1    
     6    2   38 1    
     7    2   39 1    
     8    3    8 1    
     9    3    4 1    
    10    3   69 1    
    11    4    5 1    
    12    4   40 1    
    13    4   41 1    
    14    5    6 1    
    15    5   42 1    
    16    5   43 1    
    17    6    7 1    
    18    6    9 1    
    19    7    8 1    
    20    7   44 1    
    21    7   45 1    
    22    8   46 1    
    23    8   47 1    
    24    9   10 1    
    25    9   48 1    
    26    9   49 1    
    27   10   11 1    
    28   10   50 1    
    29   10   51 1    
    30   11   12 am   BACKBONE|DICT|INTERRES
    31   11   52 1    
    32   12   13 2    
    33   12   14 1    
    34   14   19 ar   
    35   14   15 ar   
    36   15   16 ar   
    37   15   53 1    
    38   16   17 ar   
    39   16   54 1    
    40   17   18 ar   
    41   17   20 1    
    42   18   19 ar   
    43   18   55 1    
    44   19   56 1    
    45   20   24 1    
    46   20   21 2    
    47   21   22 1    
    48   22   23 2    
    49   22   26 1    
    50   23   24 1    
    51   23   25 1    
    52   25   57 1    
    53   25   58 1    
    54   25   59 1    
    55   26   27 1    
    56   26   60 1    
    57   26   61 1    
    58   27   28 1    
    59   28   33 ar   
    60   28   29 ar   
    61   29   30 ar   
    62   29   62 1    
    63   30   31 ar   
    64   30   63 1    
    65   31   32 ar   
    66   31   34 1    
    67   32   33 ar   
    68   32   64 1    
    69   33   65 1    
    70   34   66 1    
    71   34   67 1    
    72   34   68 1    
@<TRIPOS>SUBSTRUCTURE
     1 UNK         1 GROUP             0       ****    0 ROOT    
