ZINC09292103_2378
                    3D
 Schrodinger Suite 2024-2.
 52 56  0  0  1  0            999 V2000
   -0.5840   52.2160   24.4397 C   0  0  0  0  0  0
    0.6200   52.7666   23.7177 C   0  0  0  0  0  0
    1.1195   54.0602   23.6821 C   0  0  0  0  0  0
    2.2410   54.2172   22.8816 C   0  0  0  0  0  0
    2.7459   53.0380   22.3641 C   0  0  0  0  0  0
    1.6570   51.7385   22.7739 S   0  0  0  0  0  0
    4.0551   52.8077   21.6376 C   0  0  2  0  0  0
    4.4710   51.8615   21.9856 H   0  0  0  0  0  0
    5.1468   53.8815   21.8613 C   0  0  0  0  0  0
    5.8515   54.4967   22.9553 C   0  0  0  0  0  0
    6.8008   55.3028   22.4977 N   0  0  0  0  0  0
    6.7023   55.3098   21.1731 N   0  0  0  0  0  0
    7.3198   55.8350   20.5697 H   0  0  0  0  0  0
    5.7094   54.4963   20.7562 C   0  0  0  0  0  0
    5.4363   54.3133   19.4291 O   0  0  0  0  0  0
    4.4814   53.3766   19.1922 C   0  0  0  0  0  0
    3.8191   52.6425   20.1197 C   0  0  0  0  0  0
    2.8582   51.6766   19.6856 C   0  0  0  0  0  0
    2.0489   50.9181   19.3505 N   0  0  0  0  0  0
    4.3400   53.2940   17.8346 N   0  0  0  0  0  0
    5.6914   54.3956   24.4624 C   0  0  0  0  0  0
    6.6351   54.9399   25.3486 C   0  0  0  0  0  0
    6.4847   54.8124   26.7353 C   0  0  0  0  0  0
    5.3760   54.1529   27.2673 C   0  0  0  0  0  0
    4.3916   53.6967   26.3924 C   0  0  0  0  0  0
    4.5763   53.7844   25.0263 C   0  0  0  0  0  0
    5.3156   53.9545   28.6322 O   0  0  0  0  0  0
    4.3455   53.0306   29.1575 C   0  0  0  0  0  0
    3.0263   53.6929   29.5222 C   0  0  0  0  0  0
    2.7930   55.0566   29.3041 C   0  0  0  0  0  0
    1.6282   55.6437   29.7877 C   0  0  0  0  0  0
    0.7037   54.8580   30.4701 C   0  0  0  0  0  0
    0.8883   53.4889   30.6257 C   0  0  0  0  0  0
    2.0543   52.9067   30.1461 C   0  0  0  0  0  0
   -1.1390   52.9924   24.9629 H   0  0  0  0  0  0
   -0.2970   51.4720   25.1822 H   0  0  0  0  0  0
   -1.2787   51.7335   23.7548 H   0  0  0  0  0  0
    0.7011   54.8899   24.2262 H   0  0  0  0  0  0
    2.7540   55.1561   22.7477 H   0  0  0  0  0  0
    3.7950   52.5331   17.4545 H   0  0  0  0  0  0
    5.0905   53.6257   17.2476 H   0  0  0  0  0  0
    7.5049   55.4458   24.9563 H   0  0  0  0  0  0
    7.2373   55.1983   27.4059 H   0  0  0  0  0  0
    3.5010   53.1984   26.7430 H   0  0  0  0  0  0
    3.8469   53.2857   24.4394 H   0  0  0  0  0  0
    4.1901   52.1636   28.5118 H   0  0  0  0  0  0
    4.7303   52.6073   30.0812 H   0  0  0  0  0  0
    3.5238   55.6871   28.8198 H   0  0  0  0  0  0
    1.4584   56.7034   29.6633 H   0  0  0  0  0  0
   -0.1839   55.3129   30.8805 H   0  0  0  0  0  0
    0.1475   52.8905   31.1383 H   0  0  0  0  0  0
    2.2133   51.8480   30.2977 H   0  0  0  0  0  0
  1  2  1  0  0  0
  1 35  1  0  0  0
  1 36  1  0  0  0
  1 37  1  0  0  0
  2  6  1  0  0  0
  2  3  2  0  0  0
  3  4  1  0  0  0
  3 38  1  0  0  0
  4  5  2  0  0  0
  4 39  1  0  0  0
  5  6  1  0  0  0
  5  7  1  0  0  0
  7  8  1  0  0  0
  7 17  1  0  0  0
  7  9  1  0  0  0
  9 14  2  0  0  0
  9 10  1  0  0  0
 10 11  2  0  0  0
 10 21  1  0  0  0
 11 12  1  0  0  0
 12 13  1  0  0  0
 12 14  1  0  0  0
 14 15  1  0  0  0
 15 16  1  0  0  0
 16 17  2  0  0  0
 16 20  1  0  0  0
 17 18  1  0  0  0
 18 19  3  0  0  0
 20 40  1  0  0  0
 20 41  1  0  0  0
 21 26  2  0  0  0
 21 22  1  0  0  0
 22 23  2  0  0  0
 22 42  1  0  0  0
 23 24  1  0  0  0
 23 43  1  0  0  0
 24 25  2  0  0  0
 24 27  1  0  0  0
 25 26  1  0  0  0
 25 44  1  0  0  0
 26 45  1  0  0  0
 27 28  1  0  0  0
 28 29  1  0  0  0
 28 46  1  0  0  0
 28 47  1  0  0  0
 29 34  2  0  0  0
 29 30  1  0  0  0
 30 31  2  0  0  0
 30 48  1  0  0  0
 31 32  1  0  0  0
 31 49  1  0  0  0
 32 33  2  0  0  0
 32 50  1  0  0  0
 33 34  1  0  0  0
 33 51  1  0  0  0
 34 52  1  0  0  0
M  END
> <i_i_glide_confnum>
137

> <i_i_glide_lignum>
2379

> <i_i_glide_posenum>
255

> <i_i_glide_rotatable_bonds>
6

> <i_m_Source_File_Index>
1499

> <b_m_subgroup_collapsed>
0

> <r_i_docking_score>
-6.69112

> <r_i_glide_ecoul>
1.35503

> <r_i_glide_eff_state_penalty>
0

> <r_i_glide_einternal>
7.19897

> <r_i_glide_emodel>
-64.4631

> <r_i_glide_energy>
-47.6555

> <r_i_glide_erotb>
0.514473

> <r_i_glide_esite>
-0.114778

> <r_i_glide_evdw>
-49.0105

> <r_i_glide_gscore>
-6.69112

> <r_i_glide_hbond>
0

> <r_i_glide_ligand_efficiency>
-0.209098

> <r_i_glide_ligand_efficiency_ln>
-1.49832

> <r_i_glide_ligand_efficiency_sa>
-0.663843

> <r_i_glide_lipo>
-4.27859

> <r_i_glide_metal>
0

> <r_i_glide_rewards>
-0.56496

> <s_i_glide_gridfile>
wee1_glide-grid

> <s_m_Source_File>
wee1_decoys_glide_SP.sdf

> <s_m_Source_Path>
/Users/zhangxujun/Desktop

> <s_m_entry_id>
1774

> <s_m_entry_name>
wee1_decoys_glide_SP.1499

> <s_m_subgroup_title>
wee1_decoys_glide_SP

> <s_m_subgroupid>
wee1_decoys_glide_SP


$$$$
