ZINC22851568_2049
                    3D
 Schrodinger Suite 2024-2.
 67 71  0  0  1  0            999 V2000
    3.1120   52.6126   17.4967 C   0  0  0  0  0  0
    3.9203   53.7142   17.2261 C   0  0  0  0  0  0
    4.5214   54.4075   18.2748 C   0  0  0  0  0  0
    4.3118   54.0047   19.5954 C   0  0  0  0  0  0
    3.4774   52.9084   19.8848 C   0  0  0  0  0  0
    2.8975   52.2121   18.8150 C   0  0  0  0  0  0
    3.2689   52.4808   21.1920 N   0  0  0  0  0  0
    2.9475   53.3892   22.2986 C   0  0  0  0  0  0
    1.6760   52.9544   23.0523 C   0  0  0  0  0  0
    1.9043   51.6446   23.6785 N   0  0  0  0  0  0
    2.1602   50.6541   22.6134 C   0  0  0  0  0  0
    3.2562   51.0676   21.5967 C   0  0  0  0  0  0
    0.8436   51.3127   24.6732 C   0  0  1  0  0  0
   -0.0917   51.6766   24.2401 H   0  0  0  0  0  0
    0.6428   49.7559   24.8666 C   0  0  0  0  0  0
   -0.5541   49.3274   25.5896 N   0  0  0  0  0  0
   -1.8043   49.4260   25.1150 C   0  0  0  0  0  0
   -2.0905   49.7378   23.9574 O   0  0  0  0  0  0
   -2.6960   49.1891   26.0817 N   0  0  0  0  0  0
   -4.1468   49.3824   26.0258 C   0  0  0  0  0  0
   -4.7900   48.8582   27.3310 C   0  0  0  0  0  0
   -4.3743   49.7017   28.5598 C   0  0  0  0  0  0
   -4.7471   51.1836   28.3692 C   0  0  0  0  0  0
   -4.1976   51.7530   27.0429 C   0  0  0  0  0  0
   -4.5779   50.8629   25.8375 C   0  0  0  0  0  0
    1.0153   52.0962   26.0151 C   0  0  0  0  0  0
    2.1573   52.8967   26.2776 C   0  0  0  0  0  0
    2.3551   53.5336   27.5099 C   0  0  0  0  0  0
    1.3814   53.3654   28.4825 C   0  0  0  0  0  0
    0.2629   52.6231   28.2486 C   0  0  0  0  0  0
    0.0406   51.9908   27.0299 C   0  0  0  0  0  0
   -0.4951   52.5850   29.3745 O   0  0  0  0  0  0
    0.1176   53.4570   30.2884 C   0  0  0  0  0  0
    1.3704   53.8177   29.7639 O   0  0  0  0  0  0
    4.9548   54.6726   20.5845 F   0  0  0  0  0  0
    2.6645   52.0557   16.6869 H   0  0  0  0  0  0
    4.0939   54.0205   16.2044 H   0  0  0  0  0  0
    5.1643   55.2487   18.0620 H   0  0  0  0  0  0
    2.2667   51.3548   18.9971 H   0  0  0  0  0  0
    3.8007   53.4634   22.9739 H   0  0  0  0  0  0
    2.7889   54.3951   21.9069 H   0  0  0  0  0  0
    0.8219   52.9252   22.3728 H   0  0  0  0  0  0
    1.4573   53.7116   23.8070 H   0  0  0  0  0  0
    2.4665   49.6930   23.0294 H   0  0  0  0  0  0
    1.2377   50.5343   22.0406 H   0  0  0  0  0  0
    4.2201   50.9178   22.0817 H   0  0  0  0  0  0
    3.2655   50.3891   20.7434 H   0  0  0  0  0  0
    1.5043   49.2969   25.3532 H   0  0  0  0  0  0
    0.5798   49.2402   23.9090 H   0  0  0  0  0  0
   -0.4214   48.8982   26.4960 H   0  0  0  0  0  0
   -2.3315   48.8975   26.9887 H   0  0  0  0  0  0
   -4.5115   48.7947   25.1813 H   0  0  0  0  0  0
   -4.5115   47.8143   27.4940 H   0  0  0  0  0  0
   -5.8770   48.8621   27.2375 H   0  0  0  0  0  0
   -3.2961   49.6324   28.7278 H   0  0  0  0  0  0
   -4.8432   49.3081   29.4610 H   0  0  0  0  0  0
   -4.3710   51.7547   29.2160 H   0  0  0  0  0  0
   -5.8333   51.2890   28.3849 H   0  0  0  0  0  0
   -3.1131   51.8383   27.1094 H   0  0  0  0  0  0
   -4.5701   52.7653   26.8831 H   0  0  0  0  0  0
   -5.6574   50.9078   25.6813 H   0  0  0  0  0  0
   -4.1378   51.2724   24.9278 H   0  0  0  0  0  0
    2.9393   52.9925   25.5401 H   0  0  0  0  0  0
    3.2495   54.1084   27.6947 H   0  0  0  0  0  0
   -0.8590   51.4166   26.8935 H   0  0  0  0  0  0
    0.2311   52.9588   31.2544 H   0  0  0  0  0  0
   -0.4934   54.3542   30.3927 H   0  0  0  0  0  0
  1  6  2  0  0  0
  1  2  1  0  0  0
  1 36  1  0  0  0
  2  3  2  0  0  0
  2 37  1  0  0  0
  3  4  1  0  0  0
  3 38  1  0  0  0
  4  5  2  0  0  0
  4 35  1  0  0  0
  5  6  1  0  0  0
  5  7  1  0  0  0
  6 39  1  0  0  0
  7 12  1  0  0  0
  7  8  1  0  0  0
  8  9  1  0  0  0
  8 40  1  0  0  0
  8 41  1  0  0  0
  9 10  1  0  0  0
  9 42  1  0  0  0
  9 43  1  0  0  0
 10 11  1  0  0  0
 10 13  1  0  0  0
 11 12  1  0  0  0
 11 44  1  0  0  0
 11 45  1  0  0  0
 12 46  1  0  0  0
 12 47  1  0  0  0
 13 14  1  0  0  0
 13 15  1  0  0  0
 13 26  1  0  0  0
 15 16  1  0  0  0
 15 48  1  0  0  0
 15 49  1  0  0  0
 16 17  1  0  0  0
 16 50  1  0  0  0
 17 18  2  0  0  0
 17 19  1  0  0  0
 19 20  1  0  0  0
 19 51  1  0  0  0
 20 25  1  0  0  0
 20 21  1  0  0  0
 20 52  1  0  0  0
 21 22  1  0  0  0
 21 53  1  0  0  0
 21 54  1  0  0  0
 22 23  1  0  0  0
 22 55  1  0  0  0
 22 56  1  0  0  0
 23 24  1  0  0  0
 23 57  1  0  0  0
 23 58  1  0  0  0
 24 25  1  0  0  0
 24 59  1  0  0  0
 24 60  1  0  0  0
 25 61  1  0  0  0
 25 62  1  0  0  0
 26 31  2  0  0  0
 26 27  1  0  0  0
 27 28  2  0  0  0
 27 63  1  0  0  0
 28 29  1  0  0  0
 28 64  1  0  0  0
 29 34  1  0  0  0
 29 30  2  0  0  0
 30 31  1  0  0  0
 30 32  1  0  0  0
 31 65  1  0  0  0
 32 33  1  0  0  0
 33 34  1  0  0  0
 33 66  1  0  0  0
 33 67  1  0  0  0
M  END
> <i_i_glide_confnum>
164

> <i_i_glide_lignum>
2050

> <i_i_glide_posenum>
230

> <i_i_glide_rotatable_bonds>
8

> <i_m_Source_File_Index>
3591

> <b_m_subgroup_collapsed>
0

> <r_i_docking_score>
-3.95537

> <r_i_glide_ecoul>
-7.15412

> <r_i_glide_eff_state_penalty>
0

> <r_i_glide_einternal>
5.76123

> <r_i_glide_emodel>
-46.1099

> <r_i_glide_energy>
-39.037

> <r_i_glide_erotb>
0.643749

> <r_i_glide_esite>
-0.233826

> <r_i_glide_evdw>
-31.8829

> <r_i_glide_gscore>
-3.95537

> <r_i_glide_hbond>
-0.238276

> <r_i_glide_ligand_efficiency>
-0.116334

> <r_i_glide_ligand_efficiency_ln>
-0.873852

> <r_i_glide_ligand_efficiency_sa>
-0.376878

> <r_i_glide_lipo>
-1.11175

> <r_i_glide_metal>
0

> <r_i_glide_rewards>
-0.348001

> <s_i_glide_gridfile>
wee1_glide-grid

> <s_m_Source_File>
wee1_decoys_glide_SP.sdf

> <s_m_Source_Path>
/Users/zhangxujun/Desktop

> <s_m_entry_id>
3866

> <s_m_entry_name>
wee1_decoys_glide_SP.3591

> <s_m_subgroup_title>
wee1_decoys_glide_SP

> <s_m_subgroupid>
wee1_decoys_glide_SP


$$$$
