ZINC40227240_3886
                    3D
 Schrodinger Suite 2024-2.
 34 37  0  0  1  0            999 V2000
    0.8275   54.0168   28.6803 C   0  0  0  0  0  0
    0.7184   53.4054   29.9251 C   0  0  0  0  0  0
    1.8526   52.7836   30.4541 C   0  0  0  0  0  0
    2.1708   52.0965   31.6567 C   0  0  0  0  0  0
    3.4228   51.7139   31.6816 N   0  0  0  0  0  0
    3.9592   52.0969   30.5114 N   0  0  0  0  0  0
    4.9328   51.9150   30.3148 H   0  0  0  0  0  0
    3.0560   52.7654   29.7080 C   0  0  0  0  0  0
    3.1740   53.3592   28.4436 C   0  0  0  0  0  0
    2.0263   54.0060   27.9698 C   0  0  0  0  0  0
    4.3707   53.2978   27.7105 N   0  0  0  0  0  0
    4.7864   54.3522   26.7894 C   0  0  1  0  0  0
    4.3418   55.2965   27.0958 H   0  0  0  0  0  0
    6.3089   54.5221   26.8104 C   0  0  0  0  0  0
    6.7044   55.0086   25.4202 C   0  0  0  0  0  0
    5.5860   54.5133   24.5414 C   0  0  0  0  0  0
    4.4806   54.1296   25.3108 C   0  0  0  0  0  0
    3.3156   53.6968   24.6659 C   0  0  0  0  0  0
    3.2552   53.6798   23.2694 C   0  0  0  0  0  0
    4.3595   54.0760   22.5135 C   0  0  0  0  0  0
    5.5253   54.4959   23.1490 C   0  0  0  0  0  0
    4.2829   54.0522   20.6131 Br  0  0  0  0  0  0
   -0.0367   54.4964   28.2552 H   0  0  0  0  0  0
   -0.2117   53.4144   30.4737 H   0  0  0  0  0  0
    1.5024   51.8901   32.4809 H   0  0  0  0  0  0
    2.0491   54.4966   27.0135 H   0  0  0  0  0  0
    5.1056   52.6992   28.0586 H   0  0  0  0  0  0
    6.6390   55.2023   27.5969 H   0  0  0  0  0  0
    6.8036   53.5647   26.9934 H   0  0  0  0  0  0
    6.7594   56.0971   25.3944 H   0  0  0  0  0  0
    7.6726   54.6180   25.1142 H   0  0  0  0  0  0
    2.4521   53.3734   25.2251 H   0  0  0  0  0  0
    2.3539   53.3553   22.7696 H   0  0  0  0  0  0
    6.3704   54.8136   22.5564 H   0  0  0  0  0  0
  1 10  2  0  0  0
  1  2  1  0  0  0
  1 23  1  0  0  0
  2  3  2  0  0  0
  2 24  1  0  0  0
  3  8  1  0  0  0
  3  4  1  0  0  0
  4  5  2  0  0  0
  4 25  1  0  0  0
  5  6  1  0  0  0
  6  7  1  0  0  0
  6  8  1  0  0  0
  8  9  2  0  0  0
  9 10  1  0  0  0
  9 11  1  0  0  0
 10 26  1  0  0  0
 11 12  1  0  0  0
 11 27  1  0  0  0
 12 13  1  0  0  0
 12 17  1  0  0  0
 12 14  1  0  0  0
 14 15  1  0  0  0
 14 28  1  0  0  0
 14 29  1  0  0  0
 15 16  1  0  0  0
 15 30  1  0  0  0
 15 31  1  0  0  0
 16 21  2  0  0  0
 16 17  1  0  0  0
 17 18  2  0  0  0
 18 19  1  0  0  0
 18 32  1  0  0  0
 19 20  2  0  0  0
 19 33  1  0  0  0
 20 21  1  0  0  0
 20 22  1  0  0  0
 21 34  1  0  0  0
M  END
> <i_i_glide_confnum>
3

> <i_i_glide_lignum>
3887

> <i_i_glide_posenum>
112

> <i_i_glide_rotatable_bonds>
2

> <i_m_Source_File_Index>
2408

> <b_m_subgroup_collapsed>
0

> <r_i_docking_score>
-6.30019

> <r_i_glide_ecoul>
-1.31565

> <r_i_glide_eff_state_penalty>
0

> <r_i_glide_einternal>
2.97691

> <r_i_glide_emodel>
-50.2857

> <r_i_glide_energy>
-36.9497

> <r_i_glide_erotb>
0.348655

> <r_i_glide_esite>
0

> <r_i_glide_evdw>
-35.634

> <r_i_glide_gscore>
-6.30019

> <r_i_glide_hbond>
-0.314476

> <r_i_glide_ligand_efficiency>
-0.31501

> <r_i_glide_ligand_efficiency_ln>
-1.57673

> <r_i_glide_ligand_efficiency_sa>
-0.855067

> <r_i_glide_lipo>
-3.09233

> <r_i_glide_metal>
0

> <r_i_glide_rewards>
-1.26299

> <s_i_glide_gridfile>
wee1_glide-grid

> <s_m_Source_File>
wee1_decoys_glide_SP.sdf

> <s_m_Source_Path>
/Users/zhangxujun/Desktop

> <s_m_entry_id>
2683

> <s_m_entry_name>
wee1_decoys_glide_SP.2408

> <s_m_subgroup_title>
wee1_decoys_glide_SP

> <s_m_subgroupid>
wee1_decoys_glide_SP


$$$$
