@<TRIPOS>MOLECULE
ZINC21185576_2255
57   59    1
SMALL
USER_CHARGES


@<TRIPOS>ATOM
      1 C1          5.9378   52.8988   28.0912 C.3       1 UNK         0.0000 
      2 C2          5.6077   54.3859   27.9511 C.3       1 UNK         0.0000 
      3 H3          5.9949   54.8946   28.8355 H         1 UNK         0.0000 
      4 C4          4.0831   54.6311   27.9367 C.3       1 UNK         0.0000 
      5 C5          3.3657   54.0319   26.7025 C.3       1 UNK         0.0000 
      6 C6          4.2190   54.1780   25.4368 C.2       1 UNK         0.0000 
      7 C7          5.5646   54.5920   25.4686 C.2       1 UNK         0.0000 
      8 S8          6.3032   54.5715   23.8951 S.3       1 UNK         0.0000 
      9 C9          4.8245   54.0125   23.1908 C.ar      1 UNK         0.0000 
     10 C10         3.8023   53.8757   24.1219 C.ar      1 UNK         0.0000 
     11 C11         2.4917   53.4209   23.6609 C.ar      1 UNK         0.0000 
     12 O12         1.4937   53.2886   24.3784 O.2       1 UNK         0.0000 
     13 N13         2.5036   53.1244   22.2968 N.pl3     1 UNK         0.0000 
     14 C14         3.5874   53.3118   21.4222 C.ar      1 UNK         0.0000 
     15 N15         4.7200   53.7304   21.8681 N.2       1 UNK         0.0000 
     16 S16         3.3997   52.9941   19.6328 S.3       1 UNK         0.0000 
     17 C17         4.8820   53.6175   18.7397 C.3       1 UNK         0.0000 
     18 H18         5.5994   52.7962   18.7542 H         1 UNK         0.0000 
     19 C19         5.6318   54.8729   19.2638 C.3       1 UNK         0.0000 
     20 C20         4.4591   53.8075   17.2656 C.2       1 UNK         0.0000 
     21 O21         4.1947   54.9444   16.8601 O.2       1 UNK         0.0000 
     22 N22         4.3480   52.6790   16.5231 N.am      1 UNK         0.0000 
     23 C23         3.9133   52.5777   15.2455 C.2       1 UNK         0.0000 
     24 O24         3.6761   53.5187   14.4832 O.2       1 UNK         0.0000 
     25 N25         3.7585   51.2968   14.8816 N.am      1 UNK         0.0000 
     26 C26         3.3726   50.8666   13.5460 C.3       1 UNK         0.0000 
     27 C27         1.2337   52.5384   21.7818 C.3       1 UNK         0.0000 
     28 C28         1.2260   50.9895   21.6349 C.3       1 UNK         0.0000 
     29 C29         1.5492   50.2371   22.9407 C.3       1 UNK         0.0000 
     30 C30        -0.1217   50.5171   21.0605 C.3       1 UNK         0.0000 
     31 C31         6.3158   55.0080   26.7210 C.3       1 UNK         0.0000 
     32 H32         5.5057   52.3539   27.2582 H         1 UNK         0.0000 
     33 H33         7.0121   52.7115   28.0832 H         1 UNK         0.0000 
     34 H34         5.5043   52.4930   29.0073 H         1 UNK         0.0000 
     35 H35         3.6369   54.1804   28.8225 H         1 UNK         0.0000 
     36 H36         3.8620   55.6857   28.0321 H         1 UNK         0.0000 
     37 H37         2.3881   54.4961   26.5822 H         1 UNK         0.0000 
     38 H38         3.1689   52.9723   26.8732 H         1 UNK         0.0000 
     39 H39         6.3370   55.2588   18.5261 H         1 UNK         0.0000 
     40 H40         4.9429   55.6816   19.5065 H         1 UNK         0.0000 
     41 H41         6.2375   54.6613   20.1434 H         1 UNK         0.0000 
     42 H42         4.5700   51.8115   17.0009 H         1 UNK         0.0000 
     43 H43         3.9049   50.5593   15.5690 H         1 UNK         0.0000 
     44 H44         3.3860   49.7782   13.4874 H         1 UNK         0.0000 
     45 H45         4.0597   51.2588   12.7955 H         1 UNK         0.0000 
     46 H46         2.3648   51.2113   13.3092 H         1 UNK         0.0000 
     47 H47         0.3745   52.8367   22.3867 H         1 UNK         0.0000 
     48 H48         1.0098   52.9815   20.8117 H         1 UNK         0.0000 
     49 H49         1.9871   50.7157   20.9026 H         1 UNK         0.0000 
     50 H50         0.8630   50.5115   23.7430 H         1 UNK         0.0000 
     51 H51         1.4866   49.1559   22.8044 H         1 UNK         0.0000 
     52 H52         2.5624   50.4530   23.2803 H         1 UNK         0.0000 
     53 H53        -0.9456   50.7469   21.7372 H         1 UNK         0.0000 
     54 H54        -0.3318   50.9980   20.1035 H         1 UNK         0.0000 
     55 H55        -0.1231   49.4385   20.8918 H         1 UNK         0.0000 
     56 H56         7.3467   54.6610   26.6775 H         1 UNK         0.0000 
     57 H57         6.3778   56.0946   26.7993 H         1 UNK         0.0000 
@<TRIPOS>BOND
     1    1    2 1    
     2    1   32 1    
     3    1   33 1    
     4    1   34 1    
     5    2    3 1    
     6    2   31 1    
     7    2    4 1    
     8    4    5 1    
     9    4   35 1    
    10    4   36 1    
    11    5    6 1    
    12    5   37 1    
    13    5   38 1    
    14    6   10 1    
    15    6    7 2    
    16    7    8 1    
    17    7   31 1    
    18    8    9 1    
    19    9   15 ar   
    20    9   10 ar   
    21   10   11 ar   
    22   11   12 2    
    23   11   13 ar   
    24   13   14 ar   
    25   13   27 1    
    26   14   15 ar   
    27   14   16 1    
    28   16   17 1    
    29   17   18 1    
    30   17   19 1    
    31   17   20 1    
    32   19   39 1    
    33   19   40 1    
    34   19   41 1    
    35   20   21 2    
    36   20   22 am   BACKBONE|DICT|INTERRES
    37   22   23 am   BACKBONE|DICT|INTERRES
    38   22   42 1    
    39   23   24 2    
    40   23   25 am   BACKBONE|DICT|INTERRES
    41   25   26 1    
    42   25   43 1    
    43   26   44 1    
    44   26   45 1    
    45   26   46 1    
    46   27   28 1    
    47   27   47 1    
    48   27   48 1    
    49   28   29 1    
    50   28   30 1    
    51   28   49 1    
    52   29   50 1    
    53   29   51 1    
    54   29   52 1    
    55   30   53 1    
    56   30   54 1    
    57   30   55 1    
    58   31   56 1    
    59   31   57 1    
@<TRIPOS>SUBSTRUCTURE
     1 UNK         1 GROUP             0       ****    0 ROOT    
