@<TRIPOS>MOLECULE
ZINC63067335_1920
39   40    1
SMALL
USER_CHARGES


@<TRIPOS>ATOM
      1 C1          3.5029   53.3150   29.8753 C.3       1 UNK         0.0000 
      2 C2          2.0026   53.6344   29.6231 C.3       1 UNK         0.0000 
      3 C3          1.1734   52.8624   30.6725 C.3       1 UNK         0.0000 
      4 C4         -0.1390   52.5863   29.9878 C.3       1 UNK         0.0000 
      5 C5          0.3000   52.3750   28.5481 C.3       1 UNK         0.0000 
      6 N6          1.5148   53.1655   28.3031 N.pl3     1 UNK         0.0000 
      7 C7          2.0635   53.3768   27.0175 C.ar      1 UNK         0.0000 
      8 C8          3.1678   54.2034   26.8114 C.ar      1 UNK         0.0000 
      9 C9          3.7304   54.3585   25.5528 C.ar      1 UNK         0.0000 
     10 C10         3.2195   53.7032   24.4198 C.ar      1 UNK         0.0000 
     11 C11         2.0580   52.8968   24.5975 C.ar      1 UNK         0.0000 
     12 C12         1.5124   52.7587   25.8880 C.ar      1 UNK         0.0000 
     13 C13         1.4022   52.0762   23.4658 C.3       1 UNK         0.0000 
     14 F14         2.3042   51.4718   22.6966 F         1 UNK         0.0000 
     15 F15         0.5940   51.1183   23.9250 F         1 UNK         0.0000 
     16 F16         0.6739   52.8966   22.7084 F         1 UNK         0.0000 
     17 C17         3.9572   53.9309   23.1414 C.2       1 UNK         0.0000 
     18 N18         5.2360   53.9333   23.1731 N.2       1 UNK         0.0000 
     19 O19         5.8516   54.2905   21.9574 O.3       1 UNK         0.0000 
     20 N20         3.1044   54.1631   22.0821 N.pl3     1 UNK         0.0000 
     21 C21         1.7376   55.1577   29.7569 C.3       1 UNK         0.0000 
     22 H22         3.7367   53.2875   30.9378 H         1 UNK         0.0000 
     23 H23         3.7700   52.3336   29.4764 H         1 UNK         0.0000 
     24 H24         4.1928   54.0385   29.4461 H         1 UNK         0.0000 
     25 H25         1.0822   53.3735   31.6320 H         1 UNK         0.0000 
     26 H26         1.6438   51.9047   30.9026 H         1 UNK         0.0000 
     27 H27        -0.8230   53.4314   30.0657 H         1 UNK         0.0000 
     28 H28        -0.6469   51.7116   30.3984 H         1 UNK         0.0000 
     29 H29        -0.4952   52.7370   27.8954 H         1 UNK         0.0000 
     30 H30         0.4633   51.3159   28.3378 H         1 UNK         0.0000 
     31 H31         3.6177   54.7587   27.6119 H         1 UNK         0.0000 
     32 H32         4.5937   55.0058   25.4748 H         1 UNK         0.0000 
     33 H33         0.6529   52.1216   26.0217 H         1 UNK         0.0000 
     34 H34         5.1013   54.4582   21.3854 H         1 UNK         0.0000 
     35 H35         3.4078   54.2862   21.1295 H         1 UNK         0.0000 
     36 H36         2.1065   54.0932   22.2267 H         1 UNK         0.0000 
     37 H37         1.9047   55.5224   30.7708 H         1 UNK         0.0000 
     38 H38         2.3545   55.7571   29.0891 H         1 UNK         0.0000 
     39 H39         0.7048   55.3973   29.5087 H         1 UNK         0.0000 
@<TRIPOS>BOND
     1    1    2 1    
     2    1   22 1    
     3    1   23 1    
     4    1   24 1    
     5    2    6 1    
     6    2    3 1    
     7    2   21 1    
     8    3    4 1    
     9    3   25 1    
    10    3   26 1    
    11    4    5 1    
    12    4   27 1    
    13    4   28 1    
    14    5    6 1    
    15    5   29 1    
    16    5   30 1    
    17    6    7 1    
    18    7   12 ar   
    19    7    8 ar   
    20    8    9 ar   
    21    8   31 1    
    22    9   10 ar   
    23    9   32 1    
    24   10   11 ar   
    25   10   17 1    
    26   11   12 ar   
    27   11   13 1    
    28   12   33 1    
    29   13   14 1    
    30   13   15 1    
    31   13   16 1    
    32   17   18 2    
    33   17   20 1    
    34   18   19 1    
    35   19   34 1    
    36   20   35 1    
    37   20   36 1    
    38   21   37 1    
    39   21   38 1    
    40   21   39 1    
@<TRIPOS>SUBSTRUCTURE
     1 UNK         1 GROUP             0       ****    0 ROOT    
