@<TRIPOS>MOLECULE
ZINC36013988_882
75   77    1
SMALL
USER_CHARGES


@<TRIPOS>ATOM
      1 C1          2.1070   50.2386   18.8756 C.3       1 UNK         0.0000 
      2 C2          1.8027   51.7371   19.0603 C.3       1 UNK         0.0000 
      3 N3          2.9826   52.6558   19.1164 N.am      1 UNK         0.0000 
      4 C4          3.7929   52.8672   20.2426 C.2       1 UNK         0.0000 
      5 C5          4.6774   53.9188   20.2895 C.2       1 UNK         0.0000 
      6 C6          4.9827   54.7048   18.9910 C.3       1 UNK         0.0000 
      7 H7          5.0532   55.7782   19.1801 H         1 UNK         0.0000 
      8 N8          3.8569   54.5271   18.0615 N.am      1 UNK         0.0000 
      9 C9          3.0769   53.4262   17.9758 C.2       1 UNK         0.0000 
     10 O10         2.5846   53.1848   16.8725 O.2       1 UNK         0.0000 
     11 C11         6.3487   54.3721   18.3558 C.ar      1 UNK         0.0000 
     12 C12         7.4431   55.2290   18.5386 C.ar      1 UNK         0.0000 
     13 C13         8.6917   54.9079   18.0112 C.ar      1 UNK         0.0000 
     14 C14         8.8578   53.7280   17.2856 C.ar      1 UNK         0.0000 
     15 C15         7.7724   52.8753   17.0851 C.ar      1 UNK         0.0000 
     16 C16         6.5287   53.1940   17.6233 C.ar      1 UNK         0.0000 
     17 C17        10.2199   53.3578   16.7266 C.3       1 UNK         0.0000 
     18 C18         5.5045   54.3772   21.4536 C.2       1 UNK         0.0000 
     19 O19         6.3221   55.2958   21.3506 O.2       1 UNK         0.0000 
     20 O20         5.3046   53.7525   22.6364 O.3       1 UNK         0.0000 
     21 C21         6.1833   53.9311   23.7532 C.3       1 UNK         0.0000 
     22 C22         6.1189   55.3075   24.4313 C.3       1 UNK         0.0000 
     23 C23         3.5834   51.8252   21.3728 C.3       1 UNK         0.0000 
     24 N24         2.2682   51.9971   22.1788 N.4       1 UNK         0.0000 
     25 C25         2.2367   53.3494   22.9174 C.3       1 UNK         0.0000 
     26 C26         0.8161   53.7020   23.3340 C.3       1 UNK         0.0000 
     27 C27         0.4147   53.2017   24.7209 C.3       1 UNK         0.0000 
     28 N28         0.5262   51.7494   24.9596 N.am      1 UNK         0.0000 
     29 C29         0.5307   50.8583   23.7743 C.3       1 UNK         0.0000 
     30 C30         1.8812   50.7486   23.0211 C.3       1 UNK         0.0000 
     31 C31         0.5683   51.2330   26.2257 C.2       1 UNK         0.0000 
     32 O32         0.5891   50.0217   26.4406 O.2       1 UNK         0.0000 
     33 N33         0.7036   52.1217   27.2359 N.am      1 UNK         0.0000 
     34 C34         0.7193   51.8139   28.6670 C.3       1 UNK         0.0000 
     35 C35         1.4528   52.9190   29.4452 C.3       1 UNK         0.0000 
     36 C36        -0.6997   51.5889   29.2191 C.3       1 UNK         0.0000 
     37 H37         1.3974   49.7762   18.1885 H         1 UNK         0.0000 
     38 H38         3.1044   50.0734   18.4814 H         1 UNK         0.0000 
     39 H39         2.0366   49.6871   19.8116 H         1 UNK         0.0000 
     40 H40         1.1869   51.8894   19.9416 H         1 UNK         0.0000 
     41 H41         1.1173   51.9964   18.2498 H         1 UNK         0.0000 
     42 H42         3.8994   55.0498   17.1996 H         1 UNK         0.0000 
     43 H43         7.3376   56.1441   19.1024 H         1 UNK         0.0000 
     44 H44         9.5287   55.5714   18.1764 H         1 UNK         0.0000 
     45 H45         7.8930   51.9545   16.5330 H         1 UNK         0.0000 
     46 H46         5.7126   52.5005   17.4796 H         1 UNK         0.0000 
     47 H47        10.9209   54.1940   16.7679 H         1 UNK         0.0000 
     48 H48        10.6385   52.5132   17.2803 H         1 UNK         0.0000 
     49 H49        10.1278   53.0557   15.6824 H         1 UNK         0.0000 
     50 H50         5.9013   53.1924   24.4993 H         1 UNK         0.0000 
     51 H51         7.2098   53.7015   23.4602 H         1 UNK         0.0000 
     52 H52         6.6997   55.3049   25.3537 H         1 UNK         0.0000 
     53 H53         6.5289   56.0945   23.7977 H         1 UNK         0.0000 
     54 H54         5.0954   55.5723   24.6857 H         1 UNK         0.0000 
     55 H55         4.3970   51.7321   22.0815 H         1 UNK         0.0000 
     56 H56         3.5301   50.8375   20.9232 H         1 UNK         0.0000 
     57 H57         2.5699   54.0931   22.1926 H         1 UNK         0.0000 
     58 H58         2.9513   53.3007   23.7408 H         1 UNK         0.0000 
     59 H59         0.1220   53.2965   22.6021 H         1 UNK         0.0000 
     60 H60         0.7046   54.7848   23.2912 H         1 UNK         0.0000 
     61 H61        -0.6307   53.4697   24.8747 H         1 UNK         0.0000 
     62 H62         1.0373   53.7378   25.4387 H         1 UNK         0.0000 
     63 H63         0.2561   49.8487   24.0893 H         1 UNK         0.0000 
     64 H64        -0.2730   51.1262   23.0879 H         1 UNK         0.0000 
     65 H65         2.7043   50.5004   23.6825 H         1 UNK         0.0000 
     66 H66         1.8192   49.9435   22.2859 H         1 UNK         0.0000 
     67 H67         0.8096   53.0953   27.0010 H         1 UNK         0.0000 
     68 H68         1.2925   50.8966   28.8161 H         1 UNK         0.0000 
     69 H69         1.4402   52.7102   30.5166 H         1 UNK         0.0000 
     70 H70         0.9758   53.8917   29.3153 H         1 UNK         0.0000 
     71 H71         2.4997   52.9901   29.1466 H         1 UNK         0.0000 
     72 H72        -0.6780   51.2972   30.2698 H         1 UNK         0.0000 
     73 H73        -1.2952   52.4969   29.1659 H         1 UNK         0.0000 
     74 H74        -1.2307   50.8106   28.6704 H         1 UNK         0.0000 
     75 H75         1.5476   52.0751   21.4754 H         1 UNK         0.0000 
@<TRIPOS>BOND
     1    1    2 1    
     2    1   37 1    
     3    1   38 1    
     4    1   39 1    
     5    2    3 1    
     6    2   40 1    
     7    2   41 1    
     8    3    9 am   BACKBONE|DICT|INTERRES
     9    3    4 1    
    10    4    5 2    
    11    4   23 1    
    12    5    6 1    
    13    5   18 1    
    14    6    7 1    
    15    6    8 1    
    16    6   11 1    
    17    8    9 am   BACKBONE|DICT|INTERRES
    18    8   42 1    
    19    9   10 2    
    20   11   16 ar   
    21   11   12 ar   
    22   12   13 ar   
    23   12   43 1    
    24   13   14 ar   
    25   13   44 1    
    26   14   15 ar   
    27   14   17 1    
    28   15   16 ar   
    29   15   45 1    
    30   16   46 1    
    31   17   47 1    
    32   17   48 1    
    33   17   49 1    
    34   18   19 2    
    35   18   20 1    
    36   20   21 1    
    37   21   22 1    
    38   21   50 1    
    39   21   51 1    
    40   22   52 1    
    41   22   53 1    
    42   22   54 1    
    43   23   24 1    
    44   23   55 1    
    45   23   56 1    
    46   24   30 1    
    47   24   25 1    
    48   24   75 1    
    49   25   26 1    
    50   25   57 1    
    51   25   58 1    
    52   26   27 1    
    53   26   59 1    
    54   26   60 1    
    55   27   28 1    
    56   27   61 1    
    57   27   62 1    
    58   28   29 1    
    59   28   31 am   BACKBONE|DICT|INTERRES
    60   29   30 1    
    61   29   63 1    
    62   29   64 1    
    63   30   65 1    
    64   30   66 1    
    65   31   32 2    
    66   31   33 am   BACKBONE|DICT|INTERRES
    67   33   34 1    
    68   33   67 1    
    69   34   35 1    
    70   34   36 1    
    71   34   68 1    
    72   35   69 1    
    73   35   70 1    
    74   35   71 1    
    75   36   72 1    
    76   36   73 1    
    77   36   74 1    
@<TRIPOS>SUBSTRUCTURE
     1 UNK         1 GROUP             0       ****    0 ROOT    
