@<TRIPOS>MOLECULE
ZINC40823293_994
57   59    1
SMALL
USER_CHARGES


@<TRIPOS>ATOM
      1 C1          6.4455   53.5603   28.0755 C.3       1 UNK         0.0000 
      2 C2          5.5307   54.7693   27.8333 C.3       1 UNK         0.0000 
      3 N3          4.1996   54.3948   27.3234 N.am      1 UNK         0.0000 
      4 C4          3.2715   54.0289   28.3177 C.ar      1 UNK         0.0000 
      5 C5          3.0398   52.6826   28.6197 C.ar      1 UNK         0.0000 
      6 C6          2.0867   52.3317   29.5708 C.ar      1 UNK         0.0000 
      7 C7          1.4003   53.3196   30.2714 C.ar      1 UNK         0.0000 
      8 C8          1.6650   54.6702   30.0170 C.ar      1 UNK         0.0000 
      9 C9          2.5897   55.0219   29.0304 C.ar      1 UNK         0.0000 
     10 C10         0.9728   55.7436   30.8306 C.3       1 UNK         0.0000 
     11 C11         4.0203   54.2592   25.9645 C.2       1 UNK         0.0000 
     12 O12         4.9101   54.5953   25.1774 O.2       1 UNK         0.0000 
     13 C13         2.7854   53.6925   25.4010 C.2       1 UNK         0.0000 
     14 C14         2.4203   53.4006   24.0625 C.2       1 UNK         0.0000 
     15 C15         1.1586   52.7576   24.1541 C.2       1 UNK         0.0000 
     16 C16         0.8107   52.7505   25.4953 C.2       1 UNK         0.0000 
     17 O17         1.7655   53.3500   26.2293 O.3       1 UNK         0.0000 
     18 C18        -0.4467   52.2158   26.1451 C.3       1 UNK         0.0000 
     19 C19        -1.5080   52.1184   25.0338 C.3       1 UNK         0.0000 
     20 C20        -0.9778   51.4370   23.7482 C.3       1 UNK         0.0000 
     21 C21         0.2477   52.1849   23.1366 C.2       1 UNK         0.0000 
     22 N22         0.5697   52.3246   21.9056 N.2       1 UNK         0.0000 
     23 N23        -0.2713   51.8454   21.0046 N.2       1 UNK         0.0000 
     24 C24         0.3043   51.7083   19.8161 C.2       1 UNK         0.0000 
     25 O25         1.4990   51.9040   19.5328 O.2       1 UNK         0.0000 
     26 C26        -0.5867   51.2438   18.6258 C.3       1 UNK         0.0000 
     27 C27        -2.1365   51.2128   18.8662 C.3       1 UNK         0.0000 
     28 C28        -2.9440   50.7702   17.6171 C.3       1 UNK         0.0000 
     29 F29        -4.2562   50.7693   17.8688 F         1 UNK         0.0000 
     30 F30        -2.6218   49.5380   17.2159 F         1 UNK         0.0000 
     31 F31        -2.7504   51.5795   16.5733 F         1 UNK         0.0000 
     32 F32        -2.5647   52.4274   19.2348 F         1 UNK         0.0000 
     33 F33        -2.4586   50.3846   19.8685 F         1 UNK         0.0000 
     34 F34        -0.1608   50.0308   18.2590 F         1 UNK         0.0000 
     35 F35        -0.3190   52.0462   17.5869 F         1 UNK         0.0000 
     36 C36         3.2384   53.6133   22.7940 C.3       1 UNK         0.0000 
     37 H37         7.4233   53.8823   28.4366 H         1 UNK         0.0000 
     38 H38         6.0177   52.8968   28.8288 H         1 UNK         0.0000 
     39 H39         6.6018   52.9871   27.1591 H         1 UNK         0.0000 
     40 H40         6.0187   55.4798   27.1633 H         1 UNK         0.0000 
     41 H41         5.4117   55.2977   28.7815 H         1 UNK         0.0000 
     42 H42         3.5638   51.9113   28.0814 H         1 UNK         0.0000 
     43 H43         1.8646   51.2947   29.7542 H         1 UNK         0.0000 
     44 H44         0.6761   53.0323   31.0220 H         1 UNK         0.0000 
     45 H45         2.7757   56.0653   28.8193 H         1 UNK         0.0000 
     46 H46         0.4061   55.2930   31.6483 H         1 UNK         0.0000 
     47 H47         1.7108   56.4249   31.2601 H         1 UNK         0.0000 
     48 H48         0.3120   56.3413   30.2106 H         1 UNK         0.0000 
     49 H49        -0.7965   52.8825   26.9346 H         1 UNK         0.0000 
     50 H50        -0.2637   51.2390   26.5959 H         1 UNK         0.0000 
     51 H51        -1.8723   53.1174   24.7922 H         1 UNK         0.0000 
     52 H52        -2.3731   51.5709   25.4089 H         1 UNK         0.0000 
     53 H53        -1.7944   51.3862   23.0289 H         1 UNK         0.0000 
     54 H54        -0.6954   50.4042   23.9558 H         1 UNK         0.0000 
     55 H55         4.3025   53.7601   22.9648 H         1 UNK         0.0000 
     56 H56         3.1817   52.7457   22.1351 H         1 UNK         0.0000 
     57 H57         2.8616   54.4542   22.2099 H         1 UNK         0.0000 
@<TRIPOS>BOND
     1    1    2 1    
     2    1   37 1    
     3    1   38 1    
     4    1   39 1    
     5    2    3 1    
     6    2   40 1    
     7    2   41 1    
     8    3    4 1    
     9    3   11 am   BACKBONE|DICT|INTERRES
    10    4    9 ar   
    11    4    5 ar   
    12    5    6 ar   
    13    5   42 1    
    14    6    7 ar   
    15    6   43 1    
    16    7    8 ar   
    17    7   44 1    
    18    8    9 ar   
    19    8   10 1    
    20    9   45 1    
    21   10   46 1    
    22   10   47 1    
    23   10   48 1    
    24   11   12 2    
    25   11   13 1    
    26   13   17 1    
    27   13   14 2    
    28   14   15 1    
    29   14   36 1    
    30   15   21 1    
    31   15   16 2    
    32   16   17 1    
    33   16   18 1    
    34   18   19 1    
    35   18   49 1    
    36   18   50 1    
    37   19   20 1    
    38   19   51 1    
    39   19   52 1    
    40   20   21 1    
    41   20   53 1    
    42   20   54 1    
    43   21   22 2    
    44   22   23 1    
    45   23   24 1    
    46   24   25 2    
    47   24   26 1    
    48   26   27 1    
    49   26   34 1    
    50   26   35 1    
    51   27   28 1    
    52   27   32 1    
    53   27   33 1    
    54   28   29 1    
    55   28   30 1    
    56   28   31 1    
    57   36   55 1    
    58   36   56 1    
    59   36   57 1    
@<TRIPOS>SUBSTRUCTURE
     1 UNK         1 GROUP             0       ****    0 ROOT    
