ZINC39964419_2264
                    3D
 Schrodinger Suite 2024-2.
 55 58  0  0  1  0            999 V2000
    1.7486   54.3256   29.5244 C   0  0  0  0  0  0
    2.5692   53.0981   29.0562 C   0  0  0  0  0  0
    3.8938   53.0524   29.8643 C   0  0  0  0  0  0
    1.7702   51.8188   29.4109 C   0  0  0  0  0  0
    2.8777   53.1452   27.5114 C   0  0  2  0  0  0
    3.6125   52.3641   27.3271 H   0  0  0  0  0  0
    3.5811   54.4423   27.0327 C   0  0  0  0  0  0
    4.0708   54.3364   25.5733 C   0  0  0  0  0  0
    2.9437   53.8601   24.6610 C   0  0  0  0  0  0
    1.8850   53.1680   25.1329 C   0  0  0  0  0  0
    1.6431   52.8401   26.6029 C   0  0  0  0  0  0
    0.7233   52.6751   23.8835 S   0  0  0  0  0  0
    1.7318   53.3491   22.5401 C   0  0  1  0  0  0
    1.1049   54.1687   22.1994 H   0  0  0  0  0  0
    2.9835   54.0194   23.1512 C   0  0  2  0  0  0
    2.9327   55.0871   22.9432 H   0  0  0  0  0  0
    4.2741   53.5989   22.5722 C   0  0  0  0  0  0
    5.2868   53.2741   22.1186 N   0  0  0  0  0  0
    1.9623   52.4961   21.3605 N   0  0  0  0  0  0
    2.3878   51.2157   21.3333 C   0  0  0  0  0  0
    2.7023   50.5906   22.3417 O   0  0  0  0  0  0
    2.4721   50.5053   19.9760 C   0  0  0  0  0  0
    1.3423   51.1224   18.6751 S   0  0  0  0  0  0
    2.3010   52.4641   18.0572 C   0  0  0  0  0  0
    1.8013   53.5934   17.6287 N   0  0  0  0  0  0
    4.3140   51.7383   18.0813 H   0  0  0  0  0  0
    2.8757   54.2900   17.2773 C   0  0  0  0  0  0
    4.0344   53.6762   17.4062 N   0  0  0  0  0  0
    3.6581   52.4968   17.8938 N   0  0  0  0  0  0
    2.7936   55.6589   16.7829 C   0  0  0  0  0  0
    3.7469   56.6261   16.4840 C   0  0  0  0  0  0
    3.0674   57.7624   16.0472 C   0  0  0  0  0  0
    1.7231   57.4414   16.0863 C   0  0  0  0  0  0
    1.5527   56.1716   16.5368 O   0  0  0  0  0  0
    1.4439   54.2276   30.5679 H   0  0  0  0  0  0
    0.8368   54.4545   28.9428 H   0  0  0  0  0  0
    2.3196   55.2513   29.4475 H   0  0  0  0  0  0
    4.5416   52.2393   29.5289 H   0  0  0  0  0  0
    4.4611   53.9802   29.7754 H   0  0  0  0  0  0
    3.7155   52.8965   30.9284 H   0  0  0  0  0  0
    2.2558   50.9202   29.0273 H   0  0  0  0  0  0
    1.6648   51.6992   30.4890 H   0  0  0  0  0  0
    0.7582   51.8339   29.0042 H   0  0  0  0  0  0
    2.9240   55.2969   27.1762 H   0  0  0  0  0  0
    4.4477   54.6536   27.6596 H   0  0  0  0  0  0
    4.4825   55.2889   25.2401 H   0  0  0  0  0  0
    4.9152   53.6497   25.5181 H   0  0  0  0  0  0
    1.4029   51.7787   26.6794 H   0  0  0  0  0  0
    0.7528   53.3570   26.9593 H   0  0  0  0  0  0
    1.7457   52.9269   20.4714 H   0  0  0  0  0  0
    3.5049   50.4975   19.6311 H   0  0  0  0  0  0
    2.2131   49.4604   20.1441 H   0  0  0  0  0  0
    4.8172   56.5158   16.5810 H   0  0  0  0  0  0
    3.4977   58.7090   15.7546 H   0  0  0  0  0  0
    0.8260   57.9944   15.8555 H   0  0  0  0  0  0
  1  2  1  0  0  0
  1 35  1  0  0  0
  1 36  1  0  0  0
  1 37  1  0  0  0
  2  3  1  0  0  0
  2  4  1  0  0  0
  2  5  1  0  0  0
  3 38  1  0  0  0
  3 39  1  0  0  0
  3 40  1  0  0  0
  4 41  1  0  0  0
  4 42  1  0  0  0
  4 43  1  0  0  0
  5  6  1  0  0  0
  5 11  1  0  0  0
  5  7  1  0  0  0
  7  8  1  0  0  0
  7 44  1  0  0  0
  7 45  1  0  0  0
  8  9  1  0  0  0
  8 46  1  0  0  0
  8 47  1  0  0  0
  9 15  1  0  0  0
  9 10  2  0  0  0
 10 11  1  0  0  0
 10 12  1  0  0  0
 11 48  1  0  0  0
 11 49  1  0  0  0
 12 13  1  0  0  0
 13 14  1  0  0  0
 13 15  1  0  0  0
 13 19  1  0  0  0
 15 16  1  0  0  0
 15 17  1  0  0  0
 17 18  3  0  0  0
 19 20  1  0  0  0
 19 50  1  0  0  0
 20 21  2  0  0  0
 20 22  1  0  0  0
 22 51  1  0  0  0
 22 52  1  0  0  0
 22 23  1  0  0  0
 23 24  1  0  0  0
 24 25  2  0  0  0
 24 29  1  0  0  0
 25 27  1  0  0  0
 26 29  1  0  0  0
 27 30  1  0  0  0
 27 28  2  0  0  0
 28 29  1  0  0  0
 30 34  1  0  0  0
 30 31  2  0  0  0
 31 32  1  0  0  0
 31 53  1  0  0  0
 32 33  2  0  0  0
 32 54  1  0  0  0
 33 34  1  0  0  0
 33 55  1  0  0  0
M  END
> <i_i_glide_confnum>
36

> <i_i_glide_lignum>
2265

> <i_i_glide_posenum>
287

> <i_i_glide_rotatable_bonds>
8

> <i_m_Source_File_Index>
232

> <b_m_subgroup_collapsed>
0

> <r_i_docking_score>
-5.49717

> <r_i_glide_ecoul>
-5.71633

> <r_i_glide_eff_state_penalty>
0

> <r_i_glide_einternal>
4.51582

> <r_i_glide_emodel>
-54.2998

> <r_i_glide_energy>
-41.857

> <r_i_glide_erotb>
0.609633

> <r_i_glide_esite>
-0.132965

> <r_i_glide_evdw>
-36.1407

> <r_i_glide_gscore>
-5.49717

> <r_i_glide_hbond>
-0.189695

> <r_i_glide_ligand_efficiency>
-0.183239

> <r_i_glide_ligand_efficiency_ln>
-1.24902

> <r_i_glide_ligand_efficiency_sa>
-0.569366

> <r_i_glide_lipo>
-2.35185

> <r_i_glide_metal>
0

> <r_i_glide_rewards>
-0.76781

> <s_i_glide_gridfile>
wee1_glide-grid

> <s_m_Source_File>
wee1_decoys_glide_SP.sdf

> <s_m_Source_Path>
/Users/zhangxujun/Desktop

> <s_m_entry_id>
507

> <s_m_entry_name>
wee1_decoys_glide_SP.232

> <s_m_subgroup_title>
wee1_decoys_glide_SP

> <s_m_subgroupid>
wee1_decoys_glide_SP


$$$$
