ZINC09790932_61
                    3D
 Schrodinger Suite 2024-2.
 47 50  0  0  1  0            999 V2000
   -7.0393   50.7993   29.8235 C   0  0  0  0  0  0
   -6.2101   50.6676   28.5593 C   0  0  0  0  0  0
   -4.9959   49.9799   28.5824 C   0  0  0  0  0  0
   -4.2304   49.8749   27.4230 C   0  0  0  0  0  0
   -4.6528   50.4716   26.2211 C   0  0  0  0  0  0
   -5.8789   51.1550   26.2025 C   0  0  0  0  0  0
   -6.6485   51.2508   27.3673 C   0  0  0  0  0  0
   -6.3720   51.8134   24.9209 C   0  0  0  0  0  0
   -3.9174   50.4328   25.0447 O   0  0  0  0  0  0
   -2.5551   49.9852   25.0574 C   0  0  0  0  0  0
   -1.6497   50.8824   25.8954 C   0  0  0  0  0  0
   -1.9607   52.0813   26.3245 N   0  0  0  0  0  0
   -0.9251   52.4965   27.1462 N   0  0  0  0  0  0
    0.0007   51.5718   27.1323 C   0  0  0  0  0  0
   -0.4008   50.5127   26.3416 N   0  0  0  0  0  0
    0.2577   49.3196   26.0821 N   0  0  0  0  0  0
    1.5114   51.6954   28.0359 S   0  0  0  0  0  0
    1.8471   53.4814   27.8400 C   0  0  0  0  0  0
    3.3036   53.7756   27.4952 C   0  0  0  0  0  0
    3.6345   54.0979   26.1656 C   0  0  0  0  0  0
    4.9572   54.4127   25.8766 C   0  0  0  0  0  0
    5.9230   54.4142   26.8403 C   0  0  0  0  0  0
    5.6369   54.0952   28.1621 C   0  0  0  0  0  0
    4.3115   53.7661   28.4883 C   0  0  0  0  0  0
    3.9038   53.3159   30.2973 Br  0  0  0  0  0  0
    7.1043   54.8027   26.2915 O   0  0  0  0  0  0
    6.8893   54.8147   24.9050 C   0  0  0  0  0  0
    5.5030   54.7984   24.6931 O   0  0  0  0  0  0
   -6.4190   50.7075   30.7163 H   0  0  0  0  0  0
   -7.8181   50.0371   29.8511 H   0  0  0  0  0  0
   -7.5172   51.7791   29.8711 H   0  0  0  0  0  0
   -4.6345   49.5230   29.4950 H   0  0  0  0  0  0
   -3.2965   49.3346   27.4839 H   0  0  0  0  0  0
   -7.5876   51.7841   27.3479 H   0  0  0  0  0  0
   -6.5068   51.0605   24.1429 H   0  0  0  0  0  0
   -7.3149   52.3444   25.0585 H   0  0  0  0  0  0
   -5.6302   52.5262   24.5567 H   0  0  0  0  0  0
   -2.5086   48.9319   25.3437 H   0  0  0  0  0  0
   -2.2096   50.0054   24.0231 H   0  0  0  0  0  0
    1.1719   49.4447   25.6785 H   0  0  0  0  0  0
    0.2331   48.6830   26.8721 H   0  0  0  0  0  0
    1.2051   53.9377   27.0878 H   0  0  0  0  0  0
    1.5933   53.9842   28.7732 H   0  0  0  0  0  0
    2.8812   54.1144   25.3918 H   0  0  0  0  0  0
    6.4082   54.1095   28.9179 H   0  0  0  0  0  0
    7.3398   55.6959   24.4453 H   0  0  0  0  0  0
    7.3305   53.9192   24.4605 H   0  0  0  0  0  0
  1  2  1  0  0  0
  1 29  1  0  0  0
  1 30  1  0  0  0
  1 31  1  0  0  0
  2  7  2  0  0  0
  2  3  1  0  0  0
  3  4  2  0  0  0
  3 32  1  0  0  0
  4  5  1  0  0  0
  4 33  1  0  0  0
  5  6  2  0  0  0
  5  9  1  0  0  0
  6  7  1  0  0  0
  6  8  1  0  0  0
  7 34  1  0  0  0
  8 35  1  0  0  0
  8 36  1  0  0  0
  8 37  1  0  0  0
  9 10  1  0  0  0
 10 11  1  0  0  0
 10 38  1  0  0  0
 10 39  1  0  0  0
 11 15  1  0  0  0
 11 12  2  0  0  0
 12 13  1  0  0  0
 13 14  2  0  0  0
 14 15  1  0  0  0
 14 17  1  0  0  0
 15 16  1  0  0  0
 16 40  1  0  0  0
 16 41  1  0  0  0
 17 18  1  0  0  0
 18 19  1  0  0  0
 18 42  1  0  0  0
 18 43  1  0  0  0
 19 24  2  0  0  0
 19 20  1  0  0  0
 20 21  2  0  0  0
 20 44  1  0  0  0
 21 28  1  0  0  0
 21 22  1  0  0  0
 22 23  2  0  0  0
 22 26  1  0  0  0
 23 24  1  0  0  0
 23 45  1  0  0  0
 24 25  1  0  0  0
 26 27  1  0  0  0
 27 28  1  0  0  0
 27 46  1  0  0  0
 27 47  1  0  0  0
M  END
> <i_i_glide_confnum>
40

> <i_i_glide_lignum>
62

> <i_i_glide_posenum>
238

> <i_i_glide_rotatable_bonds>
6

> <i_m_Source_File_Index>
1827

> <b_m_subgroup_collapsed>
0

> <r_i_docking_score>
-6.09336

> <r_i_glide_ecoul>
-7.43761

> <r_i_glide_eff_state_penalty>
0

> <r_i_glide_einternal>
2.03026

> <r_i_glide_emodel>
-63.4208

> <r_i_glide_energy>
-45.0356

> <r_i_glide_erotb>
0.563159

> <r_i_glide_esite>
-0.257491

> <r_i_glide_evdw>
-37.598

> <r_i_glide_gscore>
-6.09336

> <r_i_glide_hbond>
-0.360062

> <r_i_glide_ligand_efficiency>
-0.21762

> <r_i_glide_ligand_efficiency_ln>
-1.40653

> <r_i_glide_ligand_efficiency_sa>
-0.660822

> <r_i_glide_lipo>
-1.966

> <r_i_glide_metal>
0

> <r_i_glide_rewards>
-1.07742

> <s_i_glide_gridfile>
wee1_glide-grid

> <s_m_Source_File>
wee1_decoys_glide_SP.sdf

> <s_m_Source_Path>
/Users/zhangxujun/Desktop

> <s_m_entry_id>
2102

> <s_m_entry_name>
wee1_decoys_glide_SP.1827

> <s_m_subgroup_title>
wee1_decoys_glide_SP

> <s_m_subgroupid>
wee1_decoys_glide_SP


$$$$
