ZINC02247497_4417
                    3D
 Schrodinger Suite 2024-2.
 49 53  0  0  1  0            999 V2000
    1.7974   53.7771   29.6739 C   0  0  0  0  0  0
    3.0024   54.4469   29.4549 C   0  0  0  0  0  0
    3.5395   54.5539   28.1756 C   0  0  0  0  0  0
    2.8556   53.9875   27.0800 C   0  0  0  0  0  0
    1.6291   53.2948   27.2983 C   0  0  0  0  0  0
    1.1060   53.1958   28.6094 C   0  0  0  0  0  0
    0.9780   52.7298   26.2452 N   0  0  0  0  0  0
    1.4924   52.8153   25.0120 C   0  0  0  0  0  0
    1.0428   52.3093   23.7447 C   0  0  0  0  0  0
    2.0732   52.6404   22.8501 C   0  0  0  0  0  0
    3.0729   53.3978   23.4777 N   0  0  0  0  0  0
    2.7121   53.5036   24.8181 C   0  0  0  0  0  0
    3.3647   54.0970   25.8249 N   0  0  0  0  0  0
    4.2872   53.8959   22.9045 C   0  0  0  0  0  0
    5.4581   53.9489   23.6760 C   0  0  0  0  0  0
    6.6229   54.4969   23.1573 C   0  0  0  0  0  0
    6.6471   54.9681   21.8497 C   0  0  0  0  0  0
    5.5041   54.9004   21.0609 C   0  0  0  0  0  0
    4.3199   54.3993   21.5965 C   0  0  0  0  0  0
    8.2546   55.6968   21.1338 Br  0  0  0  0  0  0
    2.1863   52.2692   21.5336 N   0  0  0  0  0  0
   -0.1662   51.5870   23.4058 C   0  0  0  0  0  0
   -0.4666   51.2966   22.2456 O   0  0  0  0  0  0
   -0.9407   51.3031   24.4651 N   0  0  0  0  0  0
   -2.2365   50.6308   24.4325 C   0  0  0  0  0  0
   -2.8159   50.5323   25.8490 C   0  0  0  0  0  0
   -4.3240   50.3934   25.6402 C   0  0  0  0  0  0
   -4.6251   51.3186   24.4608 C   0  0  0  0  0  0
   -3.3189   51.4070   23.6515 C   0  0  0  0  0  0
    1.3893   53.7044   30.6732 H   0  0  0  0  0  0
    3.5328   54.8963   30.2766 H   0  0  0  0  0  0
    4.4714   55.0746   28.0143 H   0  0  0  0  0  0
    0.1774   52.6707   28.7774 H   0  0  0  0  0  0
    5.4918   53.5562   24.6808 H   0  0  0  0  0  0
    7.5044   54.5439   23.7737 H   0  0  0  0  0  0
    5.5217   55.2754   20.0488 H   0  0  0  0  0  0
    3.4317   54.4266   20.9838 H   0  0  0  0  0  0
    1.4506   51.7287   21.0935 H   0  0  0  0  0  0
    3.0063   52.4677   20.9774 H   0  0  0  0  0  0
   -0.5182   51.3937   25.3772 H   0  0  0  0  0  0
   -2.1754   49.6017   24.0649 H   0  0  0  0  0  0
   -2.6055   51.4408   26.4182 H   0  0  0  0  0  0
   -2.3764   49.7148   26.4264 H   0  0  0  0  0  0
   -4.8917   50.6536   26.5365 H   0  0  0  0  0  0
   -4.5706   49.3623   25.3820 H   0  0  0  0  0  0
   -4.9073   52.3093   24.8230 H   0  0  0  0  0  0
   -5.4556   50.9489   23.8553 H   0  0  0  0  0  0
   -3.4260   51.0112   22.6378 H   0  0  0  0  0  0
   -3.0460   52.4603   23.5418 H   0  0  0  0  0  0
  1  6  2  0  0  0
  1  2  1  0  0  0
  1 30  1  0  0  0
  2  3  2  0  0  0
  2 31  1  0  0  0
  3  4  1  0  0  0
  3 32  1  0  0  0
  4 13  2  0  0  0
  4  5  1  0  0  0
  5  6  1  0  0  0
  5  7  2  0  0  0
  6 33  1  0  0  0
  7  8  1  0  0  0
  8 12  2  0  0  0
  8  9  1  0  0  0
  9 10  2  0  0  0
  9 22  1  0  0  0
 10 11  1  0  0  0
 10 21  1  0  0  0
 11 12  1  0  0  0
 11 14  1  0  0  0
 12 13  1  0  0  0
 14 19  2  0  0  0
 14 15  1  0  0  0
 15 16  2  0  0  0
 15 34  1  0  0  0
 16 17  1  0  0  0
 16 35  1  0  0  0
 17 18  2  0  0  0
 17 20  1  0  0  0
 18 19  1  0  0  0
 18 36  1  0  0  0
 19 37  1  0  0  0
 21 38  1  0  0  0
 21 39  1  0  0  0
 22 23  2  0  0  0
 22 24  1  0  0  0
 24 25  1  0  0  0
 24 40  1  0  0  0
 25 29  1  0  0  0
 25 26  1  0  0  0
 25 41  1  0  0  0
 26 27  1  0  0  0
 26 42  1  0  0  0
 26 43  1  0  0  0
 27 28  1  0  0  0
 27 44  1  0  0  0
 27 45  1  0  0  0
 28 29  1  0  0  0
 28 46  1  0  0  0
 28 47  1  0  0  0
 29 48  1  0  0  0
 29 49  1  0  0  0
M  END
> <i_i_glide_confnum>
31

> <i_i_glide_lignum>
4418

> <i_i_glide_posenum>
263

> <i_i_glide_rotatable_bonds>
4

> <i_m_Source_File_Index>
3922

> <b_m_subgroup_collapsed>
0

> <r_i_docking_score>
-5.59226

> <r_i_glide_ecoul>
-0.990743

> <r_i_glide_eff_state_penalty>
0

> <r_i_glide_einternal>
3.60445

> <r_i_glide_emodel>
-51.7471

> <r_i_glide_energy>
-39.8833

> <r_i_glide_erotb>
0.39543

> <r_i_glide_esite>
-0.00268159

> <r_i_glide_evdw>
-38.8926

> <r_i_glide_gscore>
-5.59226

> <r_i_glide_hbond>
0

> <r_i_glide_ligand_efficiency>
-0.192836

> <r_i_glide_ligand_efficiency_ln>
-1.28048

> <r_i_glide_ligand_efficiency_sa>
-0.592454

> <r_i_glide_lipo>
-2.99285

> <r_i_glide_metal>
0

> <r_i_glide_rewards>
-0.89891

> <s_i_glide_gridfile>
wee1_glide-grid

> <s_m_Source_File>
wee1_decoys_glide_SP.sdf

> <s_m_Source_Path>
/Users/zhangxujun/Desktop

> <s_m_entry_id>
4197

> <s_m_entry_name>
wee1_decoys_glide_SP.3922

> <s_m_subgroup_title>
wee1_decoys_glide_SP

> <s_m_subgroupid>
wee1_decoys_glide_SP


$$$$
