@<TRIPOS>MOLECULE
ZINC57340685_6176
28   30    1
SMALL
USER_CHARGES


@<TRIPOS>ATOM
      1 C1          5.2729   54.2421   20.4894 C.3       1 UNK         0.0000 
      2 C2          4.9699   53.8339   21.9463 C.3       1 UNK         0.0000 
      3 H3          5.0988   52.7506   22.0171 H         1 UNK         0.0000 
      4 C4          3.5214   54.2208   22.2887 C.3       1 UNK         0.0000 
      5 C5          3.0707   53.7585   23.6811 C.3       1 UNK         0.0000 
      6 C6          4.1434   54.0892   24.7305 C.2       1 UNK         0.0000 
      7 C7          5.4558   54.4190   24.3490 C.2       1 UNK         0.0000 
      8 S8          6.4611   54.7544   25.7119 S.3       1 UNK         0.0000 
      9 C9          5.1621   54.3956   26.7879 C.2       1 UNK         0.0000 
     10 C10         3.9480   54.0982   26.1408 C.2       1 UNK         0.0000 
     11 C11         2.6894   53.6932   26.7637 C.2       1 UNK         0.0000 
     12 O12         1.6975   53.1974   26.2371 O.2       1 UNK         0.0000 
     13 N13         2.6205   53.8795   28.0889 N.am      1 UNK         0.0000 
     14 S14         3.7765   54.5497   29.2232 S.3       1 UNK         0.0000 
     15 O15         3.9035   53.6943   30.4808 O.2       1 UNK         0.0000 
     16 N16         5.3488   54.4012   28.1390 N.pl3     1 UNK         0.0000 
     17 C17         5.9820   54.4965   22.9180 C.3       1 UNK         0.0000 
     18 H18         5.0602   55.2967   20.3187 H         1 UNK         0.0000 
     19 H19         6.3165   54.0957   20.2244 H         1 UNK         0.0000 
     20 H20         4.6688   53.6675   19.7856 H         1 UNK         0.0000 
     21 H21         2.8416   53.8072   21.5419 H         1 UNK         0.0000 
     22 H22         3.3981   55.2962   22.1871 H         1 UNK         0.0000 
     23 H23         2.1231   54.2449   23.9154 H         1 UNK         0.0000 
     24 H24         2.8727   52.6863   23.6710 H         1 UNK         0.0000 
     25 H25         1.7695   53.5585   28.5232 H         1 UNK         0.0000 
     26 H26         6.1876   54.7346   28.6029 H         1 UNK         0.0000 
     27 H27         6.9461   53.9910   22.8488 H         1 UNK         0.0000 
     28 H28         6.1515   55.5377   22.6416 H         1 UNK         0.0000 
@<TRIPOS>BOND
     1    1    2 1    
     2    1   18 1    
     3    1   19 1    
     4    1   20 1    
     5    2    3 1    
     6    2   17 1    
     7    2    4 1    
     8    4    5 1    
     9    4   21 1    
    10    4   22 1    
    11    5    6 1    
    12    5   23 1    
    13    5   24 1    
    14    6   10 1    
    15    6    7 2    
    16    7    8 1    
    17    7   17 1    
    18    8    9 1    
    19    9   16 1    
    20    9   10 2    
    21   10   11 1    
    22   11   12 2    
    23   11   13 am   BACKBONE|DICT|INTERRES
    24   13   14 1    
    25   13   25 1    
    26   14   15 2    
    27   14   16 1    
    28   16   26 1    
    29   17   27 1    
    30   17   28 1    
@<TRIPOS>SUBSTRUCTURE
     1 UNK         1 GROUP             0       ****    0 ROOT    
