@<TRIPOS>MOLECULE
ZINC16572527_3968
69   72    1
SMALL
USER_CHARGES


@<TRIPOS>ATOM
      1 C1         -0.7969   47.4354   20.6125 C.3       1 UNK         0.0000 
      2 C2          0.2127   47.8714   19.5243 C.3       1 UNK         0.0000 
      3 C3          1.5931   48.2042   20.1243 C.3       1 UNK         0.0000 
      4 C4          0.3468   46.9029   18.3217 C.ar      1 UNK         0.0000 
      5 C5          0.0496   45.5440   18.5051 C.ar      1 UNK         0.0000 
      6 C6          0.2119   44.6258   17.4774 C.ar      1 UNK         0.0000 
      7 C7          0.6779   45.0441   16.2383 C.ar      1 UNK         0.0000 
      8 C8          0.9814   46.3898   15.9963 C.ar      1 UNK         0.0000 
      9 C9          0.8010   47.3283   17.0412 C.ar      1 UNK         0.0000 
     10 N10         1.1086   48.6790   16.7842 N.am      1 UNK         0.0000 
     11 C11         0.2208   49.6945   16.8084 C.2       1 UNK         0.0000 
     12 O12        -0.9961   49.5048   16.9150 O.2       1 UNK         0.0000 
     13 N13         0.7594   50.9397   16.7905 N.am      1 UNK         0.0000 
     14 C14         2.1235   51.3003   16.3925 C.3       1 UNK         0.0000 
     15 C15         1.9955   52.7248   15.8768 C.3       1 UNK         0.0000 
     16 C16         0.9261   53.3240   16.7772 C.3       1 UNK         0.0000 
     17 C17        -0.0213   52.1520   17.1223 C.3       1 UNK         0.0000 
     18 H18        -0.8949   52.1825   16.4677 H         1 UNK         0.0000 
     19 C19        -0.4715   52.1963   18.5976 C.2       1 UNK         0.0000 
     20 O20        -1.6407   52.4970   18.8552 O.2       1 UNK         0.0000 
     21 N21         0.4888   51.9205   19.5054 N.am      1 UNK         0.0000 
     22 C22         0.3626   52.0324   20.8778 C.2       1 UNK         0.0000 
     23 N23        -0.7222   51.8678   21.6005 N.2       1 UNK         0.0000 
     24 N24        -0.4905   52.0955   22.9536 N.2       1 UNK         0.0000 
     25 C25         0.7526   52.4393   23.2151 C.2       1 UNK         0.0000 
     26 S26         1.7631   52.4944   21.7919 S.3       1 UNK         0.0000 
     27 C27         1.2894   52.7362   24.5824 C.ar      1 UNK         0.0000 
     28 C28         0.6447   52.2317   25.7165 C.ar      1 UNK         0.0000 
     29 C29         1.1449   52.4983   26.9895 C.ar      1 UNK         0.0000 
     30 C30         2.2959   53.2696   27.1539 C.ar      1 UNK         0.0000 
     31 C31         2.9403   53.7801   26.0177 C.ar      1 UNK         0.0000 
     32 C32         2.4366   53.5204   24.7454 C.ar      1 UNK         0.0000 
     33 O33         2.7254   53.4740   28.4526 O.3       1 UNK         0.0000 
     34 C34         3.9137   54.2285   28.6818 C.3       1 UNK         0.0000 
     35 C35         1.4748   46.8134   14.5929 C.3       1 UNK         0.0000 
     36 C36         3.0049   46.9611   14.5604 C.3       1 UNK         0.0000 
     37 C37         1.0103   45.9007   13.4353 C.3       1 UNK         0.0000 
     38 H38        -1.7787   47.2517   20.1758 H         1 UNK         0.0000 
     39 H39        -0.4976   46.5327   21.1398 H         1 UNK         0.0000 
     40 H40        -0.9212   48.2186   21.3617 H         1 UNK         0.0000 
     41 H41        -0.2183   48.8059   19.1790 H         1 UNK         0.0000 
     42 H42         2.2459   48.6723   19.3843 H         1 UNK         0.0000 
     43 H43         1.5068   48.8987   20.9624 H         1 UNK         0.0000 
     44 H44         2.1013   47.3090   20.4811 H         1 UNK         0.0000 
     45 H45        -0.2943   45.1677   19.4541 H         1 UNK         0.0000 
     46 H46        -0.0150   43.5833   17.6391 H         1 UNK         0.0000 
     47 H47         0.8039   44.2975   15.4672 H         1 UNK         0.0000 
     48 H48         2.0878   48.8965   16.6270 H         1 UNK         0.0000 
     49 H49         2.7719   51.2588   17.2683 H         1 UNK         0.0000 
     50 H50         2.5326   50.6420   15.6245 H         1 UNK         0.0000 
     51 H51         2.9360   53.2763   15.8882 H         1 UNK         0.0000 
     52 H52         1.6326   52.7027   14.8478 H         1 UNK         0.0000 
     53 H53         1.4049   53.7290   17.6726 H         1 UNK         0.0000 
     54 H54         0.4043   54.1524   16.2969 H         1 UNK         0.0000 
     55 H55         1.4186   51.7485   19.1526 H         1 UNK         0.0000 
     56 H56        -0.2437   51.6223   25.6190 H         1 UNK         0.0000 
     57 H57         0.6396   52.0970   27.8581 H         1 UNK         0.0000 
     58 H58         3.8328   54.3796   26.1023 H         1 UNK         0.0000 
     59 H59         2.9488   53.9314   23.8890 H         1 UNK         0.0000 
     60 H60         4.1164   54.2724   29.7509 H         1 UNK         0.0000 
     61 H61         4.7806   53.7677   28.2055 H         1 UNK         0.0000 
     62 H62         3.8069   55.2543   28.3252 H         1 UNK         0.0000 
     63 H63         1.0308   47.7855   14.3759 H         1 UNK         0.0000 
     64 H64         3.3463   47.6966   15.2818 H         1 UNK         0.0000 
     65 H65         3.5021   46.0244   14.8100 H         1 UNK         0.0000 
     66 H66         3.3567   47.2937   13.5831 H         1 UNK         0.0000 
     67 H67        -0.0644   45.7172   13.4819 H         1 UNK         0.0000 
     68 H68         1.2147   46.3613   12.4681 H         1 UNK         0.0000 
     69 H69         1.5177   44.9354   13.4406 H         1 UNK         0.0000 
@<TRIPOS>BOND
     1    1    2 1    
     2    1   38 1    
     3    1   39 1    
     4    1   40 1    
     5    2    3 1    
     6    2    4 1    
     7    2   41 1    
     8    3   42 1    
     9    3   43 1    
    10    3   44 1    
    11    4    9 ar   
    12    4    5 ar   
    13    5    6 ar   
    14    5   45 1    
    15    6    7 ar   
    16    6   46 1    
    17    7    8 ar   
    18    7   47 1    
    19    8    9 ar   
    20    8   35 1    
    21    9   10 1    
    22   10   11 am   BACKBONE|DICT|INTERRES
    23   10   48 1    
    24   11   12 2    
    25   11   13 am   BACKBONE|DICT|INTERRES
    26   13   17 1    
    27   13   14 1    
    28   14   15 1    
    29   14   49 1    
    30   14   50 1    
    31   15   16 1    
    32   15   51 1    
    33   15   52 1    
    34   16   17 1    
    35   16   53 1    
    36   16   54 1    
    37   17   18 1    
    38   17   19 1    
    39   19   20 2    
    40   19   21 am   BACKBONE|DICT|INTERRES
    41   21   22 am   BACKBONE|DICT|INTERRES
    42   21   55 1    
    43   22   26 1    
    44   22   23 2    
    45   23   24 1    
    46   24   25 2    
    47   25   26 1    
    48   25   27 1    
    49   27   32 ar   
    50   27   28 ar   
    51   28   29 ar   
    52   28   56 1    
    53   29   30 ar   
    54   29   57 1    
    55   30   31 ar   
    56   30   33 1    
    57   31   32 ar   
    58   31   58 1    
    59   32   59 1    
    60   33   34 1    
    61   34   60 1    
    62   34   61 1    
    63   34   62 1    
    64   35   36 1    
    65   35   37 1    
    66   35   63 1    
    67   36   64 1    
    68   36   65 1    
    69   36   66 1    
    70   37   67 1    
    71   37   68 1    
    72   37   69 1    
@<TRIPOS>SUBSTRUCTURE
     1 UNK         1 GROUP             0       ****    0 ROOT    
