ZINC04212612_3403
                    3D
 Schrodinger Suite 2024-2.
 56 58  0  0  1  0            999 V2000
    0.7045   51.1627   27.1131 C   0  0  0  0  0  0
    0.6400   52.7107   27.1241 C   0  0  1  0  0  0
   -0.3062   52.9452   26.6408 H   0  0  0  0  0  0
    0.5511   53.3406   28.5381 C   0  0  0  0  0  0
    1.0910   54.6145   28.7970 C   0  0  0  0  0  0
    1.0843   55.1512   30.0805 C   0  0  0  0  0  0
    0.4849   54.4314   31.1101 C   0  0  0  0  0  0
   -0.0503   53.1717   30.8749 C   0  0  0  0  0  0
   -0.0191   52.6253   29.5984 C   0  0  0  0  0  0
    1.6974   53.2746   26.2612 N   0  0  0  0  0  0
    3.0073   53.2974   26.5832 C   0  0  0  0  0  0
    3.3878   52.8958   27.6828 O   0  0  0  0  0  0
    3.9974   53.8025   25.5404 C   0  0  0  0  0  0
    3.6179   53.8251   24.1814 C   0  0  0  0  0  0
    4.5220   54.1421   23.1619 C   0  0  0  0  0  0
    5.8301   54.4962   23.5118 C   0  0  0  0  0  0
    6.2247   54.4936   24.8408 C   0  0  0  0  0  0
    5.3474   54.1192   25.8709 C   0  0  0  0  0  0
    5.8649   54.0206   27.1886 N   0  0  0  0  0  0
    5.4193   54.9959   28.1621 C   0  0  0  0  0  0
    7.2443   53.6158   27.3766 C   0  0  0  0  0  0
    4.0361   54.0939   21.8355 N   0  0  0  0  0  0
    4.7114   54.2462   20.6754 C   0  0  0  0  0  0
    5.9094   54.4985   20.5752 O   0  0  0  0  0  0
    3.9044   54.0752   19.6163 N   0  0  0  0  0  0
    4.3007   54.1049   18.2726 C   0  0  0  0  0  0
    4.0494   52.9548   17.5189 C   0  0  0  0  0  0
    4.4051   52.9002   16.1728 C   0  0  0  0  0  0
    4.9890   54.0079   15.5609 C   0  0  0  0  0  0
    5.2079   55.1743   16.2964 C   0  0  0  0  0  0
    4.8607   55.2379   17.6475 C   0  0  0  0  0  0
    5.1032   56.7395   18.4796 Cl  0  0  0  0  0  0
    5.4316   53.9392   13.8964 Cl  0  0  0  0  0  0
   -0.1986   50.7058   27.5172 H   0  0  0  0  0  0
    0.8032   50.7827   26.0966 H   0  0  0  0  0  0
    1.5566   50.7973   27.6878 H   0  0  0  0  0  0
    1.5362   55.1992   28.0057 H   0  0  0  0  0  0
    1.5044   56.1286   30.2689 H   0  0  0  0  0  0
    0.4506   54.8467   32.1055 H   0  0  0  0  0  0
   -0.4953   52.6141   31.6816 H   0  0  0  0  0  0
   -0.4447   51.6424   29.4592 H   0  0  0  0  0  0
    1.4045   53.6858   25.3862 H   0  0  0  0  0  0
    2.6162   53.5420   23.8897 H   0  0  0  0  0  0
    6.5732   54.7789   22.7843 H   0  0  0  0  0  0
    7.2483   54.7617   25.0546 H   0  0  0  0  0  0
    4.3834   55.2966   28.0098 H   0  0  0  0  0  0
    5.5000   54.5911   29.1726 H   0  0  0  0  0  0
    6.0628   55.8694   28.0821 H   0  0  0  0  0  0
    7.5045   52.8948   26.6090 H   0  0  0  0  0  0
    7.9043   54.4776   27.3003 H   0  0  0  0  0  0
    7.3825   53.1417   28.3500 H   0  0  0  0  0  0
    3.0510   53.9001   21.7531 H   0  0  0  0  0  0
    2.9502   53.7916   19.7866 H   0  0  0  0  0  0
    3.6194   52.0772   17.9809 H   0  0  0  0  0  0
    4.2377   51.9886   15.6155 H   0  0  0  0  0  0
    5.6438   56.0371   15.8141 H   0  0  0  0  0  0
  1  2  1  0  0  0
  1 34  1  0  0  0
  1 35  1  0  0  0
  1 36  1  0  0  0
  2  3  1  0  0  0
  2  4  1  0  0  0
  2 10  1  0  0  0
  4  9  2  0  0  0
  4  5  1  0  0  0
  5  6  2  0  0  0
  5 37  1  0  0  0
  6  7  1  0  0  0
  6 38  1  0  0  0
  7  8  2  0  0  0
  7 39  1  0  0  0
  8  9  1  0  0  0
  8 40  1  0  0  0
  9 41  1  0  0  0
 10 11  1  0  0  0
 10 42  1  0  0  0
 11 12  2  0  0  0
 11 13  1  0  0  0
 13 18  2  0  0  0
 13 14  1  0  0  0
 14 15  2  0  0  0
 14 43  1  0  0  0
 15 16  1  0  0  0
 15 22  1  0  0  0
 16 17  2  0  0  0
 16 44  1  0  0  0
 17 18  1  0  0  0
 17 45  1  0  0  0
 18 19  1  0  0  0
 19 20  1  0  0  0
 19 21  1  0  0  0
 20 46  1  0  0  0
 20 47  1  0  0  0
 20 48  1  0  0  0
 21 49  1  0  0  0
 21 50  1  0  0  0
 21 51  1  0  0  0
 22 23  1  0  0  0
 22 52  1  0  0  0
 23 24  2  0  0  0
 23 25  1  0  0  0
 25 26  1  0  0  0
 25 53  1  0  0  0
 26 31  2  0  0  0
 26 27  1  0  0  0
 27 28  2  0  0  0
 27 54  1  0  0  0
 28 29  1  0  0  0
 28 55  1  0  0  0
 29 30  2  0  0  0
 29 33  1  0  0  0
 30 31  1  0  0  0
 30 56  1  0  0  0
 31 32  1  0  0  0
M  END
> <i_i_glide_confnum>
17

> <i_i_glide_lignum>
3404

> <i_i_glide_posenum>
38

> <i_i_glide_rotatable_bonds>
9

> <i_m_Source_File_Index>
2064

> <b_m_subgroup_collapsed>
0

> <r_i_docking_score>
-6.169

> <r_i_glide_ecoul>
-4.81501

> <r_i_glide_eff_state_penalty>
0

> <r_i_glide_einternal>
11.1266

> <r_i_glide_emodel>
-59.8151

> <r_i_glide_energy>
-44.3903

> <r_i_glide_erotb>
0.545788

> <r_i_glide_esite>
-0.0186657

> <r_i_glide_evdw>
-39.5753

> <r_i_glide_gscore>
-6.169

> <r_i_glide_hbond>
-0.0960119

> <r_i_glide_ligand_efficiency>
-0.192781

> <r_i_glide_ligand_efficiency_ln>
-1.38141

> <r_i_glide_ligand_efficiency_sa>
-0.612042

> <r_i_glide_lipo>
-3.00982

> <r_i_glide_metal>
0

> <r_i_glide_rewards>
-0.889269

> <s_i_glide_gridfile>
wee1_glide-grid

> <s_m_Source_File>
wee1_decoys_glide_SP.sdf

> <s_m_Source_Path>
/Users/zhangxujun/Desktop

> <s_m_entry_id>
2339

> <s_m_entry_name>
wee1_decoys_glide_SP.2064

> <s_m_subgroup_title>
wee1_decoys_glide_SP

> <s_m_subgroupid>
wee1_decoys_glide_SP


$$$$
