@<TRIPOS>MOLECULE
ZINC09459673_4216
60   62    1
SMALL
USER_CHARGES


@<TRIPOS>ATOM
      1 C1          0.6894   51.3846   27.0442 C.3       1 UNK         0.0000 
      2 C2          0.2060   51.1465   25.6247 C.ar      1 UNK         0.0000 
      3 C3         -0.0819   49.8484   25.1968 C.ar      1 UNK         0.0000 
      4 C4         -0.5788   49.6372   23.9139 C.ar      1 UNK         0.0000 
      5 C5         -0.7943   50.7242   23.0610 C.ar      1 UNK         0.0000 
      6 C6         -0.4780   52.0183   23.4775 C.ar      1 UNK         0.0000 
      7 C7          0.0168   52.2297   24.7634 C.ar      1 UNK         0.0000 
      8 S8         -1.5066   50.4519   21.4356 S.o2      1 UNK         0.0000 
      9 O9         -2.2844   51.6500   21.0927 O.2       1 UNK         0.0000 
     10 O10        -2.1422   49.1289   21.4676 O.2       1 UNK         0.0000 
     11 N11        -0.1347   50.3420   20.3170 N.pl3     1 UNK         0.0000 
     12 C12         0.9449   49.3572   20.5495 C.3       1 UNK         0.0000 
     13 C13         2.2332   50.0678   21.0227 C.3       1 UNK         0.0000 
     14 C14         2.6211   51.2074   20.0263 C.3       1 UNK         0.0000 
     15 C15         1.4329   52.1987   19.8184 C.3       1 UNK         0.0000 
     16 C16         0.1756   51.4370   19.3710 C.3       1 UNK         0.0000 
     17 C17         3.8960   51.9542   20.4984 C.2       1 UNK         0.0000 
     18 O18         4.7043   51.4023   21.2460 O.2       1 UNK         0.0000 
     19 N19         4.1070   53.1957   20.0194 N.am      1 UNK         0.0000 
     20 C20         5.2647   54.0587   20.3097 C.3       1 UNK         0.0000 
     21 H21         6.1401   53.4726   20.0432 H         1 UNK         0.0000 
     22 C22         5.2311   55.2493   19.3342 C.3       1 UNK         0.0000 
     23 C23         5.4687   54.4907   21.7915 C.2       1 UNK         0.0000 
     24 O24         6.4707   55.1475   22.0774 O.2       1 UNK         0.0000 
     25 N25         4.5263   54.0963   22.6761 N.am      1 UNK         0.0000 
     26 C26         4.4864   54.2221   24.0717 C.ar      1 UNK         0.0000 
     27 C27         3.2346   54.0511   24.6662 C.ar      1 UNK         0.0000 
     28 C28         3.0990   54.0977   26.0516 C.ar      1 UNK         0.0000 
     29 C29         4.2111   54.3085   26.8629 C.ar      1 UNK         0.0000 
     30 C30         5.4751   54.4839   26.2822 C.ar      1 UNK         0.0000 
     31 C31         5.6098   54.4426   24.8869 C.ar      1 UNK         0.0000 
     32 C32         6.7026   54.6839   27.1533 C.3       1 UNK         0.0000 
     33 Br33        3.9628   54.3560   28.7561 Br        1 UNK         0.0000 
     34 H34         0.5689   50.4971   27.6719 H         1 UNK         0.0000 
     35 H35         1.7397   51.6849   27.0562 H         1 UNK         0.0000 
     36 H36         0.1095   52.1806   27.5129 H         1 UNK         0.0000 
     37 H37         0.0585   49.0057   25.8608 H         1 UNK         0.0000 
     38 H38        -0.8135   48.6313   23.5973 H         1 UNK         0.0000 
     39 H39        -0.6403   52.8598   22.8220 H         1 UNK         0.0000 
     40 H40         0.2412   53.2324   25.0945 H         1 UNK         0.0000 
     41 H41         1.1093   48.7941   19.6277 H         1 UNK         0.0000 
     42 H42         0.6085   48.6419   21.3007 H         1 UNK         0.0000 
     43 H43         3.0081   49.3002   21.0837 H         1 UNK         0.0000 
     44 H44         2.0102   50.4705   22.0140 H         1 UNK         0.0000 
     45 H45         2.9143   50.7733   19.0684 H         1 UNK         0.0000 
     46 H46         1.1652   52.7092   20.7468 H         1 UNK         0.0000 
     47 H47         1.6351   52.9164   19.0221 H         1 UNK         0.0000 
     48 H48         0.3013   51.0031   18.3785 H         1 UNK         0.0000 
     49 H49        -0.6732   52.1170   19.3090 H         1 UNK         0.0000 
     50 H50         3.4190   53.5907   19.3945 H         1 UNK         0.0000 
     51 H51         5.9461   56.0276   19.6117 H         1 UNK         0.0000 
     52 H52         5.4887   54.9251   18.3222 H         1 UNK         0.0000 
     53 H53         4.2382   55.6957   19.2809 H         1 UNK         0.0000 
     54 H54         3.7416   53.6117   22.2712 H         1 UNK         0.0000 
     55 H55         2.3590   53.8789   24.0580 H         1 UNK         0.0000 
     56 H56         2.1251   53.9674   26.4974 H         1 UNK         0.0000 
     57 H57         6.5893   54.5512   24.4468 H         1 UNK         0.0000 
     58 H58         7.6180   54.4969   26.5995 H         1 UNK         0.0000 
     59 H59         6.7035   53.9904   27.9923 H         1 UNK         0.0000 
     60 H60         6.7087   55.6943   27.5572 H         1 UNK         0.0000 
@<TRIPOS>BOND
     1    1    2 1    
     2    1   34 1    
     3    1   35 1    
     4    1   36 1    
     5    2    7 ar   
     6    2    3 ar   
     7    3    4 ar   
     8    3   37 1    
     9    4    5 ar   
    10    4   38 1    
    11    5    6 ar   
    12    5    8 1    
    13    6    7 ar   
    14    6   39 1    
    15    7   40 1    
    16    8    9 2    
    17    8   10 2    
    18    8   11 1    
    19   11   16 1    
    20   11   12 1    
    21   12   13 1    
    22   12   41 1    
    23   12   42 1    
    24   13   14 1    
    25   13   43 1    
    26   13   44 1    
    27   14   15 1    
    28   14   17 1    
    29   14   45 1    
    30   15   16 1    
    31   15   46 1    
    32   15   47 1    
    33   16   48 1    
    34   16   49 1    
    35   17   18 2    
    36   17   19 am   BACKBONE|DICT|INTERRES
    37   19   20 1    
    38   19   50 1    
    39   20   21 1    
    40   20   22 1    
    41   20   23 1    
    42   22   51 1    
    43   22   52 1    
    44   22   53 1    
    45   23   24 2    
    46   23   25 am   BACKBONE|DICT|INTERRES
    47   25   26 1    
    48   25   54 1    
    49   26   31 ar   
    50   26   27 ar   
    51   27   28 ar   
    52   27   55 1    
    53   28   29 ar   
    54   28   56 1    
    55   29   30 ar   
    56   29   33 1    
    57   30   31 ar   
    58   30   32 1    
    59   31   57 1    
    60   32   58 1    
    61   32   59 1    
    62   32   60 1    
@<TRIPOS>SUBSTRUCTURE
     1 UNK         1 GROUP             0       ****    0 ROOT    
