ZINC15560659_425
                    3D
 Schrodinger Suite 2024-2.
 45 47  0  0  1  0            999 V2000
    0.4926   52.4606   31.1474 C   0  0  0  0  0  0
    1.2008   52.8754   29.9374 N   0  0  0  0  0  0
    2.5191   52.7212   29.7193 C   0  0  0  0  0  0
    3.2803   52.2264   30.5545 O   0  0  0  0  0  0
    3.0485   53.2169   28.3897 C   0  0  0  0  0  0
    4.3994   53.5685   28.2704 C   0  0  0  0  0  0
    4.9268   53.9672   27.0447 C   0  0  0  0  0  0
    4.1112   54.0108   25.9022 C   0  0  0  0  0  0
    2.7559   53.6968   26.0258 C   0  0  0  0  0  0
    2.2280   53.3013   27.2539 C   0  0  0  0  0  0
    4.5627   54.3120   24.5970 N   0  0  0  0  0  0
    5.8244   54.4967   24.1421 C   0  0  0  0  0  0
    6.8248   54.5090   24.8619 O   0  0  0  0  0  0
    5.9720   54.7503   22.6525 C   0  0  0  0  0  0
    7.1044   55.4305   22.1927 C   0  0  0  0  0  0
    7.2855   55.6968   20.8431 C   0  0  0  0  0  0
    6.3303   55.2980   19.9137 C   0  0  0  0  0  0
    5.1837   54.6246   20.3524 C   0  0  0  0  0  0
    5.0094   54.3450   21.7108 C   0  0  0  0  0  0
    6.6110   55.6065   18.5746 N   0  0  0  0  0  0
    5.7432   55.0178   17.1493 S   0  0  0  0  0  0
    6.6411   55.2362   16.0111 O   0  0  0  0  0  0
    5.1821   53.6955   17.4381 O   0  0  0  0  0  0
    4.3868   56.1870   16.9379 C   0  0  0  0  0  0
    4.5253   57.5558   16.7368 C   0  0  0  0  0  0
    3.3022   58.1852   16.4820 C   0  0  0  0  0  0
    2.2330   57.2969   16.4816 C   0  0  0  0  0  0
    2.7319   55.6760   16.8513 S   0  0  0  0  0  0
    0.3988   57.6818   16.1518 Br  0  0  0  0  0  0
   -0.4566   51.9935   30.8814 H   0  0  0  0  0  0
    0.2744   53.3236   31.7762 H   0  0  0  0  0  0
    1.0542   51.7397   31.7458 H   0  0  0  0  0  0
    0.6482   53.3237   29.2241 H   0  0  0  0  0  0
    5.0602   53.5178   29.1249 H   0  0  0  0  0  0
    5.9763   54.2096   27.0169 H   0  0  0  0  0  0
    2.1048   53.7221   25.1637 H   0  0  0  0  0  0
    1.1832   53.0278   27.2961 H   0  0  0  0  0  0
    3.8369   54.3492   23.8998 H   0  0  0  0  0  0
    7.8614   55.7731   22.8811 H   0  0  0  0  0  0
    8.1863   56.2018   20.5251 H   0  0  0  0  0  0
    4.4177   54.3139   19.6580 H   0  0  0  0  0  0
    4.1184   53.8121   22.0096 H   0  0  0  0  0  0
    7.4025   56.2008   18.3858 H   0  0  0  0  0  0
    5.4727   58.0761   16.7495 H   0  0  0  0  0  0
    3.2039   59.2471   16.2972 H   0  0  0  0  0  0
  1  2  1  0  0  0
  1 30  1  0  0  0
  1 31  1  0  0  0
  1 32  1  0  0  0
  2  3  1  0  0  0
  2 33  1  0  0  0
  3  4  2  0  0  0
  3  5  1  0  0  0
  5 10  2  0  0  0
  5  6  1  0  0  0
  6  7  2  0  0  0
  6 34  1  0  0  0
  7  8  1  0  0  0
  7 35  1  0  0  0
  8  9  2  0  0  0
  8 11  1  0  0  0
  9 10  1  0  0  0
  9 36  1  0  0  0
 10 37  1  0  0  0
 11 12  1  0  0  0
 11 38  1  0  0  0
 12 13  2  0  0  0
 12 14  1  0  0  0
 14 19  2  0  0  0
 14 15  1  0  0  0
 15 16  2  0  0  0
 15 39  1  0  0  0
 16 17  1  0  0  0
 16 40  1  0  0  0
 17 18  2  0  0  0
 17 20  1  0  0  0
 18 19  1  0  0  0
 18 41  1  0  0  0
 19 42  1  0  0  0
 20 21  1  0  0  0
 20 43  1  0  0  0
 21 22  2  0  0  0
 21 23  2  0  0  0
 21 24  1  0  0  0
 24 28  1  0  0  0
 24 25  2  0  0  0
 25 26  1  0  0  0
 25 44  1  0  0  0
 26 27  2  0  0  0
 26 45  1  0  0  0
 27 28  1  0  0  0
 27 29  1  0  0  0
M  END
> <i_i_glide_confnum>
84

> <i_i_glide_lignum>
426

> <i_i_glide_posenum>
33

> <i_i_glide_rotatable_bonds>
8

> <i_m_Source_File_Index>
1302

> <b_m_subgroup_collapsed>
0

> <r_i_docking_score>
-4.83486

> <r_i_glide_ecoul>
-5.19313

> <r_i_glide_eff_state_penalty>
0

> <r_i_glide_einternal>
4.04102

> <r_i_glide_emodel>
-60.4442

> <r_i_glide_energy>
-49.737

> <r_i_glide_erotb>
0.583623

> <r_i_glide_esite>
-0.0390706

> <r_i_glide_evdw>
-44.5438

> <r_i_glide_gscore>
-4.83486

> <r_i_glide_hbond>
-0.239031

> <r_i_glide_ligand_efficiency>
-0.166719

> <r_i_glide_ligand_efficiency_ln>
-1.10706

> <r_i_glide_ligand_efficiency_sa>
-0.512215

> <r_i_glide_lipo>
-2.25688

> <r_i_glide_metal>
0

> <r_i_glide_rewards>
0.122656

> <s_i_glide_gridfile>
wee1_glide-grid

> <s_m_Source_File>
wee1_decoys_glide_SP.sdf

> <s_m_Source_Path>
/Users/zhangxujun/Desktop

> <s_m_entry_id>
1577

> <s_m_entry_name>
wee1_decoys_glide_SP.1302

> <s_m_subgroup_title>
wee1_decoys_glide_SP

> <s_m_subgroupid>
wee1_decoys_glide_SP


$$$$
