@<TRIPOS>MOLECULE
ZINC12292119_1317
56   59    1
SMALL
USER_CHARGES


@<TRIPOS>ATOM
      1 C1         -2.3530   49.3058   25.9286 C.3       1 UNK         0.0000 
      2 O2         -2.5512   49.9266   24.6613 O.3       1 UNK         0.0000 
      3 C3         -1.5011   49.9790   23.7661 C.ar      1 UNK         0.0000 
      4 C4         -1.7277   50.6670   22.5758 C.ar      1 UNK         0.0000 
      5 C5         -0.7231   50.7885   21.6187 C.ar      1 UNK         0.0000 
      6 C6          0.5428   50.2197   21.8343 C.ar      1 UNK         0.0000 
      7 C7          0.7508   49.5015   23.0233 C.ar      1 UNK         0.0000 
      8 C8         -0.2496   49.3893   23.9822 C.ar      1 UNK         0.0000 
      9 C9          1.7002   50.3260   20.8077 C.3       1 UNK         0.0000 
     10 C10         1.3863   51.2356   19.5724 C.3       1 UNK         0.0000 
     11 C11         2.5832   51.7031   18.7148 C.3       1 UNK         0.0000 
     12 C12         4.1263   51.3481   20.6514 C.3       1 UNK         0.0000 
     13 C13         2.9583   50.8901   21.5353 C.3       1 UNK         0.0000 
     14 C14         4.7710   53.0376   18.8544 C.3       1 UNK         0.0000 
     15 C15         5.0025   54.5195   19.2314 C.3       1 UNK         0.0000 
     16 H16         5.8251   54.8684   18.6025 H         1 UNK         0.0000 
     17 C17         5.4040   54.7554   20.6929 C.ar      1 UNK         0.0000 
     18 C18         6.6642   55.2966   20.9760 C.ar      1 UNK         0.0000 
     19 C19         7.1045   55.4133   22.2921 C.ar      1 UNK         0.0000 
     20 C20         6.3045   54.9700   23.3449 C.ar      1 UNK         0.0000 
     21 C21         5.0151   54.4917   23.0767 C.ar      1 UNK         0.0000 
     22 C22         4.5586   54.4126   21.7614 C.ar      1 UNK         0.0000 
     23 O23         4.1762   54.0339   24.0732 O.3       1 UNK         0.0000 
     24 C24         4.5512   54.4384   25.3956 C.3       1 UNK         0.0000 
     25 C25         6.0822   54.3397   25.6059 C.3       1 UNK         0.0000 
     26 O26         6.7723   55.1321   24.6346 O.3       1 UNK         0.0000 
     27 O27         3.9045   55.2968   18.8274 O.3       1 UNK         0.0000 
     28 O28         2.0557   49.0599   20.2873 O.3       1 UNK         0.0000 
     29 H29        -3.2605   49.3902   26.5264 H         1 UNK         0.0000 
     30 H30        -2.1206   48.2450   25.8282 H         1 UNK         0.0000 
     31 H31        -1.5504   49.7915   26.4825 H         1 UNK         0.0000 
     32 H32        -2.6965   51.1098   22.3994 H         1 UNK         0.0000 
     33 H33        -0.9628   51.3183   20.7112 H         1 UNK         0.0000 
     34 H34         1.6958   49.0189   23.2246 H         1 UNK         0.0000 
     35 H35        -0.0324   48.8376   24.8849 H         1 UNK         0.0000 
     36 H36         0.8570   52.1294   19.9029 H         1 UNK         0.0000 
     37 H37         0.6572   50.7336   18.9354 H         1 UNK         0.0000 
     38 H38         2.2559   52.4507   17.9904 H         1 UNK         0.0000 
     39 H39         3.1015   50.8957   18.1914 H         1 UNK         0.0000 
     40 H40         4.5593   50.5306   20.0817 H         1 UNK         0.0000 
     41 H41         4.9044   51.8152   21.2550 H         1 UNK         0.0000 
     42 H42         3.3276   50.1519   22.2441 H         1 UNK         0.0000 
     43 H43         2.6568   51.7139   22.1845 H         1 UNK         0.0000 
     44 H44         4.5658   52.9231   17.7874 H         1 UNK         0.0000 
     45 H45         5.6886   52.4847   19.0433 H         1 UNK         0.0000 
     46 H46         7.3231   55.6069   20.1759 H         1 UNK         0.0000 
     47 H47         8.0711   55.8506   22.4815 H         1 UNK         0.0000 
     48 H48         3.5564   54.0543   21.5907 H         1 UNK         0.0000 
     49 H49         4.2340   55.4681   25.5629 H         1 UNK         0.0000 
     50 H50         4.0273   53.8144   26.1189 H         1 UNK         0.0000 
     51 H51         6.3556   54.6743   26.6072 H         1 UNK         0.0000 
     52 H52         6.3940   53.2997   25.5091 H         1 UNK         0.0000 
     53 H53         3.1149   55.0435   19.3164 H         1 UNK         0.0000 
     54 H54         2.7047   49.1751   19.5889 H         1 UNK         0.0000 
     55 N55         3.5957   52.3922   19.6488 N.4       1 UNK         0.0000 
     56 H56         3.1307   53.1370   20.1484 H         1 UNK         0.0000 
@<TRIPOS>BOND
     1    1    2 1    
     2    1   29 1    
     3    1   30 1    
     4    1   31 1    
     5    2    3 1    
     6    3    8 ar   
     7    3    4 ar   
     8    4    5 ar   
     9    4   32 1    
    10    5    6 ar   
    11    5   33 1    
    12    6    7 ar   
    13    6    9 1    
    14    7    8 ar   
    15    7   34 1    
    16    8   35 1    
    17    9   13 1    
    18    9   10 1    
    19    9   28 1    
    20   10   11 1    
    21   10   36 1    
    22   10   37 1    
    23   11   38 1    
    24   11   39 1    
    25   11   55 1    
    26   12   13 1    
    27   12   40 1    
    28   12   41 1    
    29   12   55 1    
    30   13   42 1    
    31   13   43 1    
    32   14   15 1    
    33   14   44 1    
    34   14   45 1    
    35   14   55 1    
    36   15   16 1    
    37   15   17 1    
    38   15   27 1    
    39   17   22 ar   
    40   17   18 ar   
    41   18   19 ar   
    42   18   46 1    
    43   19   20 ar   
    44   19   47 1    
    45   20   26 1    
    46   20   21 ar   
    47   21   22 ar   
    48   21   23 1    
    49   22   48 1    
    50   23   24 1    
    51   24   25 1    
    52   24   49 1    
    53   24   50 1    
    54   25   26 1    
    55   25   51 1    
    56   25   52 1    
    57   27   53 1    
    58   28   54 1    
    59   55   56 1    
@<TRIPOS>SUBSTRUCTURE
     1 UNK         1 GROUP             0       ****    0 ROOT    
