@<TRIPOS>MOLECULE
ZINC09925540_6090
61   64    1
SMALL
USER_CHARGES


@<TRIPOS>ATOM
      1 C1          1.3905   51.3095   18.1435 C.ar      1 UNK         0.0000 
      2 C2          2.7041   51.7061   18.3417 C.ar      1 UNK         0.0000 
      3 C3          3.1103   52.1798   19.5847 C.ar      1 UNK         0.0000 
      4 C4          2.2070   52.2592   20.6610 C.ar      1 UNK         0.0000 
      5 C5          0.8698   51.8103   20.4668 C.ar      1 UNK         0.0000 
      6 C6          0.4823   51.3644   19.1939 C.ar      1 UNK         0.0000 
      7 C7         -0.1859   51.7785   21.5564 C.2       1 UNK         0.0000 
      8 O8         -1.3538   52.0877   21.3080 O.2       1 UNK         0.0000 
      9 N9          0.2281   51.3574   22.7649 N.am      1 UNK         0.0000 
     10 C10        -0.5725   51.2206   23.9873 C.3       1 UNK         0.0000 
     11 C11         0.2653   50.6310   25.1481 C.3       1 UNK         0.0000 
     12 C12        -0.4915   50.5000   26.4816 C.3       1 UNK         0.0000 
     13 C13        -1.1627   51.8195   26.8948 C.3       1 UNK         0.0000 
     14 C14        -2.0825   52.3400   25.7815 C.3       1 UNK         0.0000 
     15 C15        -1.3442   52.4952   24.4347 C.3       1 UNK         0.0000 
     16 N16         2.5839   52.8000   21.9145 N.am      1 UNK         0.0000 
     17 C17         3.7243   53.4014   22.3328 C.2       1 UNK         0.0000 
     18 O18         4.7098   53.6180   21.6249 O.2       1 UNK         0.0000 
     19 C19         3.7545   53.7749   23.8037 C.ar      1 UNK         0.0000 
     20 C20         2.5936   53.7796   24.5908 C.ar      1 UNK         0.0000 
     21 C21         2.6532   54.0915   25.9463 C.ar      1 UNK         0.0000 
     22 C22         3.8655   54.4048   26.5696 C.ar      1 UNK         0.0000 
     23 C23         5.0257   54.4130   25.7845 C.ar      1 UNK         0.0000 
     24 C24         4.9699   54.1018   24.4225 C.ar      1 UNK         0.0000 
     25 Br25        6.7048   54.8825   26.5576 Br        1 UNK         0.0000 
     26 O26         3.9785   54.7351   27.9120 O.3       1 UNK         0.0000 
     27 C27         2.8093   55.0513   28.6758 C.3       1 UNK         0.0000 
     28 C28         2.0652   53.8166   29.2299 C.3       1 UNK         0.0000 
     29 H29         1.9922   53.0527   28.4530 H         1 UNK         0.0000 
     30 C30         0.6807   54.1336   29.7981 C.3       1 UNK         0.0000 
     31 C31         0.4570   53.0970   30.8733 C.3       1 UNK         0.0000 
     32 C32         1.8419   52.4936   31.0997 C.3       1 UNK         0.0000 
     33 O33         2.7564   53.3010   30.3627 O.3       1 UNK         0.0000 
     34 H34         1.0796   50.9382   17.1744 H         1 UNK         0.0000 
     35 H35         3.4216   51.6391   17.5366 H         1 UNK         0.0000 
     36 H36         4.1452   52.4680   19.6695 H         1 UNK         0.0000 
     37 H37        -0.5315   51.0306   19.0129 H         1 UNK         0.0000 
     38 H38         1.1416   50.9262   22.7963 H         1 UNK         0.0000 
     39 H39        -1.3429   50.4744   23.7675 H         1 UNK         0.0000 
     40 H40         1.1095   51.2951   25.3282 H         1 UNK         0.0000 
     41 H41         0.6751   49.6595   24.8696 H         1 UNK         0.0000 
     42 H42         0.1904   50.1723   27.2679 H         1 UNK         0.0000 
     43 H43        -1.2468   49.7141   26.3991 H         1 UNK         0.0000 
     44 H44        -0.4000   52.5651   27.1255 H         1 UNK         0.0000 
     45 H45        -1.7288   51.6685   27.8153 H         1 UNK         0.0000 
     46 H46        -2.5200   53.2929   26.0795 H         1 UNK         0.0000 
     47 H47        -2.9194   51.6494   25.6577 H         1 UNK         0.0000 
     48 H48        -2.0655   52.8017   23.6804 H         1 UNK         0.0000 
     49 H49        -0.6323   53.3144   24.5424 H         1 UNK         0.0000 
     50 H50         1.8536   52.7406   22.6073 H         1 UNK         0.0000 
     51 H51         1.6227   53.5540   24.1770 H         1 UNK         0.0000 
     52 H52         1.7248   54.0856   26.4937 H         1 UNK         0.0000 
     53 H53         5.8893   54.1183   23.8495 H         1 UNK         0.0000 
     54 H54         3.1064   55.6949   29.5036 H         1 UNK         0.0000 
     55 H55         2.1345   55.6680   28.0781 H         1 UNK         0.0000 
     56 H56         0.6845   55.1286   30.2436 H         1 UNK         0.0000 
     57 H57        -0.0865   54.1720   29.0260 H         1 UNK         0.0000 
     58 H58         0.0625   53.5464   31.7858 H         1 UNK         0.0000 
     59 H59        -0.2513   52.3274   30.5558 H         1 UNK         0.0000 
     60 H60         2.1223   52.4471   32.1534 H         1 UNK         0.0000 
     61 H61         1.9066   51.4774   30.7136 H         1 UNK         0.0000 
@<TRIPOS>BOND
     1    1    6 ar   
     2    1    2 ar   
     3    1   34 1    
     4    2    3 ar   
     5    2   35 1    
     6    3    4 ar   
     7    3   36 1    
     8    4    5 ar   
     9    4   16 1    
    10    5    6 ar   
    11    5    7 1    
    12    6   37 1    
    13    7    8 2    
    14    7    9 am   BACKBONE|DICT|INTERRES
    15    9   10 1    
    16    9   38 1    
    17   10   15 1    
    18   10   11 1    
    19   10   39 1    
    20   11   12 1    
    21   11   40 1    
    22   11   41 1    
    23   12   13 1    
    24   12   42 1    
    25   12   43 1    
    26   13   14 1    
    27   13   44 1    
    28   13   45 1    
    29   14   15 1    
    30   14   46 1    
    31   14   47 1    
    32   15   48 1    
    33   15   49 1    
    34   16   17 am   BACKBONE|DICT|INTERRES
    35   16   50 1    
    36   17   18 2    
    37   17   19 1    
    38   19   24 ar   
    39   19   20 ar   
    40   20   21 ar   
    41   20   51 1    
    42   21   22 ar   
    43   21   52 1    
    44   22   23 ar   
    45   22   26 1    
    46   23   24 ar   
    47   23   25 1    
    48   24   53 1    
    49   26   27 1    
    50   27   28 1    
    51   27   54 1    
    52   27   55 1    
    53   28   29 1    
    54   28   33 1    
    55   28   30 1    
    56   30   31 1    
    57   30   56 1    
    58   30   57 1    
    59   31   32 1    
    60   31   58 1    
    61   31   59 1    
    62   32   33 1    
    63   32   60 1    
    64   32   61 1    
@<TRIPOS>SUBSTRUCTURE
     1 UNK         1 GROUP             0       ****    0 ROOT    
