@<TRIPOS>MOLECULE
ZINC08835257_3962
56   60    1
SMALL
USER_CHARGES


@<TRIPOS>ATOM
      1 C1          4.7611   54.7319   15.8316 C.ar      1 UNK         0.0000 
      2 C2          3.5715   54.1630   15.3988 C.ar      1 UNK         0.0000 
      3 C3          2.7218   53.5588   16.3176 C.ar      1 UNK         0.0000 
      4 C4          3.0592   53.4926   17.6794 C.ar      1 UNK         0.0000 
      5 C5          4.2516   54.1134   18.1425 C.ar      1 UNK         0.0000 
      6 C6          5.0893   54.7132   17.1840 C.ar      1 UNK         0.0000 
      7 C7          4.6720   54.2066   19.6063 C.2       1 UNK         0.0000 
      8 N8          3.9185   53.8359   20.6124 N.2       1 UNK         0.0000 
      9 C9          4.4946   54.0720   21.8176 C.ar      1 UNK         0.0000 
     10 C10         3.8938   53.8071   23.0570 C.ar      1 UNK         0.0000 
     11 C11         4.6122   54.0967   24.2186 C.ar      1 UNK         0.0000 
     12 C12         5.9042   54.6162   24.1578 C.ar      1 UNK         0.0000 
     13 C13         6.5160   54.8965   22.9355 C.ar      1 UNK         0.0000 
     14 C14         5.7942   54.6307   21.7643 C.ar      1 UNK         0.0000 
     15 S15         6.2270   54.8970   20.0828 S.3       1 UNK         0.0000 
     16 N16         2.1922   52.8946   18.6190 N.pl3     1 UNK         0.0000 
     17 C17         1.3579   51.8077   18.6189 C.2       1 UNK         0.0000 
     18 S18         1.1052   50.7832   17.3048 S.2       1 UNK         0.0000 
     19 N19         0.7573   51.6875   19.8482 N.am      1 UNK         0.0000 
     20 C20         0.0474   50.6799   20.4238 C.2       1 UNK         0.0000 
     21 O21         0.0406   49.5048   20.0499 O.2       1 UNK         0.0000 
     22 C22        -0.8053   51.0841   21.6027 C.ar      1 UNK         0.0000 
     23 C23        -0.4187   52.1049   22.4754 C.ar      1 UNK         0.0000 
     24 C24        -1.2570   52.4965   23.5151 C.ar      1 UNK         0.0000 
     25 C25        -2.4832   51.8638   23.7317 C.ar      1 UNK         0.0000 
     26 C26        -2.8739   50.7976   22.8885 C.ar      1 UNK         0.0000 
     27 C27        -2.0203   50.4295   21.8358 C.ar      1 UNK         0.0000 
     28 N28        -4.1789   50.0969   23.0132 N.pl3     1 UNK         0.0000 
     29 O29        -4.2610   48.9554   22.5680 O.co2     1 UNK         0.0000 
     30 O30        -5.1428   50.6811   23.4959 O.co2     1 UNK         0.0000 
     31 N31        -3.2546   52.3384   24.7940 N.pl3     1 UNK         0.0000 
     32 C32        -4.2102   53.4405   24.7035 C.3       1 UNK         0.0000 
     33 C33        -4.8405   53.5879   26.0818 C.3       1 UNK         0.0000 
     34 C34        -4.8267   52.1570   26.5883 C.3       1 UNK         0.0000 
     35 C35        -3.5113   51.6087   26.0355 C.3       1 UNK         0.0000 
     36 H36         5.4245   55.2034   15.1212 H         1 UNK         0.0000 
     37 H37         3.3033   54.1962   14.3530 H         1 UNK         0.0000 
     38 H38         1.7911   53.1578   15.9498 H         1 UNK         0.0000 
     39 H39         6.0133   55.1934   17.4646 H         1 UNK         0.0000 
     40 H40         2.9012   53.3886   23.1129 H         1 UNK         0.0000 
     41 H41         4.1685   53.8960   25.1836 H         1 UNK         0.0000 
     42 H42         6.4360   54.8144   25.0769 H         1 UNK         0.0000 
     43 H43         7.5046   55.3242   22.8956 H         1 UNK         0.0000 
     44 H44         2.3081   53.3430   19.5194 H         1 UNK         0.0000 
     45 H45         0.7039   52.5553   20.3573 H         1 UNK         0.0000 
     46 H46         0.5246   52.6191   22.3546 H         1 UNK         0.0000 
     47 H47        -0.9453   53.2988   24.1689 H         1 UNK         0.0000 
     48 H48        -2.3229   49.6339   21.1664 H         1 UNK         0.0000 
     49 H49        -4.9727   53.2301   23.9535 H         1 UNK         0.0000 
     50 H50        -3.6952   54.3513   24.3979 H         1 UNK         0.0000 
     51 H51        -5.8494   53.9985   26.0308 H         1 UNK         0.0000 
     52 H52        -4.2442   54.2565   26.7026 H         1 UNK         0.0000 
     53 H53        -4.8682   52.0966   27.6758 H         1 UNK         0.0000 
     54 H54        -5.6718   51.5841   26.2018 H         1 UNK         0.0000 
     55 H55        -2.7127   51.7586   26.7642 H         1 UNK         0.0000 
     56 H56        -3.6607   50.5478   25.8278 H         1 UNK         0.0000 
@<TRIPOS>BOND
     1    1    6 ar   
     2    1    2 ar   
     3    1   36 1    
     4    2    3 ar   
     5    2   37 1    
     6    3    4 ar   
     7    3   38 1    
     8    4    5 ar   
     9    4   16 1    
    10    5    6 ar   
    11    5    7 1    
    12    6   39 1    
    13    7   15 1    
    14    7    8 2    
    15    8    9 1    
    16    9   14 ar   
    17    9   10 ar   
    18   10   11 ar   
    19   10   40 1    
    20   11   12 ar   
    21   11   41 1    
    22   12   13 ar   
    23   12   42 1    
    24   13   14 ar   
    25   13   43 1    
    26   14   15 1    
    27   16   17 1    
    28   16   44 1    
    29   17   18 2    
    30   17   19 am   BACKBONE|DICT|INTERRES
    31   19   20 am   BACKBONE|DICT|INTERRES
    32   19   45 1    
    33   20   21 2    
    34   20   22 1    
    35   22   27 ar   
    36   22   23 ar   
    37   23   24 ar   
    38   23   46 1    
    39   24   25 ar   
    40   24   47 1    
    41   25   26 ar   
    42   25   31 1    
    43   26   27 ar   
    44   26   28 1    
    45   27   48 1    
    46   28   29 2    
    47   28   30 1    
    48   31   35 1    
    49   31   32 1    
    50   32   33 1    
    51   32   49 1    
    52   32   50 1    
    53   33   34 1    
    54   33   51 1    
    55   33   52 1    
    56   34   35 1    
    57   34   53 1    
    58   34   54 1    
    59   35   55 1    
    60   35   56 1    
@<TRIPOS>SUBSTRUCTURE
     1 UNK         1 GROUP             0       ****    0 ROOT    
