@<TRIPOS>MOLECULE
ZINC13255828_1620
44   45    1
SMALL
USER_CHARGES


@<TRIPOS>ATOM
      1 C1          6.3464   56.0178   18.3128 C.3       1 UNK         0.0000 
      2 C2          6.3043   55.9667   19.8351 C.2       1 UNK         0.0000 
      3 O3          6.7866   56.8968   20.4817 O.2       1 UNK         0.0000 
      4 N4          5.6931   54.8963   20.3807 N.am      1 UNK         0.0000 
      5 C5          5.5468   54.6402   21.7515 C.ar      1 UNK         0.0000 
      6 C6          4.3368   54.0967   22.1829 C.ar      1 UNK         0.0000 
      7 C7          4.1351   53.8442   23.5374 C.ar      1 UNK         0.0000 
      8 C8          5.1457   54.1179   24.4626 C.ar      1 UNK         0.0000 
      9 C9          6.3709   54.6365   24.0251 C.ar      1 UNK         0.0000 
     10 C10         6.5707   54.8967   22.6740 C.ar      1 UNK         0.0000 
     11 N11         4.8945   53.7632   25.7971 N.am      1 UNK         0.0000 
     12 C12         5.4451   54.2521   26.9243 C.2       1 UNK         0.0000 
     13 O13         6.2395   55.1932   26.9534 O.2       1 UNK         0.0000 
     14 C14         5.0869   53.5103   28.2268 C.3       1 UNK         0.0000 
     15 C15         3.5995   53.5116   28.7726 C.3       1 UNK         0.0000 
     16 C16         3.1881   54.9681   29.1550 C.3       1 UNK         0.0000 
     17 C17         1.7041   55.1868   29.5581 C.3       1 UNK         0.0000 
     18 C18         0.7234   54.5179   28.5750 C.3       1 UNK         0.0000 
     19 C19         1.0894   53.0772   28.1791 C.3       1 UNK         0.0000 
     20 C20         2.5601   52.9850   27.7270 C.3       1 UNK         0.0000 
     21 C21         3.5013   52.5869   30.0417 C.2       1 UNK         0.0000 
     22 O22         4.3594   51.6967   30.1762 O.co2     1 UNK         0.0000 
     23 H23         5.8395   56.9149   17.9561 H         1 UNK         0.0000 
     24 H24         7.3806   56.0508   17.9702 H         1 UNK         0.0000 
     25 H25         5.8649   55.1494   17.8620 H         1 UNK         0.0000 
     26 H26         5.1884   54.2832   19.7582 H         1 UNK         0.0000 
     27 H27         3.5433   53.8883   21.4787 H         1 UNK         0.0000 
     28 H28         3.1922   53.4269   23.8605 H         1 UNK         0.0000 
     29 H29         7.1843   54.8196   24.7099 H         1 UNK         0.0000 
     30 H30         7.5238   55.2922   22.3537 H         1 UNK         0.0000 
     31 H31         4.2096   53.0334   25.9210 H         1 UNK         0.0000 
     32 H32         5.7484   53.8956   29.0046 H         1 UNK         0.0000 
     33 H33         5.4278   52.4911   28.0621 H         1 UNK         0.0000 
     34 H34         3.3605   55.6212   28.3011 H         1 UNK         0.0000 
     35 H35         3.8442   55.2967   29.9539 H         1 UNK         0.0000 
     36 H36         1.4988   56.2578   29.5960 H         1 UNK         0.0000 
     37 H37         1.5044   54.8419   30.5704 H         1 UNK         0.0000 
     38 H38         0.7043   55.1378   27.6817 H         1 UNK         0.0000 
     39 H39        -0.2803   54.4966   28.9954 H         1 UNK         0.0000 
     40 H40         0.4363   52.7464   27.3705 H         1 UNK         0.0000 
     41 H41         0.8893   52.3952   29.0058 H         1 UNK         0.0000 
     42 H42         2.7835   51.9626   27.4332 H         1 UNK         0.0000 
     43 H43         2.6017   53.5917   26.8243 H         1 UNK         0.0000 
     44 O44         2.5907   52.7402   30.8817 O.co2     1 UNK         0.0000 
@<TRIPOS>BOND
     1    1    2 1    
     2    1   23 1    
     3    1   24 1    
     4    1   25 1    
     5    2    3 2    
     6    2    4 am   BACKBONE|DICT|INTERRES
     7    4    5 1    
     8    4   26 1    
     9    5   10 ar   
    10    5    6 ar   
    11    6    7 ar   
    12    6   27 1    
    13    7    8 ar   
    14    7   28 1    
    15    8    9 ar   
    16    8   11 1    
    17    9   10 ar   
    18    9   29 1    
    19   10   30 1    
    20   11   12 am   BACKBONE|DICT|INTERRES
    21   11   31 1    
    22   12   13 2    
    23   12   14 1    
    24   14   15 1    
    25   14   32 1    
    26   14   33 1    
    27   15   20 1    
    28   15   16 1    
    29   15   21 1    
    30   16   17 1    
    31   16   34 1    
    32   16   35 1    
    33   17   18 1    
    34   17   36 1    
    35   17   37 1    
    36   18   19 1    
    37   18   38 1    
    38   18   39 1    
    39   19   20 1    
    40   19   40 1    
    41   19   41 1    
    42   20   42 1    
    43   20   43 1    
    44   21   22 2    
    45   21   44 1    
@<TRIPOS>SUBSTRUCTURE
     1 UNK         1 GROUP             0       ****    0 ROOT    
