@<TRIPOS>MOLECULE
ZINC67527859_1364
58   60    1
SMALL
USER_CHARGES


@<TRIPOS>ATOM
      1 C1          3.0500   53.4802   22.5373 C.3       1 UNK         0.0000 
      2 C2          4.4391   54.1016   22.4167 C.ar      1 UNK         0.0000 
      3 C3          4.8793   54.4960   21.1496 C.ar      1 UNK         0.0000 
      4 C4          6.1067   55.1508   20.9615 C.ar      1 UNK         0.0000 
      5 C5          6.9376   55.2966   22.0808 C.ar      1 UNK         0.0000 
      6 C6          6.5236   54.8964   23.3486 C.ar      1 UNK         0.0000 
      7 C7          5.2509   54.3395   23.5405 C.ar      1 UNK         0.0000 
      8 N8          4.7015   54.0629   24.8070 N.am      1 UNK         0.0000 
      9 C9          5.2561   54.1011   26.0336 C.2       1 UNK         0.0000 
     10 O10         6.4101   54.4432   26.2950 O.2       1 UNK         0.0000 
     11 N11         4.3523   53.6968   26.9438 N.am      1 UNK         0.0000 
     12 C12         4.5379   53.5659   28.3938 C.3       1 UNK         0.0000 
     13 H13         5.3490   52.8520   28.5513 H         1 UNK         0.0000 
     14 C14         4.9098   54.8967   29.0656 C.3       1 UNK         0.0000 
     15 C15         3.2663   53.0368   29.0471 C.2       1 UNK         0.0000 
     16 C16         1.9412   53.0874   28.5760 C.2       1 UNK         0.0000 
     17 C17         1.1156   52.4976   29.5152 C.2       1 UNK         0.0000 
     18 O18         1.8665   52.0967   30.5640 O.3       1 UNK         0.0000 
     19 C19         3.1587   52.3910   30.2783 C.2       1 UNK         0.0000 
     20 C20         4.1558   51.9921   31.3340 C.3       1 UNK         0.0000 
     21 C21        -0.3637   52.2224   29.6027 C.3       1 UNK         0.0000 
     22 N22         6.4564   55.7056   19.7268 N.pl3     1 UNK         0.0000 
     23 C23         7.8494   55.8377   19.2536 C.3       1 UNK         0.0000 
     24 C24         8.1397   57.1397   18.4710 C.3       1 UNK         0.0000 
     25 N25         7.1310   57.2969   17.3166 N.4       1 UNK         0.0000 
     26 C26         5.6918   57.2411   17.8601 C.3       1 UNK         0.0000 
     27 C27         5.4837   55.9253   18.6355 C.3       1 UNK         0.0000 
     28 C28         7.3612   58.6271   16.5637 C.3       1 UNK         0.0000 
     29 H29         2.5690   53.3409   21.5668 H         1 UNK         0.0000 
     30 H30         3.1053   52.5040   23.0217 H         1 UNK         0.0000 
     31 H31         2.4015   54.1156   23.1426 H         1 UNK         0.0000 
     32 H32         4.2228   54.3194   20.3112 H         1 UNK         0.0000 
     33 H33         7.8971   55.7855   22.0093 H         1 UNK         0.0000 
     34 H34         7.1939   55.0892   24.1708 H         1 UNK         0.0000 
     35 H35         3.7404   53.7648   24.7687 H         1 UNK         0.0000 
     36 H36         3.5859   53.1482   26.5863 H         1 UNK         0.0000 
     37 H37         5.0949   54.7706   30.1274 H         1 UNK         0.0000 
     38 H38         5.8242   55.3133   28.6469 H         1 UNK         0.0000 
     39 H39         4.1003   55.6214   28.9641 H         1 UNK         0.0000 
     40 H40         1.6137   53.5166   27.6407 H         1 UNK         0.0000 
     41 H41         5.1034   51.6954   30.8853 H         1 UNK         0.0000 
     42 H42         4.3389   52.8125   32.0249 H         1 UNK         0.0000 
     43 H43         3.8115   51.1573   31.9426 H         1 UNK         0.0000 
     44 H44        -0.8962   52.6028   28.7300 H         1 UNK         0.0000 
     45 H45        -0.8093   52.6785   30.4867 H         1 UNK         0.0000 
     46 H46        -0.5675   51.1533   29.6608 H         1 UNK         0.0000 
     47 H47         8.5869   55.7002   20.0444 H         1 UNK         0.0000 
     48 H48         7.9924   54.9870   18.5837 H         1 UNK         0.0000 
     49 H49         9.1248   57.0854   18.0017 H         1 UNK         0.0000 
     50 H50         8.0669   58.0306   19.0961 H         1 UNK         0.0000 
     51 H51         5.0405   57.2707   16.9828 H         1 UNK         0.0000 
     52 H52         5.5208   58.1244   18.4808 H         1 UNK         0.0000 
     53 H53         5.6079   55.0769   17.9596 H         1 UNK         0.0000 
     54 H54         4.4512   55.8957   18.9813 H         1 UNK         0.0000 
     55 H55         7.2127   59.4543   17.2614 H         1 UNK         0.0000 
     56 H56         8.3811   58.6154   16.1752 H         1 UNK         0.0000 
     57 H57         6.6409   58.6769   15.7456 H         1 UNK         0.0000 
     58 H58         7.2551   56.5167   16.6839 H         1 UNK         0.0000 
@<TRIPOS>BOND
     1    1    2 1    
     2    1   29 1    
     3    1   30 1    
     4    1   31 1    
     5    2    7 ar   
     6    2    3 ar   
     7    3    4 ar   
     8    3   32 1    
     9    4    5 ar   
    10    4   22 1    
    11    5    6 ar   
    12    5   33 1    
    13    6    7 ar   
    14    6   34 1    
    15    7    8 1    
    16    8    9 am   BACKBONE|DICT|INTERRES
    17    8   35 1    
    18    9   10 2    
    19    9   11 am   BACKBONE|DICT|INTERRES
    20   11   12 1    
    21   11   36 1    
    22   12   13 1    
    23   12   14 1    
    24   12   15 1    
    25   14   37 1    
    26   14   38 1    
    27   14   39 1    
    28   15   19 2    
    29   15   16 1    
    30   16   17 2    
    31   16   40 1    
    32   17   18 1    
    33   17   21 1    
    34   18   19 1    
    35   19   20 1    
    36   20   41 1    
    37   20   42 1    
    38   20   43 1    
    39   21   44 1    
    40   21   45 1    
    41   21   46 1    
    42   22   27 1    
    43   22   23 1    
    44   23   24 1    
    45   23   47 1    
    46   23   48 1    
    47   24   25 1    
    48   24   49 1    
    49   24   50 1    
    50   25   26 1    
    51   25   28 1    
    52   25   58 1    
    53   26   27 1    
    54   26   51 1    
    55   26   52 1    
    56   27   53 1    
    57   27   54 1    
    58   28   55 1    
    59   28   56 1    
    60   28   57 1    
@<TRIPOS>SUBSTRUCTURE
     1 UNK         1 GROUP             0       ****    0 ROOT    
