@<TRIPOS>MOLECULE
ZINC39608863_128
73   77    1
SMALL
USER_CHARGES


@<TRIPOS>ATOM
      1 C1         -5.5762   45.9041   24.4577 C.3       1 UNK         0.0000 
      2 C2         -4.1441   46.3961   24.3406 C.ar      1 UNK         0.0000 
      3 C3         -3.3388   46.4743   25.4780 C.ar      1 UNK         0.0000 
      4 C4         -2.0243   46.9140   25.3668 C.ar      1 UNK         0.0000 
      5 C5         -1.5120   47.2978   24.1289 C.ar      1 UNK         0.0000 
      6 C6         -2.3202   47.2797   22.9763 C.ar      1 UNK         0.0000 
      7 C7         -3.6345   46.8004   23.1004 C.ar      1 UNK         0.0000 
      8 C8         -1.8169   47.7195   21.6105 C.2       1 UNK         0.0000 
      9 O9         -2.2382   47.1229   20.6148 O.2       1 UNK         0.0000 
     10 N10        -0.9539   48.7636   21.4888 N.am      1 UNK         0.0000 
     11 C11        -0.5039   49.6428   22.5683 C.3       1 UNK         0.0000 
     12 C12         0.0029   50.9045   21.8413 C.3       1 UNK         0.0000 
     13 H13        -0.8263   51.6039   21.7244 H         1 UNK         0.0000 
     14 C14         0.4982   50.3915   20.4563 C.3       1 UNK         0.0000 
     15 C15        -0.5302   49.2669   20.1739 C.3       1 UNK         0.0000 
     16 C16         0.5357   51.5352   19.4080 C.3       1 UNK         0.0000 
     17 C17         0.9074   51.0306   17.9983 C.3       1 UNK         0.0000 
     18 N18         2.3039   50.3765   18.0839 N.4       1 UNK         0.0000 
     19 C19         2.3800   49.2298   19.1103 C.3       1 UNK         0.0000 
     20 C20         1.9485   49.7955   20.4766 C.3       1 UNK         0.0000 
     21 C21         1.0930   51.5498   22.7286 C.2       1 UNK         0.0000 
     22 O22         1.9247   50.8354   23.2821 O.2       1 UNK         0.0000 
     23 N23         1.0533   52.8866   22.8851 N.am      1 UNK         0.0000 
     24 C24         2.0640   53.7388   23.5377 C.3       1 UNK         0.0000 
     25 H25         1.6653   54.7454   23.6788 H         1 UNK         0.0000 
     26 C26         3.3397   53.8956   22.6859 C.3       1 UNK         0.0000 
     27 C27         4.5205   54.0017   23.6643 C.3       1 UNK         0.0000 
     28 C28         3.9201   53.9767   25.0757 C.3       1 UNK         0.0000 
     29 C29         2.5619   53.2820   24.9288 C.3       1 UNK         0.0000 
     30 H30         2.7047   52.2093   25.0230 H         1 UNK         0.0000 
     31 O31         1.6846   53.6966   25.9704 O.3       1 UNK         0.0000 
     32 C32         1.8344   53.0036   27.2116 C.3       1 UNK         0.0000 
     33 C33         1.5596   53.9494   28.3705 C.ar      1 UNK         0.0000 
     34 C34         2.1505   55.2153   28.3792 C.ar      1 UNK         0.0000 
     35 C35         1.9044   56.0960   29.4275 C.ar      1 UNK         0.0000 
     36 C36         1.0960   55.6907   30.4819 C.ar      1 UNK         0.0000 
     37 C37         0.5236   54.4189   30.4977 C.ar      1 UNK         0.0000 
     38 C38         0.7498   53.5450   29.4337 C.ar      1 UNK         0.0000 
     39 H39        -5.6213   44.8199   24.3418 H         1 UNK         0.0000 
     40 H40        -5.9988   46.1693   25.4291 H         1 UNK         0.0000 
     41 H41        -6.2155   46.3674   23.7037 H         1 UNK         0.0000 
     42 H42        -3.7214   46.1895   26.4489 H         1 UNK         0.0000 
     43 H43        -1.3975   46.9653   26.2487 H         1 UNK         0.0000 
     44 H44        -0.4755   47.5897   24.0982 H         1 UNK         0.0000 
     45 H45        -4.2761   46.7532   22.2300 H         1 UNK         0.0000 
     46 H46        -1.2820   49.9049   23.2883 H         1 UNK         0.0000 
     47 H47         0.3417   49.1211   23.0197 H         1 UNK         0.0000 
     48 H48        -0.2128   48.5078   19.4608 H         1 UNK         0.0000 
     49 H49        -1.4116   49.7297   19.7279 H         1 UNK         0.0000 
     50 H50        -0.4486   52.0027   19.3440 H         1 UNK         0.0000 
     51 H51         1.2076   52.3343   19.7240 H         1 UNK         0.0000 
     52 H52         0.2258   50.2702   17.6128 H         1 UNK         0.0000 
     53 H53         0.9934   51.8399   17.2707 H         1 UNK         0.0000 
     54 H54         2.6284   50.0139   17.1881 H         1 UNK         0.0000 
     55 H55         1.7627   48.4182   18.7283 H         1 UNK         0.0000 
     56 H56         3.4213   48.8993   19.0955 H         1 UNK         0.0000 
     57 H57         2.6893   50.5309   20.7920 H         1 UNK         0.0000 
     58 H58         2.0160   48.9929   21.2141 H         1 UNK         0.0000 
     59 H59         0.3518   53.3810   22.3590 H         1 UNK         0.0000 
     60 H60         3.4971   53.0258   22.0427 H         1 UNK         0.0000 
     61 H61         3.2680   54.7521   22.0128 H         1 UNK         0.0000 
     62 H62         5.1135   54.8985   23.4952 H         1 UNK         0.0000 
     63 H63         5.1990   53.1557   23.5203 H         1 UNK         0.0000 
     64 H64         3.8015   54.9877   25.4658 H         1 UNK         0.0000 
     65 H65         4.5785   53.4300   25.7535 H         1 UNK         0.0000 
     66 H66         1.1515   52.1519   27.2199 H         1 UNK         0.0000 
     67 H67         2.8393   52.5994   27.3481 H         1 UNK         0.0000 
     68 H68         2.7846   55.5213   27.5631 H         1 UNK         0.0000 
     69 H69         2.3431   57.0797   29.4284 H         1 UNK         0.0000 
     70 H70         0.9203   56.3752   31.2970 H         1 UNK         0.0000 
     71 H71        -0.0950   54.1115   31.3280 H         1 UNK         0.0000 
     72 H72         0.3028   52.5602   29.4449 H         1 UNK         0.0000 
     73 H73         3.0003   51.0684   18.3327 H         1 UNK         0.0000 
@<TRIPOS>BOND
     1    1    2 1    
     2    1   39 1    
     3    1   40 1    
     4    1   41 1    
     5    2    7 ar   
     6    2    3 ar   
     7    3    4 ar   
     8    3   42 1    
     9    4    5 ar   
    10    4   43 1    
    11    5    6 ar   
    12    5   44 1    
    13    6    7 ar   
    14    6    8 1    
    15    7   45 1    
    16    8    9 2    
    17    8   10 am   BACKBONE|DICT|INTERRES
    18   10   15 1    
    19   10   11 1    
    20   11   12 1    
    21   11   46 1    
    22   11   47 1    
    23   12   13 1    
    24   12   14 1    
    25   12   21 1    
    26   14   20 1    
    27   14   15 1    
    28   14   16 1    
    29   15   48 1    
    30   15   49 1    
    31   16   17 1    
    32   16   50 1    
    33   16   51 1    
    34   17   18 1    
    35   17   52 1    
    36   17   53 1    
    37   18   19 1    
    38   18   54 1    
    39   18   73 1    
    40   19   20 1    
    41   19   55 1    
    42   19   56 1    
    43   20   57 1    
    44   20   58 1    
    45   21   22 2    
    46   21   23 am   BACKBONE|DICT|INTERRES
    47   23   24 1    
    48   23   59 1    
    49   24   25 1    
    50   24   29 1    
    51   24   26 1    
    52   26   27 1    
    53   26   60 1    
    54   26   61 1    
    55   27   28 1    
    56   27   62 1    
    57   27   63 1    
    58   28   29 1    
    59   28   64 1    
    60   28   65 1    
    61   29   30 1    
    62   29   31 1    
    63   31   32 1    
    64   32   33 1    
    65   32   66 1    
    66   32   67 1    
    67   33   38 ar   
    68   33   34 ar   
    69   34   35 ar   
    70   34   68 1    
    71   35   36 ar   
    72   35   69 1    
    73   36   37 ar   
    74   36   70 1    
    75   37   38 ar   
    76   37   71 1    
    77   38   72 1    
@<TRIPOS>SUBSTRUCTURE
     1 UNK         1 GROUP             0       ****    0 ROOT    
