ZINC35024507_4443
                    3D
 Schrodinger Suite 2024-2.
 64 67  0  0  1  0            999 V2000
    0.7045   50.3296   26.9989 C   0  0  0  0  0  0
    0.2347   51.6635   26.3476 C   0  0  2  0  0  0
    1.0970   52.3210   26.2955 H   0  0  0  0  0  0
   -0.8484   52.3169   27.2529 C   0  0  1  0  0  0
   -1.1379   53.2964   26.8815 H   0  0  0  0  0  0
   -2.1069   51.4019   27.3620 C   0  0  2  0  0  0
   -2.1487   50.8464   28.3033 H   0  0  0  0  0  0
   -2.4689   50.5439   26.1163 C   0  0  1  0  0  0
   -2.7827   49.5168   26.3190 H   0  0  0  0  0  0
   -3.4020   51.6306   26.6144 C   0  0  0  0  0  0
   -4.6832   51.1555   27.3251 C   0  0  0  0  0  0
   -3.6598   52.9209   25.8177 C   0  0  0  0  0  0
   -1.5355   50.5845   24.8498 C   0  0  2  0  0  0
   -1.0991   49.5843   24.8575 H   0  0  0  0  0  0
   -0.2897   51.5408   24.8733 C   0  0  2  0  0  0
    0.9014   51.0933   23.9381 C   0  0  2  0  0  0
    1.4935   50.3654   24.4829 H   0  0  0  0  0  0
    1.9047   52.1621   23.5412 C   0  0  0  0  0  0
    2.4471   51.9276   22.3328 C   0  0  0  0  0  0
    1.8889   50.6927   21.7882 C   0  0  0  0  0  0
    2.3584   50.0560   20.8426 O   0  0  0  0  0  0
    0.5998   50.4298   22.5882 C   0  0  2  0  0  0
   -0.6020   50.9906   21.7834 C   0  0  0  0  0  0
   -2.0308   50.8129   22.2966 C   0  0  0  0  0  0
   -2.4020   50.6338   23.5862 C   0  0  0  0  0  0
   -3.1295   50.7397   21.2330 C   0  0  0  0  0  0
   -2.8956   51.6967   20.2132 O   0  0  0  0  0  0
    0.4093   49.0241   22.6740 O   0  0  0  0  0  0
    3.5799   52.6264   21.5997 C   0  0  0  0  0  0
   -0.6577   52.8302   24.4046 O   0  0  0  0  0  0
   -0.4894   52.4914   28.6362 O   0  0  0  0  0  0
    0.3680   53.4048   29.1918 C   0  0  0  0  0  0
    0.3578   53.6326   30.4010 O   0  0  0  0  0  0
    1.3814   54.1400   28.2827 C   0  0  0  0  0  0
    1.6101   55.6059   28.7228 C   0  0  0  0  0  0
    2.7386   53.4000   28.2643 C   0  0  0  0  0  0
    1.3214   49.6768   26.3957 H   0  0  0  0  0  0
    1.2631   50.5297   27.9123 H   0  0  0  0  0  0
   -0.1293   49.6971   27.2815 H   0  0  0  0  0  0
   -5.0559   51.9138   28.0137 H   0  0  0  0  0  0
   -5.4729   50.9371   26.6060 H   0  0  0  0  0  0
   -4.5171   50.2483   27.9075 H   0  0  0  0  0  0
   -2.7837   53.2972   25.3131 H   0  0  0  0  0  0
   -4.4199   52.7585   25.0529 H   0  0  0  0  0  0
   -4.0106   53.7188   26.4737 H   0  0  0  0  0  0
    2.1933   52.9554   24.2163 H   0  0  0  0  0  0
   -0.4644   52.0574   21.5946 H   0  0  0  0  0  0
   -0.5708   50.5218   20.7962 H   0  0  0  0  0  0
   -3.4554   50.4669   23.7657 H   0  0  0  0  0  0
   -3.1219   49.7446   20.7854 H   0  0  0  0  0  0
   -4.1227   50.8968   21.6568 H   0  0  0  0  0  0
   -2.1838   51.3699   19.6552 H   0  0  0  0  0  0
    1.1910   48.6369   23.0805 H   0  0  0  0  0  0
    4.3085   51.9147   21.2062 H   0  0  0  0  0  0
    3.1836   53.2071   20.7651 H   0  0  0  0  0  0
    4.1067   53.3090   22.2680 H   0  0  0  0  0  0
   -1.0848   52.7100   23.5531 H   0  0  0  0  0  0
    0.9860   54.1692   27.2747 H   0  0  0  0  0  0
    1.9833   55.6771   29.7464 H   0  0  0  0  0  0
    2.3375   56.0975   28.0818 H   0  0  0  0  0  0
    0.7044   56.2026   28.6615 H   0  0  0  0  0  0
    2.6511   52.3608   27.9518 H   0  0  0  0  0  0
    3.4353   53.8784   27.5744 H   0  0  0  0  0  0
    3.2076   53.3975   29.2503 H   0  0  0  0  0  0
  1  2  1  0  0  0
  1 37  1  0  0  0
  1 38  1  0  0  0
  1 39  1  0  0  0
  2  3  1  0  0  0
  2 15  1  0  0  0
  2  4  1  0  0  0
  4  5  1  0  0  0
  4  6  1  0  0  0
  4 31  1  0  0  0
  6  7  1  0  0  0
  6 10  1  0  0  0
  6  8  1  0  0  0
  8  9  1  0  0  0
  8 10  1  0  0  0
  8 13  1  0  0  0
 10 11  1  0  0  0
 10 12  1  0  0  0
 11 40  1  0  0  0
 11 41  1  0  0  0
 11 42  1  0  0  0
 12 43  1  0  0  0
 12 44  1  0  0  0
 12 45  1  0  0  0
 13 14  1  0  0  0
 13 25  1  0  0  0
 13 15  1  0  0  0
 15 16  1  0  0  0
 15 30  1  0  0  0
 16 17  1  0  0  0
 16 22  1  0  0  0
 16 18  1  0  0  0
 18 19  2  0  0  0
 18 46  1  0  0  0
 19 20  1  0  0  0
 19 29  1  0  0  0
 20 21  2  0  0  0
 20 22  1  0  0  0
 22 23  1  0  0  0
 22 28  1  0  0  0
 23 24  1  0  0  0
 23 47  1  0  0  0
 23 48  1  0  0  0
 24 25  2  0  0  0
 24 26  1  0  0  0
 25 49  1  0  0  0
 26 27  1  0  0  0
 26 50  1  0  0  0
 26 51  1  0  0  0
 27 52  1  0  0  0
 28 53  1  0  0  0
 29 54  1  0  0  0
 29 55  1  0  0  0
 29 56  1  0  0  0
 30 57  1  0  0  0
 31 32  1  0  0  0
 32 33  2  0  0  0
 32 34  1  0  0  0
 34 35  1  0  0  0
 34 36  1  0  0  0
 34 58  1  0  0  0
 35 59  1  0  0  0
 35 60  1  0  0  0
 35 61  1  0  0  0
 36 62  1  0  0  0
 36 63  1  0  0  0
 36 64  1  0  0  0
M  END
> <i_i_glide_confnum>
16

> <i_i_glide_lignum>
4444

> <i_i_glide_posenum>
152

> <i_i_glide_rotatable_bonds>
7

> <i_m_Source_File_Index>
6079

> <b_m_subgroup_collapsed>
0

> <r_i_docking_score>
-0.945951

> <r_i_glide_ecoul>
-4.42218

> <r_i_glide_eff_state_penalty>
0

> <r_i_glide_einternal>
11.2731

> <r_i_glide_emodel>
-19.7718

> <r_i_glide_energy>
-32.5038

> <r_i_glide_erotb>
0.338688

> <r_i_glide_esite>
0

> <r_i_glide_evdw>
-28.0816

> <r_i_glide_gscore>
-0.945951

> <r_i_glide_hbond>
-0.199218

> <r_i_glide_ligand_efficiency>
-0.0315317

> <r_i_glide_ligand_efficiency_ln>
-0.21493

> <r_i_glide_ligand_efficiency_sa>
-0.0979763

> <r_i_glide_lipo>
-1.21326

> <r_i_glide_metal>
0

> <r_i_glide_rewards>
2.19525

> <s_i_glide_gridfile>
wee1_glide-grid

> <s_m_Source_File>
wee1_decoys_glide_SP.sdf

> <s_m_Source_Path>
/Users/zhangxujun/Desktop

> <s_m_entry_id>
6354

> <s_m_entry_name>
wee1_decoys_glide_SP.6079

> <s_m_subgroup_title>
wee1_decoys_glide_SP

> <s_m_subgroupid>
wee1_decoys_glide_SP


$$$$
