@<TRIPOS>MOLECULE
ZINC10538538_5133
48   50    1
SMALL
USER_CHARGES


@<TRIPOS>ATOM
      1 C1          0.2132   49.4106   24.1636 C.3       1 UNK         0.0000 
      2 C2          0.4197   50.9279   24.1169 C.3       1 UNK         0.0000 
      3 O3          1.4469   51.2435   23.1833 O.3       1 UNK         0.0000 
      4 C4          1.7091   52.5231   22.8422 C.2       1 UNK         0.0000 
      5 O5          1.1050   53.4813   23.3329 O.2       1 UNK         0.0000 
      6 C6          2.8086   52.7143   21.8606 C.2       1 UNK         0.0000 
      7 C7          3.2634   51.7910   20.9643 C.2       1 UNK         0.0000 
      8 N8          4.2888   52.0967   20.1064 N.am      1 UNK         0.0000 
      9 C9          4.8509   53.3179   19.9507 C.2       1 UNK         0.0000 
     10 O10         5.8476   53.5200   19.2672 O.2       1 UNK         0.0000 
     11 N11         4.3046   54.2922   20.7202 N.am      1 UNK         0.0000 
     12 C12         3.5912   54.0458   22.0029 C.3       1 UNK         0.0000 
     13 H13         2.9053   54.8817   22.1569 H         1 UNK         0.0000 
     14 C14         4.4858   54.1498   23.2601 C.ar      1 UNK         0.0000 
     15 C15         5.8702   53.9499   23.1807 C.ar      1 UNK         0.0000 
     16 C16         6.6783   54.0967   24.3035 C.ar      1 UNK         0.0000 
     17 C17         6.1051   54.4286   25.5276 C.ar      1 UNK         0.0000 
     18 C18         4.7308   54.6248   25.6305 C.ar      1 UNK         0.0000 
     19 C19         3.9273   54.4929   24.5002 C.ar      1 UNK         0.0000 
     20 Cl20        7.1044   54.5942   26.9235 Cl        1 UNK         0.0000 
     21 C21         2.6812   50.4016   20.6575 C.3       1 UNK         0.0000 
     22 N22         1.9905   50.2216   19.3576 N.pl3     1 UNK         0.0000 
     23 C23         1.5453   51.2596   18.5572 C.ar      1 UNK         0.0000 
     24 C24         0.9260   51.1423   17.3610 C.ar      1 UNK         0.0000 
     25 C25         0.7443   49.7677   16.9120 C.ar      1 UNK         0.0000 
     26 C26         1.1047   48.7223   17.6916 C.ar      1 UNK         0.0000 
     27 C27         1.7067   48.9101   19.0153 C.ar      1 UNK         0.0000 
     28 O28         1.9044   47.9481   19.7652 O.2       1 UNK         0.0000 
     29 Cl29        0.8669   47.0693   17.1050 Cl        1 UNK         0.0000 
     30 C30         0.4089   52.3277   16.5534 C.3       1 UNK         0.0000 
     31 F31        -0.9166   52.2406   16.4368 F         1 UNK         0.0000 
     32 F32         0.7090   53.4879   17.1417 F         1 UNK         0.0000 
     33 F33         0.9509   52.3124   15.3364 F         1 UNK         0.0000 
     34 H34        -0.6037   49.1501   24.8373 H         1 UNK         0.0000 
     35 H35        -0.0263   49.0121   23.1769 H         1 UNK         0.0000 
     36 H36         1.1045   48.8977   24.5232 H         1 UNK         0.0000 
     37 H37         0.6857   51.3034   25.1068 H         1 UNK         0.0000 
     38 H38        -0.5128   51.4141   23.8229 H         1 UNK         0.0000 
     39 H39         4.6150   51.4174   19.4206 H         1 UNK         0.0000 
     40 H40         4.7486   55.1907   20.6127 H         1 UNK         0.0000 
     41 H41         6.3335   53.6963   22.2435 H         1 UNK         0.0000 
     42 H42         7.7436   53.9462   24.2184 H         1 UNK         0.0000 
     43 H43         4.2876   54.8866   26.5799 H         1 UNK         0.0000 
     44 H44         2.8677   54.6754   24.5976 H         1 UNK         0.0000 
     45 H45         3.5044   49.6966   20.7291 H         1 UNK         0.0000 
     46 H46         1.9834   50.0630   21.4128 H         1 UNK         0.0000 
     47 H47         1.6848   52.2253   19.0231 H         1 UNK         0.0000 
     48 H48         0.3205   49.5814   15.9348 H         1 UNK         0.0000 
@<TRIPOS>BOND
     1    1    2 1    
     2    1   34 1    
     3    1   35 1    
     4    1   36 1    
     5    2    3 1    
     6    2   37 1    
     7    2   38 1    
     8    3    4 1    
     9    4    5 2    
    10    4    6 1    
    11    6   12 1    
    12    6    7 2    
    13    7    8 1    
    14    7   21 1    
    15    8    9 am   BACKBONE|DICT|INTERRES
    16    8   39 1    
    17    9   10 2    
    18    9   11 am   BACKBONE|DICT|INTERRES
    19   11   12 1    
    20   11   40 1    
    21   12   13 1    
    22   12   14 1    
    23   14   19 ar   
    24   14   15 ar   
    25   15   16 ar   
    26   15   41 1    
    27   16   17 ar   
    28   16   42 1    
    29   17   18 ar   
    30   17   20 1    
    31   18   19 ar   
    32   18   43 1    
    33   19   44 1    
    34   21   22 1    
    35   21   45 1    
    36   21   46 1    
    37   22   27 ar   
    38   22   23 ar   
    39   23   24 ar   
    40   23   47 1    
    41   24   25 ar   
    42   24   30 1    
    43   25   26 ar   
    44   25   48 1    
    45   26   27 ar   
    46   26   29 1    
    47   27   28 2    
    48   30   31 1    
    49   30   32 1    
    50   30   33 1    
@<TRIPOS>SUBSTRUCTURE
     1 UNK         1 GROUP             0       ****    0 ROOT    
