@<TRIPOS>MOLECULE
ZINC09884220_3364
55   58    1
SMALL
USER_CHARGES


@<TRIPOS>ATOM
      1 C1          4.0061   54.0939   22.2795 C.3       1 UNK         0.0000 
      2 N2          3.7167   53.7939   23.6888 N.pl3     1 UNK         0.0000 
      3 C3          4.7071   54.1376   24.6576 C.ar      1 UNK         0.0000 
      4 C4          4.6225   53.7239   25.9992 C.ar      1 UNK         0.0000 
      5 C5          5.5899   54.0887   26.9345 C.ar      1 UNK         0.0000 
      6 C6          6.6697   54.8733   26.5463 C.ar      1 UNK         0.0000 
      7 C7          6.7856   55.2822   25.2227 C.ar      1 UNK         0.0000 
      8 C8          5.8337   54.8967   24.2918 C.ar      1 UNK         0.0000 
      9 S9          1.9638   53.5206   24.0590 S.o2      1 UNK         0.0000 
     10 O10         1.2039   54.4967   23.2817 O.2       1 UNK         0.0000 
     11 O11         1.7648   53.4477   25.5101 O.2       1 UNK         0.0000 
     12 C12         1.5128   51.9234   23.3738 C.ar      1 UNK         0.0000 
     13 C13         1.0208   50.9368   24.2320 C.ar      1 UNK         0.0000 
     14 C14         0.6408   49.6974   23.7314 C.ar      1 UNK         0.0000 
     15 C15         0.7662   49.4373   22.3705 C.ar      1 UNK         0.0000 
     16 C16         1.2780   50.3975   21.4920 C.ar      1 UNK         0.0000 
     17 C17         1.6060   51.6600   21.9976 C.ar      1 UNK         0.0000 
     18 C18         1.4205   50.0759   20.0251 C.2       1 UNK         0.0000 
     19 O19         1.0167   50.8630   19.1668 O.2       1 UNK         0.0000 
     20 N20         1.9938   48.8772   19.7771 N.am      1 UNK         0.0000 
     21 N21         1.9944   48.3531   18.4805 N.am      1 UNK         0.0000 
     22 C22         1.2540   47.2340   18.2886 C.2       1 UNK         0.0000 
     23 O23         0.4432   46.8076   19.1168 O.2       1 UNK         0.0000 
     24 C24         1.4372   46.5671   17.0074 C.ar      1 UNK         0.0000 
     25 C25         2.3040   46.8785   15.9531 C.ar      1 UNK         0.0000 
     26 N26         2.2058   46.0599   14.9275 N.2       1 UNK         0.0000 
     27 C27         1.2761   45.2182   15.2862 C.ar      1 UNK         0.0000 
     28 N28         0.7617   45.4410   16.5434 N.pl3     1 UNK         0.0000 
     29 C29        -0.2583   44.6603   17.1330 C.ar      1 UNK         0.0000 
     30 C30        -0.0602   44.0636   18.3820 C.ar      1 UNK         0.0000 
     31 C31        -1.0860   43.3250   18.9631 C.ar      1 UNK         0.0000 
     32 C32        -2.2905   43.1541   18.2839 C.ar      1 UNK         0.0000 
     33 C33        -2.4815   43.7229   17.0270 C.ar      1 UNK         0.0000 
     34 C34        -1.4651   44.4790   16.4479 C.ar      1 UNK         0.0000 
     35 F35        -3.2820   42.4289   18.8500 F         1 UNK         0.0000 
     36 H36         4.2148   55.1513   22.1290 H         1 UNK         0.0000 
     37 H37         4.8569   53.5117   21.9228 H         1 UNK         0.0000 
     38 H38         3.1675   53.9029   21.6214 H         1 UNK         0.0000 
     39 H39         3.8419   53.0707   26.3472 H         1 UNK         0.0000 
     40 H40         5.5069   53.7521   27.9575 H         1 UNK         0.0000 
     41 H41         7.4092   55.1558   27.2818 H         1 UNK         0.0000 
     42 H42         7.6148   55.8881   24.8876 H         1 UNK         0.0000 
     43 H43         5.9952   55.2333   23.2802 H         1 UNK         0.0000 
     44 H44         0.9180   51.1243   25.2914 H         1 UNK         0.0000 
     45 H45         0.2472   48.9423   24.3970 H         1 UNK         0.0000 
     46 H46         0.4276   48.4957   21.9851 H         1 UNK         0.0000 
     47 H47         1.9217   52.4188   21.3025 H         1 UNK         0.0000 
     48 H48         2.7381   48.4999   20.3493 H         1 UNK         0.0000 
     49 H49         2.8108   48.6063   17.9319 H         1 UNK         0.0000 
     50 H50         3.0050   47.6955   15.9111 H         1 UNK         0.0000 
     51 H51         0.9107   44.3915   14.6960 H         1 UNK         0.0000 
     52 H52         0.8705   44.1989   18.9145 H         1 UNK         0.0000 
     53 H53        -0.9518   42.9041   19.9447 H         1 UNK         0.0000 
     54 H54        -3.4196   43.5884   16.5095 H         1 UNK         0.0000 
     55 H55        -1.6251   44.9336   15.4800 H         1 UNK         0.0000 
@<TRIPOS>BOND
     1    1    2 1    
     2    1   36 1    
     3    1   37 1    
     4    1   38 1    
     5    2    3 1    
     6    2    9 1    
     7    3    8 ar   
     8    3    4 ar   
     9    4    5 ar   
    10    4   39 1    
    11    5    6 ar   
    12    5   40 1    
    13    6    7 ar   
    14    6   41 1    
    15    7    8 ar   
    16    7   42 1    
    17    8   43 1    
    18    9   10 2    
    19    9   11 2    
    20    9   12 1    
    21   12   17 ar   
    22   12   13 ar   
    23   13   14 ar   
    24   13   44 1    
    25   14   15 ar   
    26   14   45 1    
    27   15   16 ar   
    28   15   46 1    
    29   16   17 ar   
    30   16   18 1    
    31   17   47 1    
    32   18   19 2    
    33   18   20 am   BACKBONE|DICT|INTERRES
    34   20   21 1    
    35   20   48 1    
    36   21   22 am   BACKBONE|DICT|INTERRES
    37   21   49 1    
    38   22   23 2    
    39   22   24 1    
    40   24   28 ar   
    41   24   25 ar   
    42   25   26 ar   
    43   25   50 1    
    44   26   27 ar   
    45   27   28 ar   
    46   27   51 1    
    47   28   29 1    
    48   29   34 ar   
    49   29   30 ar   
    50   30   31 ar   
    51   30   52 1    
    52   31   32 ar   
    53   31   53 1    
    54   32   33 ar   
    55   32   35 1    
    56   33   34 ar   
    57   33   54 1    
    58   34   55 1    
@<TRIPOS>SUBSTRUCTURE
     1 UNK         1 GROUP             0       ****    0 ROOT    
