@<TRIPOS>MOLECULE
ZINC36737378_3577
28   29    1
SMALL
USER_CHARGES


@<TRIPOS>ATOM
      1 C1         -0.2221   52.0962   29.4549 C.3       1 UNK         0.0000 
      2 C2          0.5304   53.3944   29.2639 C.2       1 UNK         0.0000 
      3 C3          0.7001   54.4076   30.2183 C.2       1 UNK         0.0000 
      4 C4          1.5173   55.3799   29.6762 C.2       1 UNK         0.0000 
      5 O5          1.9136   54.9964   28.4415 O.3       1 UNK         0.0000 
      6 C6          1.2977   53.8129   28.1652 C.2       1 UNK         0.0000 
      7 C7          1.6308   53.1744   26.9175 C.2       1 UNK         0.0000 
      8 O8          2.7518   53.2976   26.4219 O.2       1 UNK         0.0000 
      9 N9          0.6096   52.4967   26.3505 N.am      1 UNK         0.0000 
     10 C10         0.7046   51.7393   25.1653 C.ar      1 UNK         0.0000 
     11 C11         0.5386   50.3404   25.2273 C.ar      1 UNK         0.0000 
     12 C12         0.6682   49.5718   24.0709 C.ar      1 UNK         0.0000 
     13 C13         0.9428   50.1754   22.8473 C.ar      1 UNK         0.0000 
     14 C14         1.0658   51.5589   22.7691 C.ar      1 UNK         0.0000 
     15 C15         0.9392   52.3472   23.9128 C.ar      1 UNK         0.0000 
     16 Br16        1.1049   54.2350   23.6901 Br        1 UNK         0.0000 
     17 Br17        1.1535   49.1115   21.2836 Br        1 UNK         0.0000 
     18 N18         0.3042   49.6707   26.4314 N.pl3     1 UNK         0.0000 
     19 H19        -1.2000   52.1064   28.9732 H         1 UNK         0.0000 
     20 H20         0.3238   51.2538   29.0284 H         1 UNK         0.0000 
     21 H21        -0.3674   51.8523   30.5083 H         1 UNK         0.0000 
     22 H22         0.2695   54.4205   31.2094 H         1 UNK         0.0000 
     23 H23         1.9069   56.3209   30.0385 H         1 UNK         0.0000 
     24 H24        -0.2575   52.4351   26.8610 H         1 UNK         0.0000 
     25 H25         0.5734   48.4976   24.1206 H         1 UNK         0.0000 
     26 H26         1.2688   52.0250   21.8156 H         1 UNK         0.0000 
     27 H27         0.3925   48.6618   26.3948 H         1 UNK         0.0000 
     28 H28        -0.4728   49.9854   26.9983 H         1 UNK         0.0000 
@<TRIPOS>BOND
     1    1    2 1    
     2    1   19 1    
     3    1   20 1    
     4    1   21 1    
     5    2    6 2    
     6    2    3 1    
     7    3    4 2    
     8    3   22 1    
     9    4    5 1    
    10    4   23 1    
    11    5    6 1    
    12    6    7 1    
    13    7    8 2    
    14    7    9 am   BACKBONE|DICT|INTERRES
    15    9   10 1    
    16    9   24 1    
    17   10   15 ar   
    18   10   11 ar   
    19   11   12 ar   
    20   11   18 1    
    21   12   13 ar   
    22   12   25 1    
    23   13   14 ar   
    24   13   17 1    
    25   14   15 ar   
    26   14   26 1    
    27   15   16 1    
    28   18   27 1    
    29   18   28 1    
@<TRIPOS>SUBSTRUCTURE
     1 UNK         1 GROUP             0       ****    0 ROOT    
