ZINC63655786_2175
                    3D
 Schrodinger Suite 2024-2.
 55 59  0  0  1  0            999 V2000
    6.4873   54.4980   22.4818 C   0  0  0  0  0  0
    6.5720   54.9034   23.8752 C   0  0  0  0  0  0
    5.5184   54.7883   24.7227 C   0  0  0  0  0  0
    4.3081   54.2595   24.2627 C   0  0  0  0  0  0
    3.1885   54.0967   24.9037 N   0  3  0  0  0  0
    2.1836   53.4818   24.0333 C   0  0  0  0  0  0
    2.9530   53.2967   22.7456 C   0  0  0  0  0  0
    4.1816   53.8170   22.9423 C   0  0  0  0  0  0
    5.3299   53.9638   22.0385 C   0  0  0  0  0  0
    2.3069   52.6604   21.5267 C   0  0  0  0  0  0
    2.0155   51.1398   21.6278 C   0  0  0  0  0  0
    1.2019   50.6951   22.7702 N   0  0  0  0  0  0
   -0.0705   51.0686   23.0166 C   0  0  0  0  0  0
   -0.6649   51.8633   22.2847 O   0  0  0  0  0  0
   -0.7958   50.4383   24.2406 C   0  0  2  0  0  0
   -0.8560   49.4036   23.9030 H   0  0  0  0  0  0
   -2.2239   50.9804   24.4814 C   0  0  0  0  0  0
   -2.1858   52.3503   25.1767 C   0  0  0  0  0  0
   -1.3383   52.2928   26.4626 C   0  0  0  0  0  0
    0.0167   51.7679   26.2122 N   0  0  0  0  0  0
    0.0633   50.4561   25.5412 C   0  0  0  0  0  0
    0.9646   51.9064   27.3260 C   0  0  2  0  0  0
    1.8512   51.2967   27.1639 H   0  0  0  0  0  0
    0.4333   51.5396   28.6307 N   0  0  0  0  0  0
    0.4211   52.5690   29.5663 C   0  0  0  0  0  0
   -0.0658   52.5439   30.8712 C   0  0  0  0  0  0
    0.0409   53.6966   31.6543 C   0  0  0  0  0  0
    0.6079   54.8423   31.0875 C   0  0  0  0  0  0
    1.1056   54.8838   29.8274 N   0  0  0  0  0  0
    0.9991   53.7417   29.1078 C   0  0  0  0  0  0
    1.6322   53.5889   27.5037 S   0  0  0  0  0  0
    7.3338   54.6347   21.8238 H   0  0  0  0  0  0
    7.4973   55.3187   24.2430 H   0  0  0  0  0  0
    5.6324   55.1096   25.7472 H   0  0  0  0  0  0
    1.8756   52.5501   24.5038 H   0  0  0  0  0  0
    1.3306   54.1586   23.9517 H   0  0  0  0  0  0
    5.2735   53.6680   20.9989 H   0  0  0  0  0  0
    1.3862   53.2017   21.3096 H   0  0  0  0  0  0
    2.9455   52.8371   20.6614 H   0  0  0  0  0  0
    1.5553   50.7888   20.7014 H   0  0  0  0  0  0
    2.9666   50.6114   21.7068 H   0  0  0  0  0  0
    1.6243   50.0042   23.3737 H   0  0  0  0  0  0
   -2.8153   50.9734   23.5630 H   0  0  0  0  0  0
   -2.7729   50.2468   25.0757 H   0  0  0  0  0  0
   -1.8075   53.1275   24.5109 H   0  0  0  0  0  0
   -3.1999   52.6585   25.4286 H   0  0  0  0  0  0
   -1.2602   53.2960   26.8813 H   0  0  0  0  0  0
   -1.8285   51.6904   27.2291 H   0  0  0  0  0  0
   -0.2897   49.7114   26.2581 H   0  0  0  0  0  0
    1.1039   50.2239   25.3182 H   0  0  0  0  0  0
    0.0874   50.5995   28.7689 H   0  0  0  0  0  0
   -0.5059   51.6470   31.2816 H   0  0  0  0  0  0
   -0.3257   53.6966   32.6719 H   0  0  0  0  0  0
    0.7054   55.7472   31.6663 H   0  0  0  0  0  0
    3.0215   54.3321   25.8793 H   0  0  0  0  0  0
  1  9  2  0  0  0
  1  2  1  0  0  0
  1 32  1  0  0  0
  2  3  2  0  0  0
  2 33  1  0  0  0
  3  4  1  0  0  0
  3 34  1  0  0  0
  4  8  1  0  0  0
  4  5  2  0  0  0
  5  6  1  0  0  0
  5 55  1  0  0  0
  6  7  1  0  0  0
  6 35  1  0  0  0
  6 36  1  0  0  0
  7  8  2  0  0  0
  7 10  1  0  0  0
  8  9  1  0  0  0
  9 37  1  0  0  0
 10 11  1  0  0  0
 10 38  1  0  0  0
 10 39  1  0  0  0
 11 12  1  0  0  0
 11 40  1  0  0  0
 11 41  1  0  0  0
 12 13  1  0  0  0
 12 42  1  0  0  0
 13 14  2  0  0  0
 13 15  1  0  0  0
 15 16  1  0  0  0
 15 21  1  0  0  0
 15 17  1  0  0  0
 17 18  1  0  0  0
 17 43  1  0  0  0
 17 44  1  0  0  0
 18 19  1  0  0  0
 18 45  1  0  0  0
 18 46  1  0  0  0
 19 20  1  0  0  0
 19 47  1  0  0  0
 19 48  1  0  0  0
 20 21  1  0  0  0
 20 22  1  0  0  0
 21 49  1  0  0  0
 21 50  1  0  0  0
 22 23  1  0  0  0
 22 31  1  0  0  0
 22 24  1  0  0  0
 24 25  1  0  0  0
 24 51  1  0  0  0
 25 30  2  0  0  0
 25 26  1  0  0  0
 26 27  2  0  0  0
 26 52  1  0  0  0
 27 28  1  0  0  0
 27 53  1  0  0  0
 28 29  2  0  0  0
 28 54  1  0  0  0
 29 30  1  0  0  0
 30 31  1  0  0  0
M  CHG  1   5   1
M  END
> <i_i_glide_confnum>
100

> <i_i_glide_lignum>
2176

> <i_i_glide_posenum>
392

> <i_i_glide_rotatable_bonds>
6

> <i_m_Source_File_Index>
1750

> <b_m_subgroup_collapsed>
0

> <r_i_docking_score>
-5.46504

> <r_i_glide_ecoul>
-4.23158

> <r_i_glide_eff_state_penalty>
0

> <r_i_glide_einternal>
4.15248

> <r_i_glide_emodel>
-55.7422

> <r_i_glide_energy>
-39.9429

> <r_i_glide_erotb>
0.589624

> <r_i_glide_esite>
0

> <r_i_glide_evdw>
-35.7114

> <r_i_glide_gscore>
-5.46504

> <r_i_glide_hbond>
0

> <r_i_glide_ligand_efficiency>
-0.18845

> <r_i_glide_ligand_efficiency_ln>
-1.25136

> <r_i_glide_ligand_efficiency_sa>
-0.578977

> <r_i_glide_lipo>
-2.77842

> <r_i_glide_metal>
0

> <r_i_glide_rewards>
-0.855943

> <s_i_glide_gridfile>
wee1_glide-grid

> <s_m_Source_File>
wee1_decoys_glide_SP.sdf

> <s_m_Source_Path>
/Users/zhangxujun/Desktop

> <s_m_entry_id>
2025

> <s_m_entry_name>
wee1_decoys_glide_SP.1750

> <s_m_subgroup_title>
wee1_decoys_glide_SP

> <s_m_subgroupid>
wee1_decoys_glide_SP


$$$$
