@<TRIPOS>MOLECULE
ZINC39275509_1679
27   29    1
SMALL
USER_CHARGES


@<TRIPOS>ATOM
      1 C1          2.8900   53.7342   24.3572 C.ar      1 UNK         0.0000 
      2 C2          3.9920   54.0965   23.5869 C.ar      1 UNK         0.0000 
      3 C3          5.1914   54.4309   24.2114 C.ar      1 UNK         0.0000 
      4 C4          5.2925   54.4183   25.6000 C.ar      1 UNK         0.0000 
      5 C5          4.1910   54.0506   26.3690 C.ar      1 UNK         0.0000 
      6 C6          2.9828   53.6977   25.7502 C.ar      1 UNK         0.0000 
      7 N7          1.8331   53.2968   26.4567 N.pl3     1 UNK         0.0000 
      8 C8          1.8085   53.0173   27.8896 C.3       1 UNK         0.0000 
      9 H9          2.7583   52.5321   28.1223 H         1 UNK         0.0000 
     10 C10         1.7416   54.3331   28.7448 C.2       1 UNK         0.0000 
     11 N11         2.3510   55.4344   28.7234 N.2       1 UNK         0.0000 
     12 C12         1.7678   56.0956   29.7889 C.2       1 UNK         0.0000 
     13 N13         0.8748   55.5102   30.4817 N.2       1 UNK         0.0000 
     14 C14         0.7410   54.3042   29.8401 C.2       1 UNK         0.0000 
     15 N15        -0.0684   53.3406   30.0843 N.2       1 UNK         0.0000 
     16 C16        -0.0565   52.2469   29.2201 C.2       1 UNK         0.0000 
     17 N17         0.7448   52.0271   28.2342 N.2       1 UNK         0.0000 
     18 N18        -1.0127   51.2975   29.4492 N.pl3     1 UNK         0.0000 
     19 Br19        6.7043   54.8962   23.1559 Br        1 UNK         0.0000 
     20 H20         1.9659   53.4716   23.8631 H         1 UNK         0.0000 
     21 H21         3.9167   54.1138   22.5092 H         1 UNK         0.0000 
     22 H22         6.2241   54.6773   26.0802 H         1 UNK         0.0000 
     23 H23         4.2979   54.0342   27.4421 H         1 UNK         0.0000 
     24 H24         1.1637   52.7592   25.9259 H         1 UNK         0.0000 
     25 H25         2.0770   57.1072   30.0423 H         1 UNK         0.0000 
     26 H26        -1.0451   50.4545   28.8873 H         1 UNK         0.0000 
     27 H27        -1.5518   51.3194   30.3031 H         1 UNK         0.0000 
@<TRIPOS>BOND
     1    1    6 ar   
     2    1    2 ar   
     3    1   20 1    
     4    2    3 ar   
     5    2   21 1    
     6    3    4 ar   
     7    3   19 1    
     8    4    5 ar   
     9    4   22 1    
    10    5    6 ar   
    11    5   23 1    
    12    6    7 1    
    13    7    8 1    
    14    7   24 1    
    15    8    9 1    
    16    8   17 1    
    17    8   10 1    
    18   10   14 1    
    19   10   11 2    
    20   11   12 1    
    21   12   13 2    
    22   12   25 1    
    23   13   14 1    
    24   14   15 2    
    25   15   16 1    
    26   16   17 2    
    27   16   18 1    
    28   18   26 1    
    29   18   27 1    
@<TRIPOS>SUBSTRUCTURE
     1 UNK         1 GROUP             0       ****    0 ROOT    
