@<TRIPOS>MOLECULE
ZINC43962371_850
62   64    1
SMALL
USER_CHARGES


@<TRIPOS>ATOM
      1 C1          6.9186   54.1893   27.6083 C.3       1 UNK         0.0000 
      2 C2          6.1332   54.6222   26.3572 C.3       1 UNK         0.0000 
      3 C3          6.9403   54.3599   25.0692 C.3       1 UNK         0.0000 
      4 C4          4.7328   53.9749   26.3261 C.3       1 UNK         0.0000 
      5 O5          4.0972   54.2645   25.0833 O.3       1 UNK         0.0000 
      6 C6          2.8470   53.7488   24.8176 C.ar      1 UNK         0.0000 
      7 C7          2.3632   53.9569   23.5297 C.ar      1 UNK         0.0000 
      8 C8          1.0976   53.5083   23.1766 C.ar      1 UNK         0.0000 
      9 C9          0.2963   52.8607   24.1170 C.ar      1 UNK         0.0000 
     10 C10         0.7865   52.6084   25.3981 C.ar      1 UNK         0.0000 
     11 C11         2.0577   53.0582   25.7511 C.ar      1 UNK         0.0000 
     12 S12        -1.3929   52.4204   23.7073 S.o2      1 UNK         0.0000 
     13 O13        -1.7988   51.3287   24.5979 O.2       1 UNK         0.0000 
     14 O14        -2.1430   53.6819   23.6816 O.2       1 UNK         0.0000 
     15 N15        -1.3903   51.8078   22.0563 N.pl3     1 UNK         0.0000 
     16 C16        -1.1287   50.3952   21.7065 C.3       1 UNK         0.0000 
     17 C17         0.2854   50.1489   21.1401 C.3       1 UNK         0.0000 
     18 C18         0.6935   51.0867   19.9711 C.3       1 UNK         0.0000 
     19 C19         2.1557   50.9110   19.5202 C.3       1 UNK         0.0000 
     20 N20         2.9873   51.0685   20.7299 N.am      1 UNK         0.0000 
     21 C21         2.8337   49.9745   21.7036 C.3       1 UNK         0.0000 
     22 C22         1.3797   49.9894   22.2200 C.3       1 UNK         0.0000 
     23 C23         3.9979   51.9715   20.8528 C.2       1 UNK         0.0000 
     24 O24         4.9008   51.8359   21.6814 O.2       1 UNK         0.0000 
     25 N25         3.9088   53.0456   20.0345 N.am      1 UNK         0.0000 
     26 C26         4.7357   54.1825   19.9965 C.ar      1 UNK         0.0000 
     27 C27         4.7425   54.9075   18.8026 C.ar      1 UNK         0.0000 
     28 C28         5.5335   56.0468   18.6805 C.ar      1 UNK         0.0000 
     29 C29         6.3192   56.4600   19.7523 C.ar      1 UNK         0.0000 
     30 C30         6.3059   55.7562   20.9521 C.ar      1 UNK         0.0000 
     31 C31         5.5058   54.6256   21.0829 C.ar      1 UNK         0.0000 
     32 F32         7.0996   57.5538   19.6334 F         1 UNK         0.0000 
     33 H33         7.1306   53.1189   27.6010 H         1 UNK         0.0000 
     34 H34         6.3636   54.4099   28.5210 H         1 UNK         0.0000 
     35 H35         7.8705   54.7117   27.6813 H         1 UNK         0.0000 
     36 H36         5.9813   55.6971   26.4228 H         1 UNK         0.0000 
     37 H37         7.1249   53.2968   24.9210 H         1 UNK         0.0000 
     38 H38         6.4121   54.7238   24.1879 H         1 UNK         0.0000 
     39 H39         7.9005   54.8721   25.0872 H         1 UNK         0.0000 
     40 H40         4.8164   52.8964   26.4667 H         1 UNK         0.0000 
     41 H41         4.1316   54.3697   27.1481 H         1 UNK         0.0000 
     42 H42         2.9688   54.4787   22.8030 H         1 UNK         0.0000 
     43 H43         0.7131   53.6830   22.1808 H         1 UNK         0.0000 
     44 H44         0.1775   52.1005   26.1317 H         1 UNK         0.0000 
     45 H45         2.4096   52.8721   26.7544 H         1 UNK         0.0000 
     46 H46        -1.5636   52.4696   21.2985 H         1 UNK         0.0000 
     47 H47        -1.3215   49.7767   22.5847 H         1 UNK         0.0000 
     48 H48        -1.8694   50.1041   20.9608 H         1 UNK         0.0000 
     49 H49         0.2734   49.1598   20.6780 H         1 UNK         0.0000 
     50 H50         0.0112   50.9649   19.1280 H         1 UNK         0.0000 
     51 H51         0.5746   52.1292   20.2794 H         1 UNK         0.0000 
     52 H52         2.3200   49.8963   19.1502 H         1 UNK         0.0000 
     53 H53         2.4396   51.5647   18.6952 H         1 UNK         0.0000 
     54 H54         3.0552   49.0292   21.2089 H         1 UNK         0.0000 
     55 H55         3.5040   50.0953   22.5529 H         1 UNK         0.0000 
     56 H56         1.3227   50.8366   22.8941 H         1 UNK         0.0000 
     57 H57         1.1814   49.1280   22.8590 H         1 UNK         0.0000 
     58 H58         3.1805   53.0190   19.3380 H         1 UNK         0.0000 
     59 H59         4.1395   54.5889   17.9641 H         1 UNK         0.0000 
     60 H60         5.5442   56.6047   17.7560 H         1 UNK         0.0000 
     61 H61         6.9099   56.0927   21.7804 H         1 UNK         0.0000 
     62 H62         5.4967   54.1127   22.0320 H         1 UNK         0.0000 
@<TRIPOS>BOND
     1    1    2 1    
     2    1   33 1    
     3    1   34 1    
     4    1   35 1    
     5    2    3 1    
     6    2    4 1    
     7    2   36 1    
     8    3   37 1    
     9    3   38 1    
    10    3   39 1    
    11    4    5 1    
    12    4   40 1    
    13    4   41 1    
    14    5    6 1    
    15    6   11 ar   
    16    6    7 ar   
    17    7    8 ar   
    18    7   42 1    
    19    8    9 ar   
    20    8   43 1    
    21    9   10 ar   
    22    9   12 1    
    23   10   11 ar   
    24   10   44 1    
    25   11   45 1    
    26   12   13 2    
    27   12   14 2    
    28   12   15 1    
    29   15   16 1    
    30   15   46 1    
    31   16   17 1    
    32   16   47 1    
    33   16   48 1    
    34   17   22 1    
    35   17   18 1    
    36   17   49 1    
    37   18   19 1    
    38   18   50 1    
    39   18   51 1    
    40   19   20 1    
    41   19   52 1    
    42   19   53 1    
    43   20   21 1    
    44   20   23 am   BACKBONE|DICT|INTERRES
    45   21   22 1    
    46   21   54 1    
    47   21   55 1    
    48   22   56 1    
    49   22   57 1    
    50   23   24 2    
    51   23   25 am   BACKBONE|DICT|INTERRES
    52   25   26 1    
    53   25   58 1    
    54   26   31 ar   
    55   26   27 ar   
    56   27   28 ar   
    57   27   59 1    
    58   28   29 ar   
    59   28   60 1    
    60   29   30 ar   
    61   29   32 1    
    62   30   31 ar   
    63   30   61 1    
    64   31   62 1    
@<TRIPOS>SUBSTRUCTURE
     1 UNK         1 GROUP             0       ****    0 ROOT    
