@<TRIPOS>MOLECULE
ZINC24838125_117
50   53    1
SMALL
USER_CHARGES


@<TRIPOS>ATOM
      1 C1          6.8863   55.2482   23.3432 C.3       1 UNK         0.0000 
      2 C2          6.1496   54.9687   24.6541 C.2       1 UNK         0.0000 
      3 O3          6.7419   55.2971   25.6829 O.2       1 UNK         0.0000 
      4 C4          4.7535   54.3705   24.6624 C.ar      1 UNK         0.0000 
      5 C5          4.1630   54.2492   25.9427 C.ar      1 UNK         0.0000 
      6 C6          2.8974   53.6965   26.0590 C.ar      1 UNK         0.0000 
      7 C7          2.1901   53.2958   24.9696 C.ar      1 UNK         0.0000 
      8 C8          2.7038   53.4010   23.6879 C.ar      1 UNK         0.0000 
      9 C9          4.0090   53.9155   23.5230 C.ar      1 UNK         0.0000 
     10 N10         4.5403   54.0203   22.2232 N.am      1 UNK         0.0000 
     11 C11         4.3411   53.2350   21.1448 C.2       1 UNK         0.0000 
     12 O12         3.6722   52.2005   21.1369 O.2       1 UNK         0.0000 
     13 C13         5.0442   53.7444   19.8817 C.3       1 UNK         0.0000 
     14 N14         4.6959   52.8967   18.6951 N.4       1 UNK         0.0000 
     15 C15         5.1378   53.4857   17.3396 C.3       1 UNK         0.0000 
     16 H16         4.8191   52.6487   16.7123 H         1 UNK         0.0000 
     17 C17         4.3264   54.7170   16.8897 C.ar      1 UNK         0.0000 
     18 C18         3.2381   54.5137   16.0307 C.ar      1 UNK         0.0000 
     19 C19         2.4604   55.5856   15.6024 C.ar      1 UNK         0.0000 
     20 C20         2.7654   56.8735   16.0298 C.ar      1 UNK         0.0000 
     21 C21         3.8415   57.0970   16.8829 C.ar      1 UNK         0.0000 
     22 C22         4.6167   56.0229   17.3147 C.ar      1 UNK         0.0000 
     23 F23         2.0089   57.9132   15.6158 F         1 UNK         0.0000 
     24 C24         6.6705   53.5140   17.2742 C.2       1 UNK         0.0000 
     25 C25         7.5060   52.4973   16.8043 C.2       1 UNK         0.0000 
     26 C26         8.8754   52.7640   16.8821 C.2       1 UNK         0.0000 
     27 C27         9.1372   54.0110   17.4116 C.2       1 UNK         0.0000 
     28 S28         7.6771   54.8458   17.8041 S.3       1 UNK         0.0000 
     29 O29         0.9762   52.8316   25.3682 O.3       1 UNK         0.0000 
     30 C30         1.0650   52.7197   26.7644 C.3       1 UNK         0.0000 
     31 O31         2.1522   53.5032   27.1781 O.3       1 UNK         0.0000 
     32 H32         7.3177   54.3328   22.9405 H         1 UNK         0.0000 
     33 H33         6.2514   55.7047   22.5948 H         1 UNK         0.0000 
     34 H34         7.6810   55.9711   23.5204 H         1 UNK         0.0000 
     35 H35         4.6756   54.5679   26.8393 H         1 UNK         0.0000 
     36 H36         2.1031   53.0878   22.8462 H         1 UNK         0.0000 
     37 H37         5.1869   54.7787   22.0969 H         1 UNK         0.0000 
     38 H38         4.7186   54.7581   19.6582 H         1 UNK         0.0000 
     39 H39         6.1266   53.6973   19.9817 H         1 UNK         0.0000 
     40 H40         5.1043   51.9573   18.7398 H         1 UNK         0.0000 
     41 H41         2.9843   53.5200   15.6878 H         1 UNK         0.0000 
     42 H42         1.6225   55.4229   14.9405 H         1 UNK         0.0000 
     43 H43         4.0659   58.1037   17.2080 H         1 UNK         0.0000 
     44 H44         5.4254   56.2322   17.9946 H         1 UNK         0.0000 
     45 H45         7.1235   51.5620   16.4242 H         1 UNK         0.0000 
     46 H46         9.6414   52.0681   16.5738 H         1 UNK         0.0000 
     47 H47        10.0987   54.4718   17.5913 H         1 UNK         0.0000 
     48 H48         1.2476   51.6748   27.0309 H         1 UNK         0.0000 
     49 H49         0.1424   53.0421   27.2513 H         1 UNK         0.0000 
     50 H50         3.6963   52.7488   18.6571 H         1 UNK         0.0000 
@<TRIPOS>BOND
     1    1    2 1    
     2    1   32 1    
     3    1   33 1    
     4    1   34 1    
     5    2    3 2    
     6    2    4 1    
     7    4    9 ar   
     8    4    5 ar   
     9    5    6 ar   
    10    5   35 1    
    11    6   31 1    
    12    6    7 ar   
    13    7    8 ar   
    14    7   29 1    
    15    8    9 ar   
    16    8   36 1    
    17    9   10 1    
    18   10   11 am   BACKBONE|DICT|INTERRES
    19   10   37 1    
    20   11   12 2    
    21   11   13 1    
    22   13   14 1    
    23   13   38 1    
    24   13   39 1    
    25   14   15 1    
    26   14   40 1    
    27   14   50 1    
    28   15   16 1    
    29   15   17 1    
    30   15   24 1    
    31   17   22 ar   
    32   17   18 ar   
    33   18   19 ar   
    34   18   41 1    
    35   19   20 ar   
    36   19   42 1    
    37   20   21 ar   
    38   20   23 1    
    39   21   22 ar   
    40   21   43 1    
    41   22   44 1    
    42   24   28 1    
    43   24   25 2    
    44   25   26 1    
    45   25   45 1    
    46   26   27 2    
    47   26   46 1    
    48   27   28 1    
    49   27   47 1    
    50   29   30 1    
    51   30   31 1    
    52   30   48 1    
    53   30   49 1    
@<TRIPOS>SUBSTRUCTURE
     1 UNK         1 GROUP             0       ****    0 ROOT    
