ZINC42962418_1594
                    3D
 Schrodinger Suite 2024-2.
 46 47  0  0  1  0            999 V2000
    3.9700   54.2412   28.7606 C   0  0  0  0  0  0
    4.5333   54.2855   27.3509 C   0  0  0  0  0  0
    5.8985   54.4965   27.1488 C   0  0  0  0  0  0
    6.4043   54.5443   25.8527 C   0  0  0  0  0  0
    5.5534   54.3822   24.7601 C   0  0  0  0  0  0
    4.1922   54.1402   24.9640 C   0  0  0  0  0  0
    3.6840   54.0964   26.2595 C   0  0  0  0  0  0
    6.2528   54.4959   23.1325 S   0  0  0  0  0  0
    4.9327   54.4953   21.8639 C   0  0  0  0  0  0
    4.6134   53.1350   21.2330 C   0  0  0  0  0  0
    5.1043   52.0963   21.6816 O   0  0  0  0  0  0
    3.7771   53.1821   20.1749 N   0  0  0  0  0  0
    3.5046   52.0114   19.4738 N   0  0  0  0  0  0
    2.3456   51.3589   19.6728 C   0  0  0  0  0  0
    1.4522   51.7095   20.4499 O   0  0  0  0  0  0
    2.3044   50.2426   18.9283 N   0  0  0  0  0  0
    1.2873   49.1954   19.0032 C   0  0  2  0  0  0
    1.9056   47.7915   19.2103 C   0  0  0  0  0  0
    0.8661   46.6533   19.1857 C   0  0  0  0  0  0
    0.0022   46.7030   17.9140 C   0  0  2  0  0  0
   -0.7160   48.0609   17.8231 C   0  0  0  0  0  0
    0.2877   49.2332   17.8185 C   0  0  0  0  0  0
   -0.9159   45.6315   17.8755 O   0  0  0  0  0  0
    3.1263   53.5528   28.8208 H   0  0  0  0  0  0
    3.6349   55.2320   29.0680 H   0  0  0  0  0  0
    4.7121   53.8840   29.4737 H   0  0  0  0  0  0
    6.5645   54.6327   27.9902 H   0  0  0  0  0  0
    7.4589   54.7094   25.6923 H   0  0  0  0  0  0
    3.5184   53.9796   24.1383 H   0  0  0  0  0  0
    2.6316   53.9114   26.4129 H   0  0  0  0  0  0
    4.0109   54.9045   22.2693 H   0  0  0  0  0  0
    5.2560   55.1712   21.0725 H   0  0  0  0  0  0
    3.4184   54.0193   19.7345 H   0  0  0  0  0  0
    4.2059   51.7590   18.7877 H   0  0  0  0  0  0
    3.0456   50.0887   18.2523 H   0  0  0  0  0  0
    0.6768   49.3584   19.8966 H   0  0  0  0  0  0
    2.6304   47.6056   18.4142 H   0  0  0  0  0  0
    2.4566   47.7647   20.1528 H   0  0  0  0  0  0
    0.2232   46.7553   20.0628 H   0  0  0  0  0  0
    1.3584   45.6856   19.2758 H   0  0  0  0  0  0
    0.6652   46.6181   17.0500 H   0  0  0  0  0  0
   -1.3804   48.1779   18.6821 H   0  0  0  0  0  0
   -1.3532   48.0977   16.9377 H   0  0  0  0  0  0
   -0.2595   50.1766   17.8246 H   0  0  0  0  0  0
    0.8469   49.1942   16.8820 H   0  0  0  0  0  0
   -0.4195   44.8108   17.8784 H   0  0  0  0  0  0
  1  2  1  0  0  0
  1 24  1  0  0  0
  1 25  1  0  0  0
  1 26  1  0  0  0
  2  7  2  0  0  0
  2  3  1  0  0  0
  3  4  2  0  0  0
  3 27  1  0  0  0
  4  5  1  0  0  0
  4 28  1  0  0  0
  5  6  2  0  0  0
  5  8  1  0  0  0
  6  7  1  0  0  0
  6 29  1  0  0  0
  7 30  1  0  0  0
  8  9  1  0  0  0
  9 10  1  0  0  0
  9 31  1  0  0  0
  9 32  1  0  0  0
 10 11  2  0  0  0
 10 12  1  0  0  0
 12 13  1  0  0  0
 12 33  1  0  0  0
 13 14  1  0  0  0
 13 34  1  0  0  0
 14 15  2  0  0  0
 14 16  1  0  0  0
 16 17  1  0  0  0
 16 35  1  0  0  0
 17 22  1  0  0  0
 17 18  1  0  0  0
 17 36  1  0  0  0
 18 19  1  0  0  0
 18 37  1  0  0  0
 18 38  1  0  0  0
 19 20  1  0  0  0
 19 39  1  0  0  0
 19 40  1  0  0  0
 20 21  1  0  0  0
 20 23  1  0  0  0
 20 41  1  0  0  0
 21 22  1  0  0  0
 21 42  1  0  0  0
 21 43  1  0  0  0
 22 44  1  0  0  0
 22 45  1  0  0  0
 23 46  1  0  0  0
M  END
> <i_i_glide_confnum>
311

> <i_i_glide_lignum>
1595

> <i_i_glide_posenum>
115

> <i_i_glide_rotatable_bonds>
9

> <i_m_Source_File_Index>
1321

> <b_m_subgroup_collapsed>
0

> <r_i_docking_score>
-5.3446

> <r_i_glide_ecoul>
-5.33233

> <r_i_glide_eff_state_penalty>
0

> <r_i_glide_einternal>
4.71066

> <r_i_glide_emodel>
-51.9183

> <r_i_glide_energy>
-38.82

> <r_i_glide_erotb>
1.32784

> <r_i_glide_esite>
-0.209892

> <r_i_glide_evdw>
-33.4877

> <r_i_glide_gscore>
-5.3446

> <r_i_glide_hbond>
-0.297317

> <r_i_glide_ligand_efficiency>
-0.232374

> <r_i_glide_ligand_efficiency_ln>
-1.29237

> <r_i_glide_ligand_efficiency_sa>
-0.660841

> <r_i_glide_lipo>
-2.32264

> <r_i_glide_metal>
0

> <r_i_glide_rewards>
-1.36836

> <s_i_glide_gridfile>
wee1_glide-grid

> <s_m_Source_File>
wee1_decoys_glide_SP.sdf

> <s_m_Source_Path>
/Users/zhangxujun/Desktop

> <s_m_entry_id>
1596

> <s_m_entry_name>
wee1_decoys_glide_SP.1321

> <s_m_subgroup_title>
wee1_decoys_glide_SP

> <s_m_subgroupid>
wee1_decoys_glide_SP


$$$$
