@<TRIPOS>MOLECULE
ZINC13994165_2956
47   48    1
SMALL
USER_CHARGES


@<TRIPOS>ATOM
      1 C1          6.2142   54.0880   28.8451 C.3       1 UNK         0.0000 
      2 C2          5.5179   54.2393   27.5088 C.ar      1 UNK         0.0000 
      3 C3          6.2810   54.3633   26.3445 C.ar      1 UNK         0.0000 
      4 C4          5.6532   54.4981   25.1087 C.ar      1 UNK         0.0000 
      5 C5          4.2632   54.4871   25.0323 C.ar      1 UNK         0.0000 
      6 C6          3.5006   54.3552   26.1925 C.ar      1 UNK         0.0000 
      7 C7          4.1162   54.2483   27.4504 C.ar      1 UNK         0.0000 
      8 O8          3.4314   54.1656   28.6555 O.3       1 UNK         0.0000 
      9 C9          1.9992   54.2098   28.7080 C.3       1 UNK         0.0000 
     10 H10         1.6103   54.9779   28.0359 H         1 UNK         0.0000 
     11 C11         1.6320   54.6513   30.1351 C.3       1 UNK         0.0000 
     12 C12         1.3923   52.8226   28.3994 C.2       1 UNK         0.0000 
     13 O13         2.0605   51.7920   28.5213 O.2       1 UNK         0.0000 
     14 N14         0.1062   52.8542   27.9918 N.am      1 UNK         0.0000 
     15 N15        -0.5529   51.6727   27.6699 N.am      1 UNK         0.0000 
     16 C16        -0.8067   51.4223   26.3681 C.2       1 UNK         0.0000 
     17 O17        -0.3718   52.1089   25.4356 O.2       1 UNK         0.0000 
     18 C18        -1.7080   50.2113   26.0962 C.3       1 UNK         0.0000 
     19 O19        -1.9444   50.1113   24.6937 O.3       1 UNK         0.0000 
     20 C20        -2.4931   48.9195   24.2970 C.ar      1 UNK         0.0000 
     21 C21        -1.6799   47.8028   24.0337 C.ar      1 UNK         0.0000 
     22 C22        -2.2749   46.6086   23.6131 C.ar      1 UNK         0.0000 
     23 C23        -3.6570   46.5250   23.4545 C.ar      1 UNK         0.0000 
     24 C24        -4.4565   47.6350   23.7078 C.ar      1 UNK         0.0000 
     25 C25        -3.8805   48.8328   24.1235 C.ar      1 UNK         0.0000 
     26 Br26       -4.9979   50.3442   24.4463 Br        1 UNK         0.0000 
     27 Br27       -4.4513   44.8952   22.8774 Br        1 UNK         0.0000 
     28 C28        -0.1642   47.8756   24.1946 C.3       1 UNK         0.0000 
     29 H29         5.9011   53.1428   29.2816 H         1 UNK         0.0000 
     30 H30         7.3010   54.0957   28.7644 H         1 UNK         0.0000 
     31 H31         5.9061   54.8908   29.5161 H         1 UNK         0.0000 
     32 H32         7.3584   54.3505   26.3982 H         1 UNK         0.0000 
     33 H33         6.2436   54.5927   24.2093 H         1 UNK         0.0000 
     34 H34         3.7721   54.5762   24.0746 H         1 UNK         0.0000 
     35 H35         2.4266   54.3362   26.0951 H         1 UNK         0.0000 
     36 H36         0.5599   54.8284   30.2357 H         1 UNK         0.0000 
     37 H37         1.9040   53.8954   30.8703 H         1 UNK         0.0000 
     38 H38         2.1359   55.5838   30.3956 H         1 UNK         0.0000 
     39 H39        -0.5009   53.6577   28.0505 H         1 UNK         0.0000 
     40 H40        -0.9897   51.2043   28.4498 H         1 UNK         0.0000 
     41 H41        -1.2181   49.3146   26.4817 H         1 UNK         0.0000 
     42 H42        -2.6602   50.3462   26.6156 H         1 UNK         0.0000 
     43 H43        -1.6664   45.7468   23.3978 H         1 UNK         0.0000 
     44 H44        -5.5267   47.5724   23.5780 H         1 UNK         0.0000 
     45 H45         0.2562   46.9094   24.4753 H         1 UNK         0.0000 
     46 H46         0.3018   48.2211   23.2724 H         1 UNK         0.0000 
     47 H47         0.1398   48.5570   24.9857 H         1 UNK         0.0000 
@<TRIPOS>BOND
     1    1    2 1    
     2    1   29 1    
     3    1   30 1    
     4    1   31 1    
     5    2    7 ar   
     6    2    3 ar   
     7    3    4 ar   
     8    3   32 1    
     9    4    5 ar   
    10    4   33 1    
    11    5    6 ar   
    12    5   34 1    
    13    6    7 ar   
    14    6   35 1    
    15    7    8 1    
    16    8    9 1    
    17    9   10 1    
    18    9   11 1    
    19    9   12 1    
    20   11   36 1    
    21   11   37 1    
    22   11   38 1    
    23   12   13 2    
    24   12   14 am   BACKBONE|DICT|INTERRES
    25   14   15 1    
    26   14   39 1    
    27   15   16 am   BACKBONE|DICT|INTERRES
    28   15   40 1    
    29   16   17 2    
    30   16   18 1    
    31   18   19 1    
    32   18   41 1    
    33   18   42 1    
    34   19   20 1    
    35   20   25 ar   
    36   20   21 ar   
    37   21   22 ar   
    38   21   28 1    
    39   22   23 ar   
    40   22   43 1    
    41   23   24 ar   
    42   23   27 1    
    43   24   25 ar   
    44   24   44 1    
    45   25   26 1    
    46   28   45 1    
    47   28   46 1    
    48   28   47 1    
@<TRIPOS>SUBSTRUCTURE
     1 UNK         1 GROUP             0       ****    0 ROOT    
