@<TRIPOS>MOLECULE
ZINC08918707_1214
70   73    1
SMALL
USER_CHARGES


@<TRIPOS>ATOM
      1 C1          0.4157   53.3641   32.2190 C.3       1 UNK         0.0000 
      2 C2          1.4746   52.3334   31.8161 C.3       1 UNK         0.0000 
      3 O3          1.6631   52.4212   30.4072 O.3       1 UNK         0.0000 
      4 C4          2.7642   52.9965   29.8658 C.2       1 UNK         0.0000 
      5 O5          3.8280   53.1155   30.4814 O.2       1 UNK         0.0000 
      6 N6          2.5421   53.4278   28.5469 N.am      1 UNK         0.0000 
      7 C7          1.1884   53.5265   27.9656 C.3       1 UNK         0.0000 
      8 C8          1.2134   52.7679   26.6193 C.3       1 UNK         0.0000 
      9 C9          2.3511   53.2955   25.7328 C.2       1 UNK         0.0000 
     10 C10         3.4454   53.9357   26.3335 C.2       1 UNK         0.0000 
     11 S11         4.5968   54.4985   25.1837 S.3       1 UNK         0.0000 
     12 C12         3.6104   53.9277   23.8617 C.2       1 UNK         0.0000 
     13 C13         2.4609   53.2402   24.3111 C.2       1 UNK         0.0000 
     14 C14         1.5197   52.5922   23.3957 C.2       1 UNK         0.0000 
     15 O15         1.4695   52.8961   22.1995 O.2       1 UNK         0.0000 
     16 N16         0.8039   51.5823   23.9315 N.am      1 UNK         0.0000 
     17 C17        -0.0088   50.6964   23.2193 C.ar      1 UNK         0.0000 
     18 C18        -1.3744   50.7067   23.5241 C.ar      1 UNK         0.0000 
     19 C19        -2.2494   49.8472   22.8622 C.ar      1 UNK         0.0000 
     20 C20        -1.7644   48.9608   21.9039 C.ar      1 UNK         0.0000 
     21 C21        -0.3975   48.9261   21.6113 C.ar      1 UNK         0.0000 
     22 C22         0.4939   49.7844   22.2675 C.ar      1 UNK         0.0000 
     23 C23         1.9841   49.6477   21.9759 C.3       1 UNK         0.0000 
     24 N24         3.9722   54.0963   22.5235 N.am      1 UNK         0.0000 
     25 C25         5.1445   54.4953   21.9812 C.2       1 UNK         0.0000 
     26 O26         6.1575   54.7638   22.6243 O.2       1 UNK         0.0000 
     27 C27         5.2265   54.6014   20.4445 C.3       1 UNK         0.0000 
     28 C28         4.1778   52.3731   19.7234 C.3       1 UNK         0.0000 
     29 C29         2.9904   51.7559   18.9662 C.3       1 UNK         0.0000 
     30 C30         2.9327   52.2759   17.5190 C.3       1 UNK         0.0000 
     31 C31         2.7343   53.8021   17.5723 C.3       1 UNK         0.0000 
     32 C32         3.9390   54.4728   18.2573 C.3       1 UNK         0.0000 
     33 C33         1.8301   51.5710   16.7119 C.3       1 UNK         0.0000 
     34 C34         3.6322   54.1139   27.8342 C.3       1 UNK         0.0000 
     35 H35         0.2066   53.2994   33.2884 H         1 UNK         0.0000 
     36 H36         0.7045   54.3893   31.9890 H         1 UNK         0.0000 
     37 H37        -0.5110   53.1669   31.6817 H         1 UNK         0.0000 
     38 H38         1.1232   51.3382   32.0814 H         1 UNK         0.0000 
     39 H39         2.3963   52.4873   32.3759 H         1 UNK         0.0000 
     40 H40         0.3936   53.1571   28.6133 H         1 UNK         0.0000 
     41 H41         0.9699   54.5804   27.7970 H         1 UNK         0.0000 
     42 H42         0.2416   52.8965   26.1459 H         1 UNK         0.0000 
     43 H43         1.3195   51.6982   26.8067 H         1 UNK         0.0000 
     44 H44         0.8552   51.4348   24.9276 H         1 UNK         0.0000 
     45 H45        -1.7627   51.3866   24.2696 H         1 UNK         0.0000 
     46 H46        -3.3036   49.8657   23.0996 H         1 UNK         0.0000 
     47 H47        -2.4411   48.2874   21.3984 H         1 UNK         0.0000 
     48 H48        -0.0369   48.2158   20.8813 H         1 UNK         0.0000 
     49 H49         2.2135   48.7590   21.3816 H         1 UNK         0.0000 
     50 H50         2.3541   50.5240   21.4471 H         1 UNK         0.0000 
     51 H51         2.5469   49.5614   22.9083 H         1 UNK         0.0000 
     52 H52         3.2465   53.7928   21.8860 H         1 UNK         0.0000 
     53 H53         6.1442   54.1576   20.0572 H         1 UNK         0.0000 
     54 H54         5.2245   55.6569   20.1642 H         1 UNK         0.0000 
     55 H55         5.1384   52.1030   19.2845 H         1 UNK         0.0000 
     56 H56         4.1546   52.0501   20.7634 H         1 UNK         0.0000 
     57 H57         2.0475   51.9302   19.4871 H         1 UNK         0.0000 
     58 H58         3.1014   50.6697   18.9459 H         1 UNK         0.0000 
     59 H59         3.8908   52.0645   17.0346 H         1 UNK         0.0000 
     60 H60         2.6232   54.1956   16.5611 H         1 UNK         0.0000 
     61 H61         1.7986   54.0551   18.0760 H         1 UNK         0.0000 
     62 H62         4.8864   54.2801   17.7487 H         1 UNK         0.0000 
     63 H63         3.7693   55.5481   18.3348 H         1 UNK         0.0000 
     64 H64         0.8420   51.7217   17.1491 H         1 UNK         0.0000 
     65 H65         2.0110   50.4966   16.6646 H         1 UNK         0.0000 
     66 H66         1.7987   51.9331   15.6854 H         1 UNK         0.0000 
     67 H67         4.6044   53.7337   28.1499 H         1 UNK         0.0000 
     68 H68         3.6325   55.1684   28.1100 H         1 UNK         0.0000 
     69 N69         4.0400   53.9213   19.6987 N.4       1 UNK         0.0000 
     70 H70         3.1612   54.1797   20.1357 H         1 UNK         0.0000 
@<TRIPOS>BOND
     1    1    2 1    
     2    1   35 1    
     3    1   36 1    
     4    1   37 1    
     5    2    3 1    
     6    2   38 1    
     7    2   39 1    
     8    3    4 1    
     9    4    5 2    
    10    4    6 am   BACKBONE|DICT|INTERRES
    11    6   34 1    
    12    6    7 1    
    13    7    8 1    
    14    7   40 1    
    15    7   41 1    
    16    8    9 1    
    17    8   42 1    
    18    8   43 1    
    19    9   13 1    
    20    9   10 2    
    21   10   11 1    
    22   10   34 1    
    23   11   12 1    
    24   12   13 2    
    25   12   24 am   BACKBONE|DICT|INTERRES
    26   13   14 1    
    27   14   15 2    
    28   14   16 am   BACKBONE|DICT|INTERRES
    29   16   17 1    
    30   16   44 1    
    31   17   22 ar   
    32   17   18 ar   
    33   18   19 ar   
    34   18   45 1    
    35   19   20 ar   
    36   19   46 1    
    37   20   21 ar   
    38   20   47 1    
    39   21   22 ar   
    40   21   48 1    
    41   22   23 1    
    42   23   49 1    
    43   23   50 1    
    44   23   51 1    
    45   24   25 am   BACKBONE|DICT|INTERRES
    46   24   52 1    
    47   25   26 2    
    48   25   27 1    
    49   27   53 1    
    50   27   54 1    
    51   27   69 1    
    52   28   29 1    
    53   28   55 1    
    54   28   56 1    
    55   28   69 1    
    56   29   30 1    
    57   29   57 1    
    58   29   58 1    
    59   30   31 1    
    60   30   33 1    
    61   30   59 1    
    62   31   32 1    
    63   31   60 1    
    64   31   61 1    
    65   32   62 1    
    66   32   63 1    
    67   32   69 1    
    68   33   64 1    
    69   33   65 1    
    70   33   66 1    
    71   34   67 1    
    72   34   68 1    
    73   69   70 1    
@<TRIPOS>SUBSTRUCTURE
     1 UNK         1 GROUP             0       ****    0 ROOT    
