@<TRIPOS>MOLECULE
ZINC10121225_2849
64   66    1
SMALL
USER_CHARGES


@<TRIPOS>ATOM
      1 C1          5.8240   53.4001   28.4135 C.3       1 UNK         0.0000 
      2 C2          4.6729   52.6965   29.1596 C.3       1 UNK         0.0000 
      3 C3          3.7476   53.6411   29.9742 C.3       1 UNK         0.0000 
      4 H4          4.3042   53.8842   30.8799 H         1 UNK         0.0000 
      5 C5          3.4091   55.0034   29.3318 C.3       1 UNK         0.0000 
      6 O6          2.5812   52.9799   30.4820 O.3       1 UNK         0.0000 
      7 C7          1.5036   52.6091   29.6965 C.ar      1 UNK         0.0000 
      8 C8          0.3734   52.1480   30.3688 C.ar      1 UNK         0.0000 
      9 C9         -0.7430   51.6968   29.6699 C.ar      1 UNK         0.0000 
     10 C10        -0.7535   51.7266   28.2776 C.ar      1 UNK         0.0000 
     11 C11         0.3506   52.2161   27.5643 C.ar      1 UNK         0.0000 
     12 C12         1.4755   52.6432   28.2955 C.ar      1 UNK         0.0000 
     13 C13         0.3257   52.2516   26.0470 C.2       1 UNK         0.0000 
     14 O14        -0.6179   51.7617   25.4231 O.2       1 UNK         0.0000 
     15 N15         1.3754   52.8959   25.4782 N.am      1 UNK         0.0000 
     16 C16         1.9613   52.8301   24.2420 C.2       1 UNK         0.0000 
     17 S17         1.5033   51.8064   22.9826 S.2       1 UNK         0.0000 
     18 N18         3.0297   53.6868   24.2110 N.pl3     1 UNK         0.0000 
     19 C19         4.0040   53.9726   23.2413 C.ar      1 UNK         0.0000 
     20 C20         3.7101   54.0968   21.8803 C.ar      1 UNK         0.0000 
     21 C21         4.6956   54.5009   20.9904 C.ar      1 UNK         0.0000 
     22 C22         5.9593   54.8411   21.4705 C.ar      1 UNK         0.0000 
     23 C23         6.2821   54.6652   22.8180 C.ar      1 UNK         0.0000 
     24 C24         5.2991   54.2296   23.7032 C.ar      1 UNK         0.0000 
     25 S25         7.1511   55.5625   20.3594 S.o2      1 UNK         0.0000 
     26 O26         6.7060   56.9338   20.0875 O.2       1 UNK         0.0000 
     27 O27         8.4825   55.3032   20.9129 O.2       1 UNK         0.0000 
     28 N28         6.9995   54.6475   18.8493 N.pl3     1 UNK         0.0000 
     29 C29         8.0908   54.3918   18.0114 C.ar      1 UNK         0.0000 
     30 C30         9.1705   55.2741   17.8953 C.ar      1 UNK         0.0000 
     31 C31        10.2570   54.9559   17.0750 C.ar      1 UNK         0.0000 
     32 C32        10.2531   53.7591   16.3550 C.ar      1 UNK         0.0000 
     33 C33         9.1753   52.8769   16.4589 C.ar      1 UNK         0.0000 
     34 C34         8.0935   53.2024   17.2813 C.ar      1 UNK         0.0000 
     35 C35         9.1691   51.5808   15.6694 C.3       1 UNK         0.0000 
     36 C36        11.4282   55.9132   16.9537 C.3       1 UNK         0.0000 
     37 H37         6.5005   52.6730   27.9653 H         1 UNK         0.0000 
     38 H38         6.4176   54.0329   29.0741 H         1 UNK         0.0000 
     39 H39         5.4469   54.0282   27.6060 H         1 UNK         0.0000 
     40 H40         4.1149   52.0972   28.4464 H         1 UNK         0.0000 
     41 H41         5.1026   51.9688   29.8483 H         1 UNK         0.0000 
     42 H42         4.3032   55.6206   29.2813 H         1 UNK         0.0000 
     43 H43         3.0085   54.9328   28.3229 H         1 UNK         0.0000 
     44 H44         2.6895   55.5527   29.9373 H         1 UNK         0.0000 
     45 H45         0.3655   52.1069   31.4495 H         1 UNK         0.0000 
     46 H46        -1.5890   51.2970   30.2125 H         1 UNK         0.0000 
     47 H47        -1.6306   51.3565   27.7624 H         1 UNK         0.0000 
     48 H48         2.3471   52.9878   27.7707 H         1 UNK         0.0000 
     49 H49         1.9445   53.3613   26.1650 H         1 UNK         0.0000 
     50 H50         3.2230   54.1555   25.0821 H         1 UNK         0.0000 
     51 H51         2.7121   53.9366   21.5027 H         1 UNK         0.0000 
     52 H52         4.4404   54.6371   19.9485 H         1 UNK         0.0000 
     53 H53         7.2694   54.9096   23.1851 H         1 UNK         0.0000 
     54 H54         5.5400   54.1316   24.7521 H         1 UNK         0.0000 
     55 H55         6.2759   53.9467   18.8444 H         1 UNK         0.0000 
     56 H56         9.1785   56.1999   18.4506 H         1 UNK         0.0000 
     57 H57        11.0909   53.5096   15.7183 H         1 UNK         0.0000 
     58 H58         7.2597   52.5171   17.3618 H         1 UNK         0.0000 
     59 H59         9.6906   51.6987   14.7175 H         1 UNK         0.0000 
     60 H60         9.6535   50.7823   16.2367 H         1 UNK         0.0000 
     61 H61         8.1497   51.2755   15.4286 H         1 UNK         0.0000 
     62 H62        11.8630   55.8722   15.9549 H         1 UNK         0.0000 
     63 H63        11.1096   56.9430   17.1162 H         1 UNK         0.0000 
     64 H64        12.2000   55.6640   17.6810 H         1 UNK         0.0000 
@<TRIPOS>BOND
     1    1    2 1    
     2    1   37 1    
     3    1   38 1    
     4    1   39 1    
     5    2    3 1    
     6    2   40 1    
     7    2   41 1    
     8    3    4 1    
     9    3    5 1    
    10    3    6 1    
    11    5   42 1    
    12    5   43 1    
    13    5   44 1    
    14    6    7 1    
    15    7   12 ar   
    16    7    8 ar   
    17    8    9 ar   
    18    8   45 1    
    19    9   10 ar   
    20    9   46 1    
    21   10   11 ar   
    22   10   47 1    
    23   11   12 ar   
    24   11   13 1    
    25   12   48 1    
    26   13   14 2    
    27   13   15 am   BACKBONE|DICT|INTERRES
    28   15   16 am   BACKBONE|DICT|INTERRES
    29   15   49 1    
    30   16   17 2    
    31   16   18 1    
    32   18   19 1    
    33   18   50 1    
    34   19   24 ar   
    35   19   20 ar   
    36   20   21 ar   
    37   20   51 1    
    38   21   22 ar   
    39   21   52 1    
    40   22   23 ar   
    41   22   25 1    
    42   23   24 ar   
    43   23   53 1    
    44   24   54 1    
    45   25   26 2    
    46   25   27 2    
    47   25   28 1    
    48   28   29 1    
    49   28   55 1    
    50   29   34 ar   
    51   29   30 ar   
    52   30   31 ar   
    53   30   56 1    
    54   31   32 ar   
    55   31   36 1    
    56   32   33 ar   
    57   32   57 1    
    58   33   34 ar   
    59   33   35 1    
    60   34   58 1    
    61   35   59 1    
    62   35   60 1    
    63   35   61 1    
    64   36   62 1    
    65   36   63 1    
    66   36   64 1    
@<TRIPOS>SUBSTRUCTURE
     1 UNK         1 GROUP             0       ****    0 ROOT    
