ZINC42782260_4687
                    3D
 Schrodinger Suite 2024-2.
 38 40  0  0  1  0            999 V2000
    1.5023   53.9227   27.8970 C   0  0  0  0  0  0
    2.3246   53.1101   26.8816 C   0  0  2  0  0  0
    2.4493   52.1118   27.3034 H   0  0  0  0  0  0
    3.6932   53.7232   26.5968 C   0  0  0  0  0  0
    4.7131   53.9112   27.5431 C   0  0  0  0  0  0
    5.8535   54.4969   27.0146 C   0  0  0  0  0  0
    5.6909   54.8114   25.3185 S   0  0  0  0  0  0
    4.0718   54.1733   25.3276 C   0  0  0  0  0  0
    3.2104   54.0453   24.0813 C   0  0  0  0  0  0
    1.7271   53.9021   24.4890 C   0  0  0  0  0  0
    1.5052   52.9707   25.6343 N   0  0  0  0  0  0
    0.5877   51.4796   25.3370 S   0  0  0  0  0  0
    0.7031   50.6036   26.5100 O   0  0  0  0  0  0
    0.9654   50.9901   24.0059 O   0  0  0  0  0  0
   -1.1226   52.0293   25.2245 C   0  0  0  0  0  0
   -1.5970   52.4442   23.9762 C   0  0  0  0  0  0
   -2.9055   52.8972   23.8377 C   0  0  0  0  0  0
   -3.7573   52.9260   24.9353 C   0  0  0  0  0  0
   -3.2910   52.5154   26.1802 C   0  0  0  0  0  0
   -1.9720   52.0726   26.3477 C   0  0  0  0  0  0
   -1.4960   51.6968   27.6123 N   0  0  0  0  0  0
   -2.3910   51.2954   28.6812 N   0  0  0  0  0  0
    2.0115   53.9708   28.8602 H   0  0  0  0  0  0
    1.3405   54.9468   27.5667 H   0  0  0  0  0  0
    0.5258   53.4720   28.0756 H   0  0  0  0  0  0
    4.6179   53.6278   28.5815 H   0  0  0  0  0  0
    6.7640   54.7484   27.5392 H   0  0  0  0  0  0
    3.5144   53.1640   23.5171 H   0  0  0  0  0  0
    3.3443   54.8967   23.4144 H   0  0  0  0  0  0
    1.1680   53.5230   23.6320 H   0  0  0  0  0  0
    1.2657   54.8565   24.7304 H   0  0  0  0  0  0
   -0.9518   52.4180   23.1099 H   0  0  0  0  0  0
   -3.2670   53.2241   22.8804 H   0  0  0  0  0  0
   -4.7753   53.2692   24.8236 H   0  0  0  0  0  0
   -3.9602   52.5482   27.0258 H   0  0  0  0  0  0
   -0.6865   51.0726   27.5748 H   0  0  0  0  0  0
   -2.4949   50.2816   28.6301 H   0  0  0  0  0  0
   -1.9537   51.5232   29.5654 H   0  0  0  0  0  0
  1  2  1  0  0  0
  1 23  1  0  0  0
  1 24  1  0  0  0
  1 25  1  0  0  0
  2  3  1  0  0  0
  2 11  1  0  0  0
  2  4  1  0  0  0
  4  8  2  0  0  0
  4  5  1  0  0  0
  5  6  2  0  0  0
  5 26  1  0  0  0
  6  7  1  0  0  0
  6 27  1  0  0  0
  7  8  1  0  0  0
  8  9  1  0  0  0
  9 10  1  0  0  0
  9 28  1  0  0  0
  9 29  1  0  0  0
 10 11  1  0  0  0
 10 30  1  0  0  0
 10 31  1  0  0  0
 11 12  1  0  0  0
 12 13  2  0  0  0
 12 14  2  0  0  0
 12 15  1  0  0  0
 15 20  2  0  0  0
 15 16  1  0  0  0
 16 17  2  0  0  0
 16 32  1  0  0  0
 17 18  1  0  0  0
 17 33  1  0  0  0
 18 19  2  0  0  0
 18 34  1  0  0  0
 19 20  1  0  0  0
 19 35  1  0  0  0
 20 21  1  0  0  0
 21 22  1  0  0  0
 21 36  1  0  0  0
 22 37  1  0  0  0
 22 38  1  0  0  0
M  END
> <i_i_glide_confnum>
1

> <i_i_glide_lignum>
4688

> <i_i_glide_posenum>
278

> <i_i_glide_rotatable_bonds>
3

> <i_m_Source_File_Index>
1460

> <b_m_subgroup_collapsed>
0

> <r_i_docking_score>
-5.59954

> <r_i_glide_ecoul>
-0.354883

> <r_i_glide_eff_state_penalty>
0

> <r_i_glide_einternal>
1.82076

> <r_i_glide_emodel>
-42.7026

> <r_i_glide_energy>
-32.0471

> <r_i_glide_erotb>
0.357784

> <r_i_glide_esite>
-0.101035

> <r_i_glide_evdw>
-31.6922

> <r_i_glide_gscore>
-5.59954

> <r_i_glide_hbond>
-0.100589

> <r_i_glide_ligand_efficiency>
-0.266645

> <r_i_glide_ligand_efficiency_ln>
-1.38447

> <r_i_glide_ligand_efficiency_sa>
-0.735653

> <r_i_glide_lipo>
-2.61194

> <r_i_glide_metal>
0

> <r_i_glide_rewards>
-1.50592

> <s_i_glide_gridfile>
wee1_glide-grid

> <s_m_Source_File>
wee1_decoys_glide_SP.sdf

> <s_m_Source_Path>
/Users/zhangxujun/Desktop

> <s_m_entry_id>
1735

> <s_m_entry_name>
wee1_decoys_glide_SP.1460

> <s_m_subgroup_title>
wee1_decoys_glide_SP

> <s_m_subgroupid>
wee1_decoys_glide_SP


$$$$
