@<TRIPOS>MOLECULE
ZINC33306444_692
47   49    1
SMALL
USER_CHARGES


@<TRIPOS>ATOM
      1 C1          0.7093   52.7375   23.7520 C.3       1 UNK         0.0000 
      2 C2          0.4729   52.2380   25.1697 C.ar      1 UNK         0.0000 
      3 C3          1.4096   52.5519   26.1559 C.ar      1 UNK         0.0000 
      4 C4          1.2620   52.1017   27.4689 C.ar      1 UNK         0.0000 
      5 C5          0.1649   51.3004   27.7883 C.ar      1 UNK         0.0000 
      6 C6         -0.7827   50.9837   26.8145 C.ar      1 UNK         0.0000 
      7 C7         -0.6397   51.4547   25.5082 C.ar      1 UNK         0.0000 
      8 Br8        -1.9803   51.0195   24.2233 Br        1 UNK         0.0000 
      9 N9          2.2078   52.4050   28.4569 N.pl3     1 UNK         0.0000 
     10 S10         2.8373   54.0452   28.7092 S.o2      1 UNK         0.0000 
     11 O11         3.3485   54.0763   30.0817 O.2       1 UNK         0.0000 
     12 O12         1.8271   55.0004   28.2431 O.2       1 UNK         0.0000 
     13 C13         4.2805   54.1671   27.6284 C.2       1 UNK         0.0000 
     14 C14         5.5699   53.7539   27.9359 C.2       1 UNK         0.0000 
     15 C15         6.4678   53.9720   26.8823 C.2       1 UNK         0.0000 
     16 C16         5.8663   54.5266   25.7567 C.2       1 UNK         0.0000 
     17 S17         4.1986   54.8963   26.0615 S.3       1 UNK         0.0000 
     18 C18         6.4694   54.8043   24.4684 C.2       1 UNK         0.0000 
     19 C19         5.8257   54.6872   23.2929 C.2       1 UNK         0.0000 
     20 C20         6.3186   54.9611   21.9611 C.2       1 UNK         0.0000 
     21 C21         5.8299   54.6638   20.6934 C.2       1 UNK         0.0000 
     22 C22         6.7164   55.2925   19.8118 C.2       1 UNK         0.0000 
     23 N23         7.6946   55.8885   20.4546 N.2       1 UNK         0.0000 
     24 O24         7.4517   55.6931   21.8124 O.3       1 UNK         0.0000 
     25 C25         6.6920   55.3353   18.3004 C.3       1 UNK         0.0000 
     26 N26         4.7041   53.9327   20.3420 N.am      1 UNK         0.0000 
     27 C27         4.4167   52.7080   20.8302 C.2       1 UNK         0.0000 
     28 O28         5.0895   52.1088   21.6723 O.2       1 UNK         0.0000 
     29 C29         3.1638   52.0446   20.2730 C.3       1 UNK         0.0000 
     30 H30         0.3580   52.0207   23.0094 H         1 UNK         0.0000 
     31 H31         0.2038   53.6894   23.5945 H         1 UNK         0.0000 
     32 H32         1.7738   52.8750   23.5567 H         1 UNK         0.0000 
     33 H33         2.2687   53.1334   25.8836 H         1 UNK         0.0000 
     34 H34         0.0312   50.9191   28.7906 H         1 UNK         0.0000 
     35 H35        -1.6276   50.3623   27.0782 H         1 UNK         0.0000 
     36 H36         2.2376   51.8162   29.2728 H         1 UNK         0.0000 
     37 H37         5.8472   53.3053   28.8797 H         1 UNK         0.0000 
     38 H38         7.5054   53.6859   26.9291 H         1 UNK         0.0000 
     39 H39         7.5043   55.1108   24.4912 H         1 UNK         0.0000 
     40 H40         4.8039   54.3360   23.2915 H         1 UNK         0.0000 
     41 H41         5.8428   54.7925   17.8868 H         1 UNK         0.0000 
     42 H42         6.6288   56.3573   17.9263 H         1 UNK         0.0000 
     43 H43         7.5901   54.8886   17.8729 H         1 UNK         0.0000 
     44 H44         4.1390   54.2796   19.5808 H         1 UNK         0.0000 
     45 H45         3.4445   51.2843   19.5422 H         1 UNK         0.0000 
     46 H46         2.5074   52.7668   19.7853 H         1 UNK         0.0000 
     47 H47         2.6044   51.5621   21.0745 H         1 UNK         0.0000 
@<TRIPOS>BOND
     1    1    2 1    
     2    1   30 1    
     3    1   31 1    
     4    1   32 1    
     5    2    7 ar   
     6    2    3 ar   
     7    3    4 ar   
     8    3   33 1    
     9    4    5 ar   
    10    4    9 1    
    11    5    6 ar   
    12    5   34 1    
    13    6    7 ar   
    14    6   35 1    
    15    7    8 1    
    16    9   10 1    
    17    9   36 1    
    18   10   11 2    
    19   10   12 2    
    20   10   13 1    
    21   13   17 1    
    22   13   14 2    
    23   14   15 1    
    24   14   37 1    
    25   15   16 2    
    26   15   38 1    
    27   16   17 1    
    28   16   18 1    
    29   18   19 2    
    30   18   39 1    
    31   19   20 1    
    32   19   40 1    
    33   20   24 1    
    34   20   21 2    
    35   21   22 1    
    36   21   26 1    
    37   22   23 2    
    38   22   25 1    
    39   23   24 1    
    40   25   41 1    
    41   25   42 1    
    42   25   43 1    
    43   26   27 am   BACKBONE|DICT|INTERRES
    44   26   44 1    
    45   27   28 2    
    46   27   29 1    
    47   29   45 1    
    48   29   46 1    
    49   29   47 1    
@<TRIPOS>SUBSTRUCTURE
     1 UNK         1 GROUP             0       ****    0 ROOT    
