@<TRIPOS>MOLECULE
ZINC39653038_376
75   78    1
SMALL
USER_CHARGES


@<TRIPOS>ATOM
      1 C1          6.6564   54.4321   26.5553 C.3       1 UNK         0.0000 
      2 O2          6.0600   53.8910   27.7239 O.3       1 UNK         0.0000 
      3 C3          4.7014   53.6546   27.7387 C.ar      1 UNK         0.0000 
      4 C4          3.8154   53.9872   26.7079 C.ar      1 UNK         0.0000 
      5 C5          2.4633   53.6710   26.8158 C.ar      1 UNK         0.0000 
      6 C6          1.9578   53.0092   27.9464 C.ar      1 UNK         0.0000 
      7 C7          2.8402   52.7123   29.0110 C.ar      1 UNK         0.0000 
      8 C8          4.2003   53.0347   28.8768 C.ar      1 UNK         0.0000 
      9 O9          2.3492   52.0970   30.1523 O.3       1 UNK         0.0000 
     10 C10         3.1859   51.9505   31.2989 C.3       1 UNK         0.0000 
     11 C11         0.4708   52.7171   28.0586 C.2       1 UNK         0.0000 
     12 O12        -0.0981   52.9845   29.1197 O.2       1 UNK         0.0000 
     13 N13        -0.2129   52.1907   27.0000 N.am      1 UNK         0.0000 
     14 C14        -1.6568   51.9583   27.0758 C.3       1 UNK         0.0000 
     15 C15        -2.0577   51.4697   25.6691 C.3       1 UNK         0.0000 
     16 H16        -2.3995   52.3606   25.1433 H         1 UNK         0.0000 
     17 C17        -0.7670   50.8851   25.0534 C.3       1 UNK         0.0000 
     18 C18         0.3316   51.7614   25.7111 C.3       1 UNK         0.0000 
     19 C19        -0.5851   49.3717   25.3895 C.3       1 UNK         0.0000 
     20 C20         0.7023   48.7829   24.8096 C.3       1 UNK         0.0000 
     21 N21         0.7894   49.0854   23.2945 N.4       1 UNK         0.0000 
     22 C22         0.5572   50.5582   22.9049 C.3       1 UNK         0.0000 
     23 C23        -0.7913   50.9789   23.5081 C.3       1 UNK         0.0000 
     24 C24        -3.2753   50.5011   25.7226 C.2       1 UNK         0.0000 
     25 O25        -3.8318   50.2258   24.6600 O.2       1 UNK         0.0000 
     26 N26        -3.7041   50.0133   26.9020 N.am      1 UNK         0.0000 
     27 C27        -4.8295   49.0953   27.1161 C.3       1 UNK         0.0000 
     28 C28        -6.2163   49.5830   26.6220 C.3       1 UNK         0.0000 
     29 C29        -6.5839   51.0001   27.0453 C.ar      1 UNK         0.0000 
     30 C30        -6.1622   52.0776   26.2671 C.ar      1 UNK         0.0000 
     31 C31        -6.4162   53.3924   26.6634 C.ar      1 UNK         0.0000 
     32 C32        -7.1889   53.6117   27.8008 C.ar      1 UNK         0.0000 
     33 C33        -7.6424   52.5550   28.5900 C.ar      1 UNK         0.0000 
     34 C34        -7.3222   51.2404   28.2079 C.ar      1 UNK         0.0000 
     35 O35        -8.3697   52.8953   29.7128 O.3       1 UNK         0.0000 
     36 C36        -8.8656   51.8616   30.5552 C.3       1 UNK         0.0000 
     37 O37        -5.9249   54.5023   26.0124 O.3       1 UNK         0.0000 
     38 C38        -4.9195   54.3295   25.0163 C.3       1 UNK         0.0000 
     39 H39         7.7299   54.4968   26.7213 H         1 UNK         0.0000 
     40 H40         6.2897   55.4370   26.3441 H         1 UNK         0.0000 
     41 H41         6.4912   53.7932   25.6864 H         1 UNK         0.0000 
     42 H42         4.1600   54.4885   25.8165 H         1 UNK         0.0000 
     43 H43         1.8116   53.9772   26.0113 H         1 UNK         0.0000 
     44 H44         4.9101   52.7965   29.6515 H         1 UNK         0.0000 
     45 H45         2.6106   51.5210   32.1192 H         1 UNK         0.0000 
     46 H46         4.0317   51.2962   31.1009 H         1 UNK         0.0000 
     47 H47         3.5909   52.8966   31.6413 H         1 UNK         0.0000 
     48 H48        -1.7803   51.1946   27.8458 H         1 UNK         0.0000 
     49 H49        -2.1951   52.8803   27.2816 H         1 UNK         0.0000 
     50 H50         0.4130   52.6596   25.0982 H         1 UNK         0.0000 
     51 H51         1.3132   51.2962   25.7391 H         1 UNK         0.0000 
     52 H52        -0.5692   49.2339   26.4744 H         1 UNK         0.0000 
     53 H53        -1.4225   48.7668   25.0425 H         1 UNK         0.0000 
     54 H54         1.5871   49.1848   25.2815 H         1 UNK         0.0000 
     55 H55         0.7047   47.6978   24.9023 H         1 UNK         0.0000 
     56 H56         1.6973   48.7818   22.9660 H         1 UNK         0.0000 
     57 H57         1.4080   51.1297   23.2793 H         1 UNK         0.0000 
     58 H58         0.5583   50.5938   21.8138 H         1 UNK         0.0000 
     59 H59        -1.6218   50.4125   23.0822 H         1 UNK         0.0000 
     60 H60        -0.9715   52.0132   23.2137 H         1 UNK         0.0000 
     61 H61        -3.1158   50.1559   27.7113 H         1 UNK         0.0000 
     62 H62        -4.5827   48.1167   26.6995 H         1 UNK         0.0000 
     63 H63        -4.8706   49.0006   28.2028 H         1 UNK         0.0000 
     64 H64        -6.2506   49.5336   25.5329 H         1 UNK         0.0000 
     65 H65        -6.9908   48.8859   26.9453 H         1 UNK         0.0000 
     66 H66        -5.6131   51.8827   25.3615 H         1 UNK         0.0000 
     67 H67        -7.4238   54.6240   28.0815 H         1 UNK         0.0000 
     68 H68        -7.6413   50.3984   28.8028 H         1 UNK         0.0000 
     69 H69        -9.4196   52.3085   31.3820 H         1 UNK         0.0000 
     70 H70        -9.5496   51.2014   30.0193 H         1 UNK         0.0000 
     71 H71        -8.0538   51.2691   30.9811 H         1 UNK         0.0000 
     72 H72        -4.5040   55.2961   24.7315 H         1 UNK         0.0000 
     73 H73        -4.0924   53.7315   25.3965 H         1 UNK         0.0000 
     74 H74        -5.3219   53.8579   24.1186 H         1 UNK         0.0000 
     75 H75         0.1028   48.5190   22.8166 H         1 UNK         0.0000 
@<TRIPOS>BOND
     1    1    2 1    
     2    1   39 1    
     3    1   40 1    
     4    1   41 1    
     5    2    3 1    
     6    3    8 ar   
     7    3    4 ar   
     8    4    5 ar   
     9    4   42 1    
    10    5    6 ar   
    11    5   43 1    
    12    6    7 ar   
    13    6   11 1    
    14    7    8 ar   
    15    7    9 1    
    16    8   44 1    
    17    9   10 1    
    18   10   45 1    
    19   10   46 1    
    20   10   47 1    
    21   11   12 2    
    22   11   13 am   BACKBONE|DICT|INTERRES
    23   13   18 1    
    24   13   14 1    
    25   14   15 1    
    26   14   48 1    
    27   14   49 1    
    28   15   16 1    
    29   15   17 1    
    30   15   24 1    
    31   17   23 1    
    32   17   18 1    
    33   17   19 1    
    34   18   50 1    
    35   18   51 1    
    36   19   20 1    
    37   19   52 1    
    38   19   53 1    
    39   20   21 1    
    40   20   54 1    
    41   20   55 1    
    42   21   22 1    
    43   21   56 1    
    44   21   75 1    
    45   22   23 1    
    46   22   57 1    
    47   22   58 1    
    48   23   59 1    
    49   23   60 1    
    50   24   25 2    
    51   24   26 am   BACKBONE|DICT|INTERRES
    52   26   27 1    
    53   26   61 1    
    54   27   28 1    
    55   27   62 1    
    56   27   63 1    
    57   28   29 1    
    58   28   64 1    
    59   28   65 1    
    60   29   34 ar   
    61   29   30 ar   
    62   30   31 ar   
    63   30   66 1    
    64   31   32 ar   
    65   31   37 1    
    66   32   33 ar   
    67   32   67 1    
    68   33   34 ar   
    69   33   35 1    
    70   34   68 1    
    71   35   36 1    
    72   36   69 1    
    73   36   70 1    
    74   36   71 1    
    75   37   38 1    
    76   38   72 1    
    77   38   73 1    
    78   38   74 1    
@<TRIPOS>SUBSTRUCTURE
     1 UNK         1 GROUP             0       ****    0 ROOT    
