@<TRIPOS>MOLECULE
ZINC09635818_2408
54   57    1
SMALL
USER_CHARGES


@<TRIPOS>ATOM
      1 C1          5.8527   54.2407   23.5665 C.ar      1 UNK         0.0000 
      2 C2          6.7043   54.4139   24.6529 C.ar      1 UNK         0.0000 
      3 C3          6.1899   54.4378   25.9463 C.ar      1 UNK         0.0000 
      4 C4          4.8169   54.2815   26.1507 C.ar      1 UNK         0.0000 
      5 C5          3.9617   54.1236   25.0508 C.ar      1 UNK         0.0000 
      6 C6          4.4810   54.0967   23.7597 C.ar      1 UNK         0.0000 
      7 C7          4.2769   54.2747   27.5774 C.3       1 UNK         0.0000 
      8 O8          3.1392   53.4298   27.6643 O.3       1 UNK         0.0000 
      9 C9          2.3449   53.3982   28.7574 C.2       1 UNK         0.0000 
     10 O10         2.5778   54.0556   29.7784 O.2       1 UNK         0.0000 
     11 N11         1.2375   52.5485   28.5633 N.am      1 UNK         0.0000 
     12 C12         0.3452   52.3333   29.7165 C.3       1 UNK         0.0000 
     13 C13        -0.9664   51.6967   29.2615 C.2       1 UNK         0.0000 
     14 C14        -1.3463   51.4534   27.9840 C.2       1 UNK         0.0000 
     15 C15        -0.3725   51.7650   26.8416 C.3       1 UNK         0.0000 
     16 H16        -0.6076   52.7769   26.5148 H         1 UNK         0.0000 
     17 C17         1.0945   51.7217   27.3440 C.3       1 UNK         0.0000 
     18 C18        -0.6004   50.7600   25.6698 C.3       1 UNK         0.0000 
     19 H19        -0.3426   49.7868   26.0980 H         1 UNK         0.0000 
     20 C20        -2.0940   50.6352   25.2197 C.3       1 UNK         0.0000 
     21 C21        -3.0407   50.5397   26.4278 C.2       1 UNK         0.0000 
     22 C22        -2.6805   50.9245   27.6744 C.2       1 UNK         0.0000 
     23 C23        -3.6726   50.8725   28.7104 C.1       1 UNK         0.0000 
     24 N24        -4.5095   50.8906   29.5108 N.1       1 UNK         0.0000 
     25 N25        -4.3153   50.1019   26.1306 N.pl3     1 UNK         0.0000 
     26 C26        -2.5324   51.7924   24.4151 C.1       1 UNK         0.0000 
     27 N27        -2.8829   52.6974   23.7833 N.1       1 UNK         0.0000 
     28 C28        -2.2269   49.4274   24.3755 C.1       1 UNK         0.0000 
     29 N29        -2.3316   48.4834   23.7121 N.1       1 UNK         0.0000 
     30 C30         0.3655   50.9362   24.4755 C.ar      1 UNK         0.0000 
     31 C31         1.0384   49.8172   23.9657 C.ar      1 UNK         0.0000 
     32 C32         1.8883   49.9303   22.8645 C.ar      1 UNK         0.0000 
     33 C33         2.0706   51.1650   22.2464 C.ar      1 UNK         0.0000 
     34 C34         1.4156   52.2892   22.7432 C.ar      1 UNK         0.0000 
     35 C35         0.5736   52.1795   23.8510 C.ar      1 UNK         0.0000 
     36 F36        -0.0354   53.2968   24.3036 F         1 UNK         0.0000 
     37 H37         6.2590   54.2216   22.5653 H         1 UNK         0.0000 
     38 H38         7.7656   54.5072   24.4841 H         1 UNK         0.0000 
     39 H39         6.8562   54.5558   26.7884 H         1 UNK         0.0000 
     40 H40         2.8959   54.0111   25.1897 H         1 UNK         0.0000 
     41 H41         3.8259   53.9703   22.9096 H         1 UNK         0.0000 
     42 H42         4.0218   55.2941   27.8693 H         1 UNK         0.0000 
     43 H43         5.0444   53.9141   28.2640 H         1 UNK         0.0000 
     44 H44         0.1254   53.2706   30.2304 H         1 UNK         0.0000 
     45 H45         0.8357   51.6969   30.4530 H         1 UNK         0.0000 
     46 H46        -1.6528   51.4419   30.0566 H         1 UNK         0.0000 
     47 H47         1.4597   50.7145   27.5448 H         1 UNK         0.0000 
     48 H48         1.6956   52.1035   26.5189 H         1 UNK         0.0000 
     49 H49        -4.5743   49.8165   25.1977 H         1 UNK         0.0000 
     50 H50        -4.9999   49.9758   26.8633 H         1 UNK         0.0000 
     51 H51         0.9071   48.8469   24.4227 H         1 UNK         0.0000 
     52 H52         2.3977   49.0546   22.4866 H         1 UNK         0.0000 
     53 H53         2.7174   51.2468   21.3849 H         1 UNK         0.0000 
     54 H54         1.5520   53.2473   22.2616 H         1 UNK         0.0000 
@<TRIPOS>BOND
     1    1    6 ar   
     2    1    2 ar   
     3    1   37 1    
     4    2    3 ar   
     5    2   38 1    
     6    3    4 ar   
     7    3   39 1    
     8    4    5 ar   
     9    4    7 1    
    10    5    6 ar   
    11    5   40 1    
    12    6   41 1    
    13    7    8 1    
    14    7   42 1    
    15    7   43 1    
    16    8    9 1    
    17    9   10 2    
    18    9   11 am   BACKBONE|DICT|INTERRES
    19   11   17 1    
    20   11   12 1    
    21   12   13 1    
    22   12   44 1    
    23   12   45 1    
    24   13   14 2    
    25   13   46 1    
    26   14   22 1    
    27   14   15 1    
    28   15   16 1    
    29   15   17 1    
    30   15   18 1    
    31   17   47 1    
    32   17   48 1    
    33   18   19 1    
    34   18   20 1    
    35   18   30 1    
    36   20   21 1    
    37   20   26 1    
    38   20   28 1    
    39   21   22 2    
    40   21   25 1    
    41   22   23 1    
    42   23   24 3    
    43   25   49 1    
    44   25   50 1    
    45   26   27 3    
    46   28   29 3    
    47   30   35 ar   
    48   30   31 ar   
    49   31   32 ar   
    50   31   51 1    
    51   32   33 ar   
    52   32   52 1    
    53   33   34 ar   
    54   33   53 1    
    55   34   35 ar   
    56   34   54 1    
    57   35   36 1    
@<TRIPOS>SUBSTRUCTURE
     1 UNK         1 GROUP             0       ****    0 ROOT    
