@<TRIPOS>MOLECULE
ZINC35780122_1083
70   73    1
SMALL
USER_CHARGES


@<TRIPOS>ATOM
      1 C1          4.9546   54.2900   20.1726 C.3       1 UNK         0.0000 
      2 O2          5.8442   54.6534   21.2236 O.3       1 UNK         0.0000 
      3 C3          5.4411   54.4967   22.5354 C.ar      1 UNK         0.0000 
      4 C4          4.1704   54.0516   22.9328 C.ar      1 UNK         0.0000 
      5 C5          3.8616   53.9117   24.2937 C.ar      1 UNK         0.0000 
      6 C6          4.8193   54.2401   25.2532 C.ar      1 UNK         0.0000 
      7 C7          6.0922   54.6896   24.8759 C.ar      1 UNK         0.0000 
      8 C8          6.3782   54.8212   23.5170 C.ar      1 UNK         0.0000 
      9 O9          7.1044   54.9921   25.7652 O.3       1 UNK         0.0000 
     10 C10         6.9181   54.6877   27.1447 C.3       1 UNK         0.0000 
     11 N11         2.7041   53.2893   24.7793 N.am      1 UNK         0.0000 
     12 C12         1.5519   53.0052   24.1416 C.2       1 UNK         0.0000 
     13 O13         1.1700   53.5884   23.1295 O.2       1 UNK         0.0000 
     14 C14         0.7356   51.8362   24.7684 C.3       1 UNK         0.0000 
     15 H15         1.4489   51.0415   24.9751 H         1 UNK         0.0000 
     16 C16        -0.0191   52.1741   26.0897 C.3       1 UNK         0.0000 
     17 C17        -0.6846   50.9627   26.7698 C.3       1 UNK         0.0000 
     18 C18        -0.8866   51.3513   28.2408 C.3       1 UNK         0.0000 
     19 C19         0.0663   52.5170   28.5250 C.3       1 UNK         0.0000 
     20 C20         0.8535   52.7373   27.2307 C.3       1 UNK         0.0000 
     21 N21        -0.2139   51.1211   23.7525 N.4       1 UNK         0.0000 
     22 C22        -1.4643   51.9366   23.3212 C.3       1 UNK         0.0000 
     23 C23        -2.3281   51.1287   22.3336 C.3       1 UNK         0.0000 
     24 N24        -1.4657   50.7223   21.2134 N.am      1 UNK         0.0000 
     25 C25        -0.4078   49.7666   21.5873 C.3       1 UNK         0.0000 
     26 C26         0.5535   50.4800   22.5615 C.3       1 UNK         0.0000 
     27 C27        -1.6155   51.2769   19.9773 C.2       1 UNK         0.0000 
     28 O28        -2.4968   52.0968   19.7133 O.2       1 UNK         0.0000 
     29 C29        -0.6602   50.8722   18.8790 C.ar      1 UNK         0.0000 
     30 C30         0.6839   51.2653   18.9811 C.ar      1 UNK         0.0000 
     31 C31         1.6032   50.9173   17.9961 C.ar      1 UNK         0.0000 
     32 C32         1.1878   50.1927   16.8852 C.ar      1 UNK         0.0000 
     33 C33        -0.1452   49.8143   16.7568 C.ar      1 UNK         0.0000 
     34 C34        -1.0899   50.1446   17.7412 C.ar      1 UNK         0.0000 
     35 C35        -2.5356   49.6412   17.5641 C.3       1 UNK         0.0000 
     36 F36        -3.3516   50.6639   17.3027 F         1 UNK         0.0000 
     37 F37        -2.6495   48.7237   16.5951 F         1 UNK         0.0000 
     38 F38        -2.9573   49.0456   18.6824 F         1 UNK         0.0000 
     39 H39         5.4459   54.4544   19.2147 H         1 UNK         0.0000 
     40 H40         4.6809   53.2337   20.2207 H         1 UNK         0.0000 
     41 H41         4.0467   54.8954   20.1831 H         1 UNK         0.0000 
     42 H42         3.4449   53.7707   22.1865 H         1 UNK         0.0000 
     43 H43         4.5803   54.1050   26.2968 H         1 UNK         0.0000 
     44 H44         7.3589   55.1649   23.2197 H         1 UNK         0.0000 
     45 H45         7.8409   54.8964   27.6816 H         1 UNK         0.0000 
     46 H46         6.6839   53.6337   27.3023 H         1 UNK         0.0000 
     47 H47         6.1366   55.3010   27.5952 H         1 UNK         0.0000 
     48 H48         2.8116   52.9058   25.7057 H         1 UNK         0.0000 
     49 H49        -0.8130   52.8966   25.9139 H         1 UNK         0.0000 
     50 H50        -1.5952   50.6231   26.2749 H         1 UNK         0.0000 
     51 H51         0.0016   50.1131   26.7554 H         1 UNK         0.0000 
     52 H52        -1.9222   51.6400   28.4259 H         1 UNK         0.0000 
     53 H53        -0.6753   50.5067   28.8938 H         1 UNK         0.0000 
     54 H54        -0.4959   53.4151   28.7810 H         1 UNK         0.0000 
     55 H55         0.7265   52.3026   29.3668 H         1 UNK         0.0000 
     56 H56         1.7703   52.1475   27.3025 H         1 UNK         0.0000 
     57 H57         1.1624   53.7705   27.0751 H         1 UNK         0.0000 
     58 H58        -2.0490   52.1030   24.2230 H         1 UNK         0.0000 
     59 H59        -1.1630   52.8964   22.9104 H         1 UNK         0.0000 
     60 H60        -2.7438   50.2437   22.8164 H         1 UNK         0.0000 
     61 H61        -3.1982   51.6970   22.0036 H         1 UNK         0.0000 
     62 H62         0.1242   49.3619   20.7241 H         1 UNK         0.0000 
     63 H63        -0.8584   48.8950   22.0657 H         1 UNK         0.0000 
     64 H64         1.1593   51.2379   22.0628 H         1 UNK         0.0000 
     65 H65         1.2205   49.7388   23.0082 H         1 UNK         0.0000 
     66 H66         1.0275   51.8504   19.8222 H         1 UNK         0.0000 
     67 H67         2.6450   51.1998   18.0848 H         1 UNK         0.0000 
     68 H68         1.9086   49.9124   16.1277 H         1 UNK         0.0000 
     69 H69        -0.4324   49.2497   15.8814 H         1 UNK         0.0000 
     70 H70        -0.6021   50.3272   24.2440 H         1 UNK         0.0000 
@<TRIPOS>BOND
     1    1    2 1    
     2    1   39 1    
     3    1   40 1    
     4    1   41 1    
     5    2    3 1    
     6    3    8 ar   
     7    3    4 ar   
     8    4    5 ar   
     9    4   42 1    
    10    5    6 ar   
    11    5   11 1    
    12    6    7 ar   
    13    6   43 1    
    14    7    8 ar   
    15    7    9 1    
    16    8   44 1    
    17    9   10 1    
    18   10   45 1    
    19   10   46 1    
    20   10   47 1    
    21   11   12 am   BACKBONE|DICT|INTERRES
    22   11   48 1    
    23   12   13 2    
    24   12   14 1    
    25   14   15 1    
    26   14   16 1    
    27   14   21 1    
    28   16   20 1    
    29   16   17 1    
    30   16   49 1    
    31   17   18 1    
    32   17   50 1    
    33   17   51 1    
    34   18   19 1    
    35   18   52 1    
    36   18   53 1    
    37   19   20 1    
    38   19   54 1    
    39   19   55 1    
    40   20   56 1    
    41   20   57 1    
    42   21   26 1    
    43   21   22 1    
    44   21   70 1    
    45   22   23 1    
    46   22   58 1    
    47   22   59 1    
    48   23   24 1    
    49   23   60 1    
    50   23   61 1    
    51   24   25 1    
    52   24   27 am   BACKBONE|DICT|INTERRES
    53   25   26 1    
    54   25   62 1    
    55   25   63 1    
    56   26   64 1    
    57   26   65 1    
    58   27   28 2    
    59   27   29 1    
    60   29   34 ar   
    61   29   30 ar   
    62   30   31 ar   
    63   30   66 1    
    64   31   32 ar   
    65   31   67 1    
    66   32   33 ar   
    67   32   68 1    
    68   33   34 ar   
    69   33   69 1    
    70   34   35 1    
    71   35   36 1    
    72   35   37 1    
    73   35   38 1    
@<TRIPOS>SUBSTRUCTURE
     1 UNK         1 GROUP             0       ****    0 ROOT    
