@<TRIPOS>MOLECULE
ZINC55748786_6208
56   57    1
SMALL
USER_CHARGES


@<TRIPOS>ATOM
      1 C1          0.4568   49.5364   24.2231 C.3       1 UNK         0.0000 
      2 C2         -0.4707   49.8900   25.3948 C.3       1 UNK         0.0000 
      3 H3         -0.8529   48.9579   25.8183 H         1 UNK         0.0000 
      4 C4         -1.6610   50.7580   24.9372 C.3       1 UNK         0.0000 
      5 C5         -2.6593   51.0375   26.0811 C.3       1 UNK         0.0000 
      6 H6         -3.3560   51.7876   25.7023 H         1 UNK         0.0000 
      7 C7         -1.9322   51.6971   27.2804 C.3       1 UNK         0.0000 
      8 N8         -0.6616   50.9000   27.6834 N.4       1 UNK         0.0000 
      9 C9          0.3033   50.6297   26.5057 C.3       1 UNK         0.0000 
     10 C10         0.0703   51.4778   28.9376 C.3       1 UNK         0.0000 
     11 C11         0.3701   53.0122   28.9553 C.3       1 UNK         0.0000 
     12 H12        -0.5066   53.5559   28.6247 H         1 UNK         0.0000 
     13 C13         0.6155   53.5126   30.3945 C.3       1 UNK         0.0000 
     14 N14         1.4270   53.4432   28.0317 N.am      1 UNK         0.0000 
     15 C15         2.7375   53.1291   28.0598 C.2       1 UNK         0.0000 
     16 O16         3.2360   52.4499   28.9569 O.2       1 UNK         0.0000 
     17 C17         3.5491   53.6048   26.8684 C.ar      1 UNK         0.0000 
     18 C18         2.9307   53.6817   25.6083 C.ar      1 UNK         0.0000 
     19 C19         3.6581   53.9804   24.4604 C.ar      1 UNK         0.0000 
     20 C20         5.0150   54.2671   24.5554 C.ar      1 UNK         0.0000 
     21 C21         5.6426   54.2171   25.7938 C.ar      1 UNK         0.0000 
     22 C22         4.9356   53.8676   26.9612 C.ar      1 UNK         0.0000 
     23 O23         5.5618   53.7772   28.1935 O.3       1 UNK         0.0000 
     24 C24         6.9872   53.7676   28.2504 C.3       1 UNK         0.0000 
     25 S25         2.8449   53.9474   22.8754 S.o2      1 UNK         0.0000 
     26 O26         1.5045   54.4966   23.0919 O.2       1 UNK         0.0000 
     27 O27         3.7755   54.4967   21.8870 O.2       1 UNK         0.0000 
     28 N28         2.6362   52.2675   22.4816 N.pl3     1 UNK         0.0000 
     29 C29        -3.4998   49.8089   26.4857 C.3       1 UNK         0.0000 
     30 H30         0.8952   50.4233   23.7681 H         1 UNK         0.0000 
     31 H31         1.2741   48.9007   24.5603 H         1 UNK         0.0000 
     32 H32        -0.0767   48.9917   23.4431 H         1 UNK         0.0000 
     33 H33        -2.1761   50.2657   24.1106 H         1 UNK         0.0000 
     34 H34        -1.2919   51.6921   24.5088 H         1 UNK         0.0000 
     35 H35        -1.6285   52.7124   27.0287 H         1 UNK         0.0000 
     36 H36        -2.5708   51.6964   28.1663 H         1 UNK         0.0000 
     37 H37         1.1004   49.9866   26.8833 H         1 UNK         0.0000 
     38 H38         0.7233   51.5796   26.1806 H         1 UNK         0.0000 
     39 H39        -0.6029   51.2008   29.7508 H         1 UNK         0.0000 
     40 H40         0.9806   50.8967   29.0720 H         1 UNK         0.0000 
     41 H41        -0.1851   53.1924   31.0632 H         1 UNK         0.0000 
     42 H42         1.5336   53.1083   30.8192 H         1 UNK         0.0000 
     43 H43         0.6526   54.6011   30.4429 H         1 UNK         0.0000 
     44 H44         1.1343   54.0778   27.3015 H         1 UNK         0.0000 
     45 H45         1.8812   53.4530   25.4886 H         1 UNK         0.0000 
     46 H46         5.5951   54.5029   23.6738 H         1 UNK         0.0000 
     47 H47         6.6987   54.4304   25.8156 H         1 UNK         0.0000 
     48 H48         7.3212   53.6967   29.2817 H         1 UNK         0.0000 
     49 H49         7.3977   52.9123   27.7119 H         1 UNK         0.0000 
     50 H50         7.4193   54.6841   27.8492 H         1 UNK         0.0000 
     51 H51         1.6744   52.0361   22.2237 H         1 UNK         0.0000 
     52 H52         3.3076   51.9488   21.7778 H         1 UNK         0.0000 
     53 H53        -2.8955   48.9962   26.8818 H         1 UNK         0.0000 
     54 H54        -4.0509   49.4151   25.6317 H         1 UNK         0.0000 
     55 H55        -4.2331   50.0663   27.2513 H         1 UNK         0.0000 
     56 H56        -0.9947   49.9673   27.9578 H         1 UNK         0.0000 
@<TRIPOS>BOND
     1    1    2 1    
     2    1   30 1    
     3    1   31 1    
     4    1   32 1    
     5    2    3 1    
     6    2    9 1    
     7    2    4 1    
     8    4    5 1    
     9    4   33 1    
    10    4   34 1    
    11    5    6 1    
    12    5    7 1    
    13    5   29 1    
    14    7    8 1    
    15    7   35 1    
    16    7   36 1    
    17    8    9 1    
    18    8   10 1    
    19    8   56 1    
    20    9   37 1    
    21    9   38 1    
    22   10   11 1    
    23   10   39 1    
    24   10   40 1    
    25   11   12 1    
    26   11   13 1    
    27   11   14 1    
    28   13   41 1    
    29   13   42 1    
    30   13   43 1    
    31   14   15 am   BACKBONE|DICT|INTERRES
    32   14   44 1    
    33   15   16 2    
    34   15   17 1    
    35   17   22 ar   
    36   17   18 ar   
    37   18   19 ar   
    38   18   45 1    
    39   19   20 ar   
    40   19   25 1    
    41   20   21 ar   
    42   20   46 1    
    43   21   22 ar   
    44   21   47 1    
    45   22   23 1    
    46   23   24 1    
    47   24   48 1    
    48   24   49 1    
    49   24   50 1    
    50   25   26 2    
    51   25   27 2    
    52   25   28 1    
    53   28   51 1    
    54   28   52 1    
    55   29   53 1    
    56   29   54 1    
    57   29   55 1    
@<TRIPOS>SUBSTRUCTURE
     1 UNK         1 GROUP             0       ****    0 ROOT    
