ZINC36882916_1888
                    3D
 Schrodinger Suite 2024-2.
 27 28  0  0  1  0            999 V2000
    6.6237   54.8800   18.5707 C   0  0  0  0  0  0
    5.8872   53.7110   18.7483 C   0  0  0  0  0  0
    5.3146   53.4116   19.9864 C   0  0  0  0  0  0
    5.4947   54.2904   21.0835 C   0  0  0  0  0  0
    6.2451   55.4631   20.8788 C   0  0  0  0  0  0
    6.7987   55.7567   19.6361 C   0  0  0  0  0  0
    7.5039   56.8967   19.4692 F   0  0  0  0  0  0
    4.9064   54.0116   22.4530 C   0  0  0  0  0  0
    3.8232   53.4345   22.5573 O   0  0  0  0  0  0
    5.6612   54.4181   23.5013 N   0  0  0  0  0  0
    5.3487   54.4207   24.8714 C   0  0  0  0  0  0
    4.0480   54.2510   25.3795 C   0  0  0  0  0  0
    3.8549   54.2635   26.7602 C   0  0  0  0  0  0
    4.9478   54.4502   27.6035 C   0  0  0  0  0  0
    6.2109   54.6181   27.0353 C   0  0  0  0  0  0
    6.4177   54.6133   25.6917 N   0  0  0  0  0  0
    4.7039   54.4967   29.4885 Br  0  0  0  0  0  0
    4.6289   52.1980   20.0819 N   0  0  0  0  0  0
    7.0591   55.1063   17.6088 H   0  0  0  0  0  0
    5.7649   53.0301   17.9169 H   0  0  0  0  0  0
    6.3978   56.1750   21.6767 H   0  0  0  0  0  0
    6.5877   54.7511   23.2851 H   0  0  0  0  0  0
    3.1880   54.1204   24.7420 H   0  0  0  0  0  0
    2.8642   54.1356   27.1710 H   0  0  0  0  0  0
    7.0756   54.7723   27.6654 H   0  0  0  0  0  0
    4.7044   51.5197   19.3194 H   0  0  0  0  0  0
    4.0822   52.0107   20.9119 H   0  0  0  0  0  0
  1  6  2  0  0  0
  1  2  1  0  0  0
  1 19  1  0  0  0
  2  3  2  0  0  0
  2 20  1  0  0  0
  3  4  1  0  0  0
  3 18  1  0  0  0
  4  5  2  0  0  0
  4  8  1  0  0  0
  5  6  1  0  0  0
  5 21  1  0  0  0
  6  7  1  0  0  0
  8  9  2  0  0  0
  8 10  1  0  0  0
 10 11  1  0  0  0
 10 22  1  0  0  0
 11 16  2  0  0  0
 11 12  1  0  0  0
 12 13  2  0  0  0
 12 23  1  0  0  0
 13 14  1  0  0  0
 13 24  1  0  0  0
 14 15  2  0  0  0
 14 17  1  0  0  0
 15 16  1  0  0  0
 15 25  1  0  0  0
 18 26  1  0  0  0
 18 27  1  0  0  0
M  END
> <i_i_glide_confnum>
2

> <i_i_glide_lignum>
1889

> <i_i_glide_posenum>
192

> <i_i_glide_rotatable_bonds>
3

> <i_m_Source_File_Index>
5180

> <b_m_subgroup_collapsed>
0

> <r_i_docking_score>
-5.27599

> <r_i_glide_ecoul>
-3.7781

> <r_i_glide_eff_state_penalty>
0

> <r_i_glide_einternal>
4.81813

> <r_i_glide_emodel>
-42.083

> <r_i_glide_energy>
-33.2679

> <r_i_glide_erotb>
0.577886

> <r_i_glide_esite>
-0.136806

> <r_i_glide_evdw>
-29.4898

> <r_i_glide_gscore>
-5.27599

> <r_i_glide_hbond>
-0.16

> <r_i_glide_ligand_efficiency>
-0.29311

> <r_i_glide_ligand_efficiency_ln>
-1.35617

> <r_i_glide_ligand_efficiency_sa>
-0.768166

> <r_i_glide_lipo>
-1.88856

> <r_i_glide_metal>
0

> <r_i_glide_rewards>
-1.6273

> <s_i_glide_gridfile>
wee1_glide-grid

> <s_m_Source_File>
wee1_decoys_glide_SP.sdf

> <s_m_Source_Path>
/Users/zhangxujun/Desktop

> <s_m_entry_id>
5455

> <s_m_entry_name>
wee1_decoys_glide_SP.5180

> <s_m_subgroup_title>
wee1_decoys_glide_SP

> <s_m_subgroupid>
wee1_decoys_glide_SP


$$$$
