ZINC38560748_5308
                    3D
 Schrodinger Suite 2024-2.
 60 62  0  0  1  0            999 V2000
    5.0845   54.9411   26.0469 C   0  0  0  0  0  0
    3.7541   54.2751   25.7527 C   0  0  0  0  0  0
    3.0881   53.5753   26.7612 C   0  0  0  0  0  0
    1.9006   52.9043   26.4751 C   0  0  0  0  0  0
    1.3677   52.9595   25.1850 C   0  0  0  0  0  0
    1.9963   53.7182   24.1943 C   0  0  0  0  0  0
    3.2004   54.3587   24.4738 C   0  0  0  0  0  0
   -0.0542   51.9473   24.7846 S   0  0  0  0  0  0
   -0.6669   52.5096   23.5748 O   0  0  0  0  0  0
   -0.8315   51.8229   26.0247 O   0  0  0  0  0  0
    0.7022   50.3602   24.4164 N   0  0  0  0  0  0
    0.2056   49.2171   25.2248 C   0  0  0  0  0  0
   -1.1585   48.7363   24.6832 C   0  0  0  0  0  0
   -1.0826   48.4216   23.1645 C   0  0  0  0  0  0
   -0.4042   49.5444   22.3345 C   0  0  0  0  0  0
    0.9377   49.9429   22.9944 C   0  0  1  0  0  0
    1.5570   49.0435   23.0222 H   0  0  0  0  0  0
    1.7487   51.0402   22.2679 C   0  0  0  0  0  0
    2.4402   50.6506   20.9481 C   0  0  0  0  0  0
    3.1317   51.8058   20.3633 N   0  0  0  0  0  0
    4.3050   52.2988   20.8266 C   0  0  0  0  0  0
    4.9775   51.7185   21.6815 O   0  0  0  0  0  0
    4.7143   53.6437   20.3238 C   0  0  0  0  0  0
    5.3815   54.3911   21.0461 O   0  0  0  0  0  0
    4.3035   53.9601   19.0690 N   0  0  0  0  0  0
    4.5032   55.1827   18.3996 C   0  0  0  0  0  0
    3.5279   55.5808   17.4815 C   0  0  0  0  0  0
    3.6515   56.7949   16.8051 C   0  0  0  0  0  0
    4.7581   57.6139   17.0278 C   0  0  0  0  0  0
    5.7593   57.2201   17.9242 C   0  0  0  0  0  0
    5.6270   56.0010   18.5998 C   0  0  0  0  0  0
    6.9746   58.1088   18.1799 C   0  0  0  0  0  0
    7.2655   58.8695   17.1232 F   0  0  0  0  0  0
    8.0544   57.3813   18.4722 F   0  0  0  0  0  0
    6.7104   58.8961   19.2227 F   0  0  0  0  0  0
    5.1187   55.2964   27.0777 H   0  0  0  0  0  0
    5.9004   54.2320   25.8960 H   0  0  0  0  0  0
    5.2455   55.8073   25.4025 H   0  0  0  0  0  0
    3.5105   53.5103   27.7536 H   0  0  0  0  0  0
    1.4179   52.3179   27.2457 H   0  0  0  0  0  0
    1.5866   53.7775   23.1963 H   0  0  0  0  0  0
    3.7109   54.8974   23.6883 H   0  0  0  0  0  0
    0.2297   49.4631   26.2878 H   0  0  0  0  0  0
    0.9089   48.3915   25.1034 H   0  0  0  0  0  0
   -1.9188   49.4981   24.8718 H   0  0  0  0  0  0
   -1.4804   47.8520   25.2354 H   0  0  0  0  0  0
   -2.0790   48.2106   22.7739 H   0  0  0  0  0  0
   -0.5046   47.5046   23.0398 H   0  0  0  0  0  0
   -1.0884   50.3927   22.2870 H   0  0  0  0  0  0
   -0.2399   49.1866   21.3161 H   0  0  0  0  0  0
    2.5271   51.3959   22.9428 H   0  0  0  0  0  0
    1.1021   51.8859   22.0432 H   0  0  0  0  0  0
    1.7002   50.2807   20.2375 H   0  0  0  0  0  0
    3.1157   49.8073   21.1021 H   0  0  0  0  0  0
    2.6080   52.3290   19.6783 H   0  0  0  0  0  0
    3.7721   53.2696   18.5609 H   0  0  0  0  0  0
    2.6563   54.9659   17.3049 H   0  0  0  0  0  0
    2.8832   57.1096   16.1144 H   0  0  0  0  0  0
    4.8288   58.5621   16.5095 H   0  0  0  0  0  0
    6.4073   55.6962   19.2811 H   0  0  0  0  0  0
  1  2  1  0  0  0
  1 36  1  0  0  0
  1 37  1  0  0  0
  1 38  1  0  0  0
  2  7  2  0  0  0
  2  3  1  0  0  0
  3  4  2  0  0  0
  3 39  1  0  0  0
  4  5  1  0  0  0
  4 40  1  0  0  0
  5  6  2  0  0  0
  5  8  1  0  0  0
  6  7  1  0  0  0
  6 41  1  0  0  0
  7 42  1  0  0  0
  8  9  2  0  0  0
  8 10  2  0  0  0
  8 11  1  0  0  0
 11 16  1  0  0  0
 11 12  1  0  0  0
 12 13  1  0  0  0
 12 43  1  0  0  0
 12 44  1  0  0  0
 13 14  1  0  0  0
 13 45  1  0  0  0
 13 46  1  0  0  0
 14 15  1  0  0  0
 14 47  1  0  0  0
 14 48  1  0  0  0
 15 16  1  0  0  0
 15 49  1  0  0  0
 15 50  1  0  0  0
 16 17  1  0  0  0
 16 18  1  0  0  0
 18 19  1  0  0  0
 18 51  1  0  0  0
 18 52  1  0  0  0
 19 20  1  0  0  0
 19 53  1  0  0  0
 19 54  1  0  0  0
 20 21  1  0  0  0
 20 55  1  0  0  0
 21 22  2  0  0  0
 21 23  1  0  0  0
 23 24  2  0  0  0
 23 25  1  0  0  0
 25 26  1  0  0  0
 25 56  1  0  0  0
 26 31  2  0  0  0
 26 27  1  0  0  0
 27 28  2  0  0  0
 27 57  1  0  0  0
 28 29  1  0  0  0
 28 58  1  0  0  0
 29 30  2  0  0  0
 29 59  1  0  0  0
 30 31  1  0  0  0
 30 32  1  0  0  0
 31 60  1  0  0  0
 32 33  1  0  0  0
 32 34  1  0  0  0
 32 35  1  0  0  0
M  END
> <i_i_glide_confnum>
332

> <i_i_glide_lignum>
5309

> <i_i_glide_posenum>
297

> <i_i_glide_rotatable_bonds>
10

> <i_m_Source_File_Index>
5171

> <b_m_subgroup_collapsed>
0

> <r_i_docking_score>
-4.48357

> <r_i_glide_ecoul>
-6.20702

> <r_i_glide_eff_state_penalty>
0

> <r_i_glide_einternal>
2.67674

> <r_i_glide_emodel>
-55.6415

> <r_i_glide_energy>
-45.8863

> <r_i_glide_erotb>
0.741698

> <r_i_glide_esite>
-0.229404

> <r_i_glide_evdw>
-39.6793

> <r_i_glide_gscore>
-4.48357

> <r_i_glide_hbond>
0

> <r_i_glide_ligand_efficiency>
-0.13187

> <r_i_glide_ligand_efficiency_ln>
-0.990545

> <r_i_glide_ligand_efficiency_sa>
-0.427206

> <r_i_glide_lipo>
-2.06097

> <r_i_glide_metal>
0

> <r_i_glide_rewards>
-0.0198678

> <s_i_glide_gridfile>
wee1_glide-grid

> <s_m_Source_File>
wee1_decoys_glide_SP.sdf

> <s_m_Source_Path>
/Users/zhangxujun/Desktop

> <s_m_entry_id>
5446

> <s_m_entry_name>
wee1_decoys_glide_SP.5171

> <s_m_subgroup_title>
wee1_decoys_glide_SP

> <s_m_subgroupid>
wee1_decoys_glide_SP


$$$$
