@<TRIPOS>MOLECULE
ZINC57458354_5870
43   45    1
SMALL
USER_CHARGES


@<TRIPOS>ATOM
      1 C1          3.3366   51.3575   21.4391 C.3       1 UNK         0.0000 
      2 C2          2.5197   52.1670   22.4638 C.2       1 UNK         0.0000 
      3 C3          2.9592   53.2966   23.0899 C.2       1 UNK         0.0000 
      4 C4          2.0667   53.9206   24.1842 C.3       1 UNK         0.0000 
      5 H5          2.2122   55.0033   24.1972 H         1 UNK         0.0000 
      6 N6          0.6786   53.6872   23.7280 N.am      1 UNK         0.0000 
      7 C7          0.2439   52.5062   23.2054 C.2       1 UNK         0.0000 
      8 O8         -0.9657   52.2800   23.2413 O.2       1 UNK         0.0000 
      9 N9          1.2244   51.7080   22.6556 N.am      1 UNK         0.0000 
     10 C10         0.7533   50.3914   22.1813 C.3       1 UNK         0.0000 
     11 C11         2.3508   53.5114   25.6479 C.ar      1 UNK         0.0000 
     12 C12         1.5042   52.6360   26.3517 C.ar      1 UNK         0.0000 
     13 C13         1.7403   52.3307   27.6920 C.ar      1 UNK         0.0000 
     14 C14         2.8286   52.8902   28.3562 C.ar      1 UNK         0.0000 
     15 C15         3.6753   53.7684   27.6802 C.ar      1 UNK         0.0000 
     16 C16         3.4206   54.0940   26.3466 C.ar      1 UNK         0.0000 
     17 Br17        5.1885   54.5126   28.5668 Br        1 UNK         0.0000 
     18 F18         3.0620   52.5699   29.6506 F         1 UNK         0.0000 
     19 C19         4.2475   53.9198   22.8453 C.2       1 UNK         0.0000 
     20 O20         5.0649   54.0969   23.7456 O.2       1 UNK         0.0000 
     21 N21         4.4230   54.2918   21.5602 N.am      1 UNK         0.0000 
     22 C22         5.5650   54.8218   20.9313 C.ar      1 UNK         0.0000 
     23 C23         6.7076   55.2867   21.6060 C.ar      1 UNK         0.0000 
     24 C24         7.8215   55.6976   20.8808 C.ar      1 UNK         0.0000 
     25 C25         7.7829   55.6958   19.4891 C.ar      1 UNK         0.0000 
     26 C26         6.6427   55.2746   18.8140 C.ar      1 UNK         0.0000 
     27 C27         5.5347   54.8373   19.5347 C.ar      1 UNK         0.0000 
     28 F28         8.8598   56.1125   18.7873 F         1 UNK         0.0000 
     29 H29         4.3422   51.7355   21.2641 H         1 UNK         0.0000 
     30 H30         3.4709   50.3301   21.7763 H         1 UNK         0.0000 
     31 H31         2.8321   51.3379   20.4716 H         1 UNK         0.0000 
     32 H32        -0.0455   54.1817   24.2273 H         1 UNK         0.0000 
     33 H33        -0.2337   50.1047   22.5536 H         1 UNK         0.0000 
     34 H34         0.7154   50.3752   21.0896 H         1 UNK         0.0000 
     35 H35         1.4409   49.6112   22.5097 H         1 UNK         0.0000 
     36 H36         0.6527   52.1743   25.8772 H         1 UNK         0.0000 
     37 H37         1.0817   51.6517   28.2135 H         1 UNK         0.0000 
     38 H38         4.0709   54.8029   25.8585 H         1 UNK         0.0000 
     39 H39         3.6469   54.1018   20.9444 H         1 UNK         0.0000 
     40 H40         6.7776   55.3079   22.6819 H         1 UNK         0.0000 
     41 H41         8.7118   56.0283   21.3972 H         1 UNK         0.0000 
     42 H42         6.6200   55.2794   17.7334 H         1 UNK         0.0000 
     43 H43         4.6637   54.4897   18.9971 H         1 UNK         0.0000 
@<TRIPOS>BOND
     1    1    2 1    
     2    1   29 1    
     3    1   30 1    
     4    1   31 1    
     5    2    9 1    
     6    2    3 2    
     7    3    4 1    
     8    3   19 1    
     9    4    5 1    
    10    4    6 1    
    11    4   11 1    
    12    6    7 am   BACKBONE|DICT|INTERRES
    13    6   32 1    
    14    7    8 2    
    15    7    9 am   BACKBONE|DICT|INTERRES
    16    9   10 1    
    17   10   33 1    
    18   10   34 1    
    19   10   35 1    
    20   11   16 ar   
    21   11   12 ar   
    22   12   13 ar   
    23   12   36 1    
    24   13   14 ar   
    25   13   37 1    
    26   14   15 ar   
    27   14   18 1    
    28   15   16 ar   
    29   15   17 1    
    30   16   38 1    
    31   19   20 2    
    32   19   21 am   BACKBONE|DICT|INTERRES
    33   21   22 1    
    34   21   39 1    
    35   22   27 ar   
    36   22   23 ar   
    37   23   24 ar   
    38   23   40 1    
    39   24   25 ar   
    40   24   41 1    
    41   25   26 ar   
    42   25   28 1    
    43   26   27 ar   
    44   26   42 1    
    45   27   43 1    
@<TRIPOS>SUBSTRUCTURE
     1 UNK         1 GROUP             0       ****    0 ROOT    
